#------------------------------------------------------------------------------
#$Date: 2017-06-05 03:45:14 +0300 (Mon, 05 Jun 2017) $
#$Revision: 197486 $
#$URL: file:///home/coder/svn-repositories/cod/cif/1/54/59/1545906.cif $
#------------------------------------------------------------------------------
#
# This file is available in the Crystallography Open Database (COD),
# http://www.crystallography.net/
#
# All data on this site have been placed in the public domain by the
# contributors.
#
data_1545906
loop_
_publ_author_name
'M\"oller, Guido P'
'M\"uller, Steffen'
'Wolfst\"adter, Bernd T'
'Wolfrum, Susanne'
'Schepmann, Dirk'
'W\"unsch, Bernhard'
'Carreira, Erick M.'
_publ_section_title
;
 Oxetanyl Amino Acids for Peptidomimetics.
;
_journal_issue                   10
_journal_name_full               'Organic letters'
_journal_page_first              2510
_journal_page_last               2513
_journal_paper_doi               10.1021/acs.orglett.7b00745
_journal_volume                  19
_journal_year                    2017
_chemical_formula_moiety         'C28 H31 Br N2 O5 S2'
_chemical_formula_sum            'C28 H31 Br N2 O5 S2'
_chemical_formula_weight         619.58
_chemical_name_systematic
;
 ? 
;
_space_group_crystal_system      monoclinic
_space_group_IT_number           4
_space_group_name_Hall           'P 2yb'
_space_group_name_H-M_alt        'P 1 21 1'
_symmetry_space_group_name_Hall  'P 2yb'
_symmetry_space_group_name_H-M   'P 1 21 1'
_atom_sites_solution_hydrogens   mixed
_audit_creation_date             2017-04-01
_audit_creation_method
;
Olex2 1.2
(compiled 2017.03.28 svn.r3405 for OlexSys, GUI svn.r5335)
;
_cell_angle_alpha                90
_cell_angle_beta                 95.366(2)
_cell_angle_gamma                90
_cell_formula_units_Z            2
_cell_length_a                   13.3441(6)
_cell_length_b                   6.3849(2)
_cell_length_c                   16.1360(7)
_cell_measurement_reflns_used    9934
_cell_measurement_temperature    100(2)
_cell_measurement_theta_max      27.54
_cell_measurement_theta_min      2.54
_cell_volume                     1368.77(10)
_computing_cell_refinement       'Bruker SAINT'
_computing_data_collection       'Bruker APEX2'
_computing_data_reduction        'Bruker SAINT'
_computing_molecular_graphics    'Olex2 (Dolomanov et al., 2009)'
_computing_publication_material  'Olex2 (Dolomanov et al., 2009)'
_computing_structure_refinement  'ShelXL (Sheldrick, 2015)'
_computing_structure_solution    'SHELXS-97 (Sheldrick, 2008)'
_diffrn_ambient_temperature      99.98
_diffrn_measured_fraction_theta_full 0.999
_diffrn_measured_fraction_theta_max 0.999
_diffrn_measurement_device_type  'Bruker APEX-II CCD'
_diffrn_measurement_method       '\f and \w scans'
_diffrn_radiation_type           MoK\a
_diffrn_radiation_wavelength     0.71073
_diffrn_reflns_av_R_equivalents  0.0264
_diffrn_reflns_av_unetI/netI     0.0471
_diffrn_reflns_Laue_measured_fraction_full 0.999
_diffrn_reflns_Laue_measured_fraction_max 0.999
_diffrn_reflns_limit_h_max       17
_diffrn_reflns_limit_h_min       -17
_diffrn_reflns_limit_k_max       8
_diffrn_reflns_limit_k_min       -7
_diffrn_reflns_limit_l_max       20
_diffrn_reflns_limit_l_min       -20
_diffrn_reflns_number            21825
_diffrn_reflns_point_group_measured_fraction_full 0.976
_diffrn_reflns_point_group_measured_fraction_max 0.969
_diffrn_reflns_theta_full        25.242
_diffrn_reflns_theta_max         27.545
_diffrn_reflns_theta_min         1.896
_exptl_absorpt_coefficient_mu    1.696
_exptl_absorpt_correction_T_max  0.9509
_exptl_absorpt_correction_T_min  0.6129
_exptl_absorpt_correction_type   multi-scan
_exptl_absorpt_process_details   SADABS
_exptl_crystal_colour            colourless
_exptl_crystal_colour_primary    colourless
_exptl_crystal_density_diffrn    1.503
_exptl_crystal_density_method    'not measured'
_exptl_crystal_description       needle
_exptl_crystal_F_000             640
_exptl_crystal_size_max          0.32
_exptl_crystal_size_mid          0.06
_exptl_crystal_size_min          0.03
_refine_diff_density_max         0.412
_refine_diff_density_min         -0.277
_refine_diff_density_rms         0.049
_refine_ls_abs_structure_details
;
 Flack x determined using 2215 quotients [(I+)-(I-)]/[(I+)+(I-)]
 (Parsons, Flack and Wagner, Acta Cryst. B69 (2013) 249-259).
;
_refine_ls_abs_structure_Flack   0.004(3)
_refine_ls_extinction_method     none
_refine_ls_goodness_of_fit_ref   0.983
_refine_ls_hydrogen_treatment    mixed
_refine_ls_matrix_type           full
_refine_ls_number_parameters     350
_refine_ls_number_reflns         6125
_refine_ls_number_restraints     1
_refine_ls_restrained_S_all      0.983
_refine_ls_R_factor_all          0.0302
_refine_ls_R_factor_gt           0.0249
_refine_ls_shift/su_max          0.001
_refine_ls_shift/su_mean         0.000
_refine_ls_structure_factor_coef Fsqd
_refine_ls_weighting_details
'w=1/[\s^2^(Fo^2^)+(0.0214P)^2^] where P=(Fo^2^+2Fc^2^)/3'
_refine_ls_weighting_scheme      calc
_refine_ls_wR_factor_gt          0.0543
_refine_ls_wR_factor_ref         0.0554
_reflns_Friedel_coverage         0.779
_reflns_Friedel_fraction_full    0.948
_reflns_Friedel_fraction_max     0.932
_reflns_number_gt                5493
_reflns_number_total             6125
_reflns_threshold_expression     'I > 2\s(I)'
_iucr_refine_instructions_details
;
TITL mo_ca011012_0ma in P2(1)
CELL 0.71073 13.3441 6.3849 16.136 90 95.366 90
ZERR 2 0.0006 0.0002 0.0007 0 0.002 0
LATT -1
SYMM -X,0.5+Y,-Z
SFAC C H Br N O S
UNIT 56 62 2 4 10 4
 
L.S. 4
PLAN  -5 0 0
SIZE 0.03 0.06 0.32
TEMP -173.17
HTAB
BOND $H
CONF
fmap 2
acta
REM <olex2.extras>
REM <HklSrc "%./mo_ca011012_0ma.hkl">
REM </olex2.extras>
 
WGHT    0.021400
FVAR       0.21537
BR1   3    0.690617    0.352329   -0.174003    11.00000    0.03976    0.04559 =
         0.02178   -0.00114   -0.00653   -0.01558
S1    6    0.661537    0.663159    0.381480    11.00000    0.01321    0.01222 =
         0.01643   -0.00295    0.00300   -0.00125
S2    6    0.972696    0.614178    0.151571    11.00000    0.01486    0.01795 =
         0.01535   -0.00166    0.00260    0.00050
O1    5    1.048542    0.460210    0.172983    11.00000    0.02016    0.03194 =
         0.02040   -0.00193    0.00187    0.00894
O2    5    0.999113    0.830545    0.142830    11.00000    0.02023    0.02246 =
         0.02067   -0.00060    0.00525   -0.00670
O3    5    0.826892    1.179834    0.268017    11.00000    0.02136    0.01075 =
         0.02845    0.00271    0.00144   -0.00195
O4    5    0.656441    0.438460    0.376516    11.00000    0.02205    0.01245 =
         0.02520   -0.00622    0.00682   -0.00267
O5    5    0.597029    0.786176    0.324490    11.00000    0.01289    0.02104 =
         0.01855   -0.00155    0.00004    0.00117
N1    4    0.777391    0.741444    0.370930    11.00000    0.01178    0.01538 =
         0.01328    0.00321    0.00270   -0.00085
N2    4    0.894634    0.601714    0.223313    11.00000    0.01655    0.00971 =
         0.01448    0.00076    0.00191    0.00049
C1    1    0.567909    0.880590    0.730966    11.00000    0.02802    0.02930 =
         0.01811   -0.00314    0.00222    0.00591
AFIX 137  1.0899
H1A   2    0.637177    0.874454    0.772443    11.00000   -1.50000
H1B   2    0.514606    0.766043    0.750983    11.00000   -1.50000
H1C   2    0.535348    1.036894    0.732825    11.00000   -1.50000
AFIX   0
C2    1    0.590797    0.831462    0.643598    11.00000    0.01211    0.02296 =
         0.01798   -0.00135   -0.00039    0.00364
C3    1    0.626676    0.983539    0.592206    11.00000    0.01733    0.01733 =
         0.02184   -0.00625   -0.00112    0.00161
AFIX  43  1.0800
H3    2    0.636855    1.141860    0.615016    11.00000   -1.20000
AFIX   0
C4    1    0.649709    0.936001    0.512092    11.00000    0.01711    0.01566 =
         0.02114   -0.00364    0.00138   -0.00211
AFIX  43  1.0800
H4    2    0.676344    1.056050    0.472410    11.00000   -1.20000
AFIX   0
C5    1    0.637769    0.730824    0.484074    11.00000    0.01052    0.01567 =
         0.01665   -0.00256    0.00274    0.00242
C6    1    0.796706    0.862436    0.295960    11.00000    0.01297    0.01019 =
         0.01476    0.00187    0.00055   -0.00028
C7    1    0.804096    0.739066    0.214368    11.00000    0.01233    0.01234 =
         0.01273    0.00006   -0.00040    0.00121
AFIX  13  1.0900
H7    2    0.816954    0.854146    0.166603    11.00000   -1.20000
AFIX   0
C8    1    0.904060    0.537171    0.057486    11.00000    0.01727    0.01638 =
         0.01355   -0.00134    0.00527    0.00129
C9    1    0.880646    0.684549   -0.004815    11.00000    0.01887    0.01716 =
         0.02166    0.00131    0.00942    0.00031
AFIX  43  1.0800
H9    2    0.910652    0.841432    0.001491    11.00000   -1.20000
AFIX   0
C10   1    0.818428    0.628692   -0.075196    11.00000    0.02236    0.02274 =
         0.01530    0.00319    0.00318   -0.00158
AFIX  43  1.0800
H10   2    0.799989    0.740679   -0.124432    11.00000   -1.20000
AFIX   0
C11   1    0.780791    0.428498   -0.081036    11.00000    0.02050    0.02990 =
         0.01435   -0.00376    0.00301   -0.00233
C12   1    0.868839    0.332246    0.049718    11.00000    0.02491    0.01903 =
         0.01678    0.00088    0.00490   -0.00059
AFIX  43  1.0800
H12   2    0.889785    0.217842    0.097524    11.00000   -1.20000
AFIX   0
C13   1    0.805954    0.277195   -0.020965    11.00000    0.02803    0.02028 =
         0.01949   -0.00196    0.00516   -0.00498
AFIX  43  1.0800
H13   2    0.777380    0.119465   -0.028745    11.00000   -1.20000
AFIX   0
C14   1    0.734304    1.064252    0.279300    11.00000    0.01759    0.01094 =
         0.02362   -0.00054    0.00176    0.00055
AFIX  23  1.0900
H14A  2    0.681912    1.056881    0.223347    11.00000   -1.20000
H14B  2    0.696408    1.116771    0.332561    11.00000   -1.20000
AFIX   0
C15   1    0.886236    1.013168    0.309561    11.00000    0.01788    0.01168 =
         0.01916    0.00335   -0.00155   -0.00105
AFIX  23  1.0900
H15A  2    0.908993    1.045310    0.374962    11.00000   -1.20000
H15B  2    0.950744    0.966533    0.277114    11.00000   -1.20000
AFIX   0
C16   1    0.860628    0.604636    0.407216    11.00000    0.01324    0.01422 =
         0.01635    0.00221   -0.00003    0.00336
AFIX  23  1.0900
H16A  2    0.931869    0.663176    0.388522    11.00000   -1.20000
H16B  2    0.849591    0.446721    0.382363    11.00000   -1.20000
AFIX   0
C17   1    0.866158    0.596098    0.501012    11.00000    0.01163    0.02150 =
         0.01619    0.00171    0.00059    0.00314
C18   1    0.846668    0.410087    0.541445    11.00000    0.01551    0.02702 =
         0.02543    0.00631   -0.00108    0.00217
AFIX  43  1.0800
H18   2    0.831141    0.268703    0.505796    11.00000   -1.20000
AFIX   0
C19   1    0.847131    0.405717    0.628177    11.00000    0.01627    0.04807 =
         0.02617    0.01913    0.00043    0.00069
AFIX  43  1.0800
H19   2    0.831646    0.261130    0.659292    11.00000   -1.20000
AFIX   0
C20   1    0.867472    0.587007    0.674373    11.00000    0.01624    0.06015 =
         0.01669    0.00344    0.00156    0.01084
AFIX  43  1.0800
H20   2    0.865520    0.584813    0.741129    11.00000   -1.20000
AFIX   0
C21   1    0.890146    0.769588    0.634586    11.00000    0.02591    0.04186 =
         0.01970   -0.00694   -0.00593    0.01612
AFIX  43  1.0800
H21   2    0.908579    0.909035    0.670723    11.00000   -1.20000
AFIX   0
C22   1    0.889549    0.776150    0.548916    11.00000    0.02238    0.02436 =
         0.02189   -0.00323   -0.00408    0.00884
AFIX  43  1.0800
H22   2    0.907179    0.920634    0.518647    11.00000   -1.20000
AFIX   0
C23   1    0.576865    0.627805    0.612240    11.00000    0.01837    0.01960 =
         0.02183    0.00160    0.00391   -0.00146
AFIX  43  1.0800
H23   2    0.547126    0.508187    0.650436    11.00000   -1.20000
AFIX   0
C24   1    0.600595    0.578251    0.533382    11.00000    0.01622    0.01544 =
         0.02290   -0.00175    0.00268   -0.00096
AFIX  43  1.0800
H24   2    0.590130    0.420332    0.510191    11.00000   -1.20000
AFIX   0
C25   1    0.712983    0.615925    0.182286    11.00000    0.01665    0.01422 =
         0.01461   -0.00416    0.00370   -0.00090
AFIX  43  1.0800
H25   2    0.698922    0.473092    0.215132    11.00000   -1.20000
AFIX   0
C26   1    0.647809    0.663385    0.117963    11.00000    0.01621    0.02629 =
         0.01473   -0.00203    0.00222    0.00034
C27   1    0.647365    0.865494    0.068652    11.00000    0.02347    0.03353 =
         0.02175    0.00901   -0.00476    0.00220
AFIX 137  1.0899
H27A  2    0.712548    0.959668    0.090847    11.00000   -1.50000
H27B  2    0.578692    0.952548    0.076742    11.00000   -1.50000
H27C  2    0.650535    0.829607    0.002907    11.00000   -1.50000
AFIX   0
C28   1    0.563730    0.515970    0.089066    11.00000    0.02120    0.04078 =
         0.02242   -0.00772    0.00022   -0.00935
AFIX 137  1.0899
H28A  2    0.567371    0.377682    0.128844    11.00000   -1.50000
H28B  2    0.571263    0.469128    0.024987    11.00000   -1.50000
H28C  2    0.491650    0.594316    0.092436    11.00000   -1.50000
AFIX   0
H2    2    0.876204    0.489203    0.231421    11.00000    0.01998
HKLF 4
 
REM  mo_ca011012_0ma in P2(1)
REM R1 =  0.0249 for    5493 Fo > 4sig(Fo)  and  0.0302 for all    6125 data
REM    350 parameters refined using      1 restraints
 
END  
     
WGHT      0.0214      0.0000 

REM Instructions for potential hydrogen bonds
EQIV $1 -x+2, y+1/2, -z
HTAB C10 O1_$1
EQIV $2 x, y+1, z
HTAB C14 O4_$2
HTAB C15 O2
EQIV $3 x, y-1, z
HTAB C16 O3_$3
HTAB C25 O3_$3
HTAB N2 O3_$3

REM Highest difference peak  0.412,  deepest hole -0.277,  1-sigma level  0.049
Q1    1   0.6522  0.6893  0.4410  11.00000  0.05    0.34
Q2    1   0.7588  0.6828  0.1979  11.00000  0.05    0.27
Q3    1   0.6392  0.3505 -0.1387  11.00000  0.05    0.25
Q4    1   0.6602  0.9315  0.5619  11.00000  0.05    0.23
Q5    1   0.8449  0.6184  0.4592  11.00000  0.05    0.21

  REM The information below was added by Olex2.
  REM
  REM R1 = 0.0249 for 5493 Fo > 4sig(Fo) and 0.0302 for all 21837 data
  REM n/a parameters refined using n/a restraints
  REM Highest difference peak 0.41, deepest hole -0.28
  REM Mean Shift 0, Max Shift -0.001.

  REM +++ Tabular Listing of Refinement Information +++
  REM R1_all = 0.0302
  REM R1_gt = 0.0249
  REM wR_ref = 0.0554
  REM GOOF = 0.983
  REM Shift_max = -0.001
  REM Shift_mean = 0
  REM Reflections_all = 21837
  REM Reflections_gt = 5493
  REM Parameters = n/a
  REM Hole = -0.28
  REM Peak = 0.41
  REM Flack = 0.004(3)

  
;
_cod_data_source_file            ol7b00745_si_005.cif
_cod_data_source_block           mo_ca011012_0ma
_cod_depositor_comments
'Adding full bibliography for 1545906--1545907.cif.'
_cod_database_code               1545906
_shelxl_version_number           2014/6
_shelx_space_group_comment
;
The symmetry employed for this shelxl refinement is uniquely defined
by the following loop, which should always be used as a source of
symmetry information in preference to the above space-group names.
They are only intended as comments.
;
_shelx_estimated_absorpt_t_max   0.951
_shelx_estimated_absorpt_t_min   0.613
_olex2_refinement_description
;
1. Fixed Uiso
 At 1.2 times of:
  All C(H) groups, All C(H,H) groups
 At 1.5 times of:
  All C(H,H,H) groups
2.a Ternary CH refined with riding coordinates:
 C7(H7)
2.b Secondary CH2 refined with riding coordinates:
 C14(H14A,H14B), C15(H15A,H15B), C16(H16A,H16B)
2.c Aromatic/amide H refined with riding coordinates:
 C3(H3), C4(H4), C9(H9), C10(H10), C12(H12), C13(H13), C18(H18), C19(H19),
 C20(H20), C21(H21), C22(H22), C23(H23), C24(H24), C25(H25)
2.d Idealised Me refined as rotating group:
 C1(H1A,H1B,H1C), C27(H27A,H27B,H27C), C28(H28A,H28B,H28C)
;
_olex2_submission_special_instructions 'No special instructions were received'
loop_
_space_group_symop_operation_xyz
'x, y, z'
'-x, y+1/2, -z'
loop_
_atom_site_label
_atom_site_type_symbol
_atom_site_fract_x
_atom_site_fract_y
_atom_site_fract_z
_atom_site_U_iso_or_equiv
_atom_site_adp_type
_atom_site_occupancy
_atom_site_site_symmetry_order
_atom_site_calc_flag
_atom_site_refinement_flags_posn
Br1 Br 0.69062(2) 0.35233(6) -0.17400(2) 0.03631(10) Uani 1 1 d .
S1 S 0.66154(5) 0.66316(9) 0.38148(4) 0.01385(14) Uani 1 1 d .
S2 S 0.97270(5) 0.61418(10) 0.15157(4) 0.01598(14) Uani 1 1 d .
O1 O 1.04854(14) 0.4602(3) 0.17298(12) 0.0242(5) Uani 1 1 d .
O2 O 0.99911(13) 0.8305(3) 0.14283(10) 0.0209(4) Uani 1 1 d .
O3 O 0.82689(13) 1.1798(3) 0.26802(12) 0.0202(4) Uani 1 1 d .
O4 O 0.65644(14) 0.4385(3) 0.37652(12) 0.0196(4) Uani 1 1 d .
O5 O 0.59703(13) 0.7862(3) 0.32449(11) 0.0176(4) Uani 1 1 d .
N1 N 0.77739(16) 0.7414(3) 0.37093(13) 0.0134(5) Uani 1 1 d .
N2 N 0.89463(16) 0.6017(4) 0.22331(13) 0.0136(5) Uani 1 1 d .
C1 C 0.5679(2) 0.8806(5) 0.73097(16) 0.0251(7) Uani 1 1 d .
H1A H 0.6372 0.8745 0.7724 0.038 Uiso 1 1 calc GR
H1B H 0.5146 0.7660 0.7510 0.038 Uiso 1 1 calc GR
H1C H 0.5353 1.0369 0.7328 0.038 Uiso 1 1 calc GR
C2 C 0.59080(18) 0.8315(5) 0.64360(15) 0.0178(6) Uani 1 1 d .
C3 C 0.6267(2) 0.9835(4) 0.59221(17) 0.0190(6) Uani 1 1 d .
H3 H 0.6369 1.1419 0.6150 0.023 Uiso 1 1 calc R
C4 C 0.6497(2) 0.9360(4) 0.51209(18) 0.0180(6) Uani 1 1 d .
H4 H 0.6763 1.0561 0.4724 0.022 Uiso 1 1 calc R
C5 C 0.63777(19) 0.7308(4) 0.48407(17) 0.0142(6) Uani 1 1 d .
C6 C 0.79671(17) 0.8624(4) 0.29596(14) 0.0127(5) Uani 1 1 d .
C7 C 0.80410(19) 0.7391(4) 0.21437(16) 0.0126(5) Uani 1 1 d .
H7 H 0.8170 0.8541 0.1666 0.015 Uiso 1 1 calc R
C8 C 0.90406(19) 0.5372(4) 0.05749(16) 0.0155(6) Uani 1 1 d .
C9 C 0.8806(2) 0.6845(4) -0.00482(17) 0.0188(6) Uani 1 1 d .
H9 H 0.9107 0.8414 0.0015 0.023 Uiso 1 1 calc R
C10 C 0.8184(2) 0.6287(4) -0.07520(16) 0.0200(6) Uani 1 1 d .
H10 H 0.8000 0.7407 -0.1244 0.024 Uiso 1 1 calc R
C11 C 0.7808(2) 0.4285(4) -0.08104(17) 0.0215(6) Uani 1 1 d .
C12 C 0.8688(2) 0.3322(5) 0.04972(15) 0.0201(6) Uani 1 1 d .
H12 H 0.8898 0.2178 0.0975 0.024 Uiso 1 1 calc R
C13 C 0.8060(2) 0.2772(4) -0.02096(18) 0.0224(6) Uani 1 1 d .
H13 H 0.7774 0.1195 -0.0287 0.027 Uiso 1 1 calc R
C14 C 0.7343(2) 1.0643(4) 0.27930(17) 0.0174(6) Uani 1 1 d .
H14A H 0.6819 1.0569 0.2233 0.021 Uiso 1 1 calc R
H14B H 0.6964 1.1168 0.3326 0.021 Uiso 1 1 calc R
C15 C 0.8862(2) 1.0132(4) 0.30956(17) 0.0164(6) Uani 1 1 d .
H15A H 0.9090 1.0453 0.3750 0.020 Uiso 1 1 calc R
H15B H 0.9507 0.9665 0.2771 0.020 Uiso 1 1 calc R
C16 C 0.86063(18) 0.6046(4) 0.40722(15) 0.0147(5) Uani 1 1 d .
H16A H 0.9319 0.6632 0.3885 0.018 Uiso 1 1 calc R
H16B H 0.8496 0.4467 0.3824 0.018 Uiso 1 1 calc R
C17 C 0.86616(18) 0.5961(4) 0.50101(15) 0.0165(6) Uani 1 1 d .
C18 C 0.8467(2) 0.4101(5) 0.54144(18) 0.0228(6) Uani 1 1 d .
H18 H 0.8311 0.2687 0.5058 0.027 Uiso 1 1 calc R
C19 C 0.8471(2) 0.4057(6) 0.62818(18) 0.0303(8) Uani 1 1 d .
H19 H 0.8316 0.2611 0.6593 0.036 Uiso 1 1 calc R
C20 C 0.8675(2) 0.5870(6) 0.67437(18) 0.0310(8) Uani 1 1 d .
H20 H 0.8655 0.5848 0.7411 0.037 Uiso 1 1 calc R
C21 C 0.8901(2) 0.7696(5) 0.63459(19) 0.0297(8) Uani 1 1 d .
H21 H 0.9086 0.9090 0.6707 0.036 Uiso 1 1 calc R
C22 C 0.8895(2) 0.7761(4) 0.54892(18) 0.0233(7) Uani 1 1 d .
H22 H 0.9072 0.9206 0.5186 0.028 Uiso 1 1 calc R
C23 C 0.5769(2) 0.6278(4) 0.61224(17) 0.0198(6) Uani 1 1 d .
H23 H 0.5471 0.5082 0.6504 0.024 Uiso 1 1 calc R
C24 C 0.60059(19) 0.5783(4) 0.53338(17) 0.0181(6) Uani 1 1 d .
H24 H 0.5901 0.4203 0.5102 0.022 Uiso 1 1 calc R
C25 C 0.71298(19) 0.6159(4) 0.18229(15) 0.0150(5) Uani 1 1 d .
H25 H 0.6989 0.4731 0.2151 0.018 Uiso 1 1 calc R
C26 C 0.64781(19) 0.6634(4) 0.11796(16) 0.0190(6) Uani 1 1 d .
C27 C 0.6474(2) 0.8655(5) 0.06865(16) 0.0267(6) Uani 1 1 d .
H27A H 0.7125 0.9597 0.0908 0.040 Uiso 1 1 calc GR
H27B H 0.5787 0.9525 0.0767 0.040 Uiso 1 1 calc GR
H27C H 0.6505 0.8296 0.0029 0.040 Uiso 1 1 calc GR
C28 C 0.5637(2) 0.5160(5) 0.08907(19) 0.0282(7) Uani 1 1 d .
H28A H 0.5674 0.3777 0.1288 0.042 Uiso 1 1 calc GR
H28B H 0.5713 0.4691 0.0250 0.042 Uiso 1 1 calc GR
H28C H 0.4916 0.5943 0.0924 0.042 Uiso 1 1 calc GR
H2 H 0.876(2) 0.489(5) 0.2314(19) 0.020(9) Uiso 1 1 d .
loop_
_atom_site_aniso_label
_atom_site_aniso_U_11
_atom_site_aniso_U_22
_atom_site_aniso_U_33
_atom_site_aniso_U_23
_atom_site_aniso_U_13
_atom_site_aniso_U_12
Br1 0.03976(19) 0.0456(2) 0.02178(16) -0.00114(15) -0.00653(12) -0.01558(16)
S1 0.0132(3) 0.0122(3) 0.0164(3) -0.0030(2) 0.0030(3) -0.0012(3)
S2 0.0149(3) 0.0180(3) 0.0153(3) -0.0017(3) 0.0026(3) 0.0005(3)
O1 0.0202(11) 0.0319(12) 0.0204(11) -0.0019(9) 0.0019(9) 0.0089(9)
O2 0.0202(10) 0.0225(10) 0.0207(9) -0.0006(9) 0.0053(7) -0.0067(9)
O3 0.0214(10) 0.0108(9) 0.0285(11) 0.0027(8) 0.0014(8) -0.0019(8)
O4 0.0220(10) 0.0124(9) 0.0252(11) -0.0062(8) 0.0068(8) -0.0027(8)
O5 0.0129(9) 0.0210(10) 0.0185(10) -0.0016(7) 0.0000(8) 0.0012(7)
N1 0.0118(11) 0.0154(11) 0.0133(11) 0.0032(8) 0.0027(9) -0.0008(8)
N2 0.0165(12) 0.0097(11) 0.0145(12) 0.0008(9) 0.0019(9) 0.0005(9)
C1 0.0280(16) 0.0293(17) 0.0181(14) -0.0031(13) 0.0022(12) 0.0059(14)
C2 0.0121(13) 0.0230(15) 0.0180(13) -0.0013(12) -0.0004(10) 0.0036(12)
C3 0.0173(14) 0.0173(14) 0.0218(16) -0.0063(11) -0.0011(12) 0.0016(11)
C4 0.0171(15) 0.0157(14) 0.0211(15) -0.0036(11) 0.0014(12) -0.0021(11)
C5 0.0105(14) 0.0157(13) 0.0167(15) -0.0026(10) 0.0027(11) 0.0024(10)
C6 0.0130(12) 0.0102(12) 0.0148(12) 0.0019(11) 0.0005(9) -0.0003(11)
C7 0.0123(13) 0.0123(12) 0.0127(14) 0.0001(10) -0.0004(11) 0.0012(10)
C8 0.0173(14) 0.0164(13) 0.0136(14) -0.0013(11) 0.0053(11) 0.0013(11)
C9 0.0189(14) 0.0172(14) 0.0217(15) 0.0013(12) 0.0094(12) 0.0003(12)
C10 0.0224(14) 0.0227(15) 0.0153(14) 0.0032(12) 0.0032(11) -0.0016(12)
C11 0.0205(15) 0.0299(16) 0.0144(14) -0.0038(12) 0.0030(12) -0.0023(12)
C12 0.0249(15) 0.0190(14) 0.0168(13) 0.0009(12) 0.0049(11) -0.0006(13)
C13 0.0280(16) 0.0203(15) 0.0195(15) -0.0020(11) 0.0052(12) -0.0050(12)
C14 0.0176(14) 0.0109(13) 0.0236(15) -0.0005(11) 0.0018(11) 0.0006(11)
C15 0.0179(14) 0.0117(13) 0.0192(15) 0.0034(11) -0.0016(12) -0.0011(11)
C16 0.0132(13) 0.0142(13) 0.0163(14) 0.0022(11) 0.0000(10) 0.0034(11)
C17 0.0116(13) 0.0215(14) 0.0162(14) 0.0017(11) 0.0006(10) 0.0031(11)
C18 0.0155(14) 0.0270(17) 0.0254(16) 0.0063(12) -0.0011(12) 0.0022(12)
C19 0.0163(15) 0.048(2) 0.0262(16) 0.0191(15) 0.0004(12) 0.0007(13)
C20 0.0162(15) 0.060(2) 0.0167(15) 0.0034(15) 0.0016(12) 0.0108(16)
C21 0.0259(17) 0.042(2) 0.0197(16) -0.0069(13) -0.0059(13) 0.0161(14)
C22 0.0224(16) 0.0244(16) 0.0219(16) -0.0032(11) -0.0041(12) 0.0088(12)
C23 0.0184(14) 0.0196(15) 0.0218(15) 0.0016(12) 0.0039(11) -0.0015(12)
C24 0.0162(13) 0.0154(14) 0.0229(15) -0.0018(11) 0.0027(11) -0.0010(11)
C25 0.0166(13) 0.0142(13) 0.0146(13) -0.0042(11) 0.0037(10) -0.0009(11)
C26 0.0162(14) 0.0263(15) 0.0147(14) -0.0020(12) 0.0022(11) 0.0003(12)
C27 0.0235(15) 0.0335(17) 0.0217(14) 0.0090(15) -0.0048(11) 0.0022(15)
C28 0.0212(16) 0.041(2) 0.0224(17) -0.0077(13) 0.0002(13) -0.0094(14)
loop_
_atom_type_symbol
_atom_type_description
_atom_type_scat_dispersion_real
_atom_type_scat_dispersion_imag
_atom_type_scat_source
C C 0.0033 0.0016 'International Tables Vol C Tables 4.2.6.8 and 6.1.1.4'
H H 0.0000 0.0000 'International Tables Vol C Tables 4.2.6.8 and 6.1.1.4'
Br Br -0.2901 2.4595 'International Tables Vol C Tables 4.2.6.8 and 6.1.1.4'
N N 0.0061 0.0033 'International Tables Vol C Tables 4.2.6.8 and 6.1.1.4'
O O 0.0106 0.0060 'International Tables Vol C Tables 4.2.6.8 and 6.1.1.4'
S S 0.1246 0.1234 'International Tables Vol C Tables 4.2.6.8 and 6.1.1.4'
loop_
_geom_angle_atom_site_label_1
_geom_angle_atom_site_label_2
_geom_angle_atom_site_label_3
_geom_angle
O4 S1 N1 109.67(11)
O4 S1 C5 106.51(12)
O5 S1 O4 119.23(11)
O5 S1 N1 106.27(11)
O5 S1 C5 108.49(12)
N1 S1 C5 105.94(12)
O1 S2 O2 120.69(12)
O1 S2 N2 106.24(12)
O1 S2 C8 108.33(12)
O2 S2 N2 107.20(11)
O2 S2 C8 107.18(12)
N2 S2 C8 106.39(12)
C15 O3 C14 90.19(17)
C6 N1 S1 118.68(16)
C6 N1 C16 116.59(19)
C16 N1 S1 116.98(17)
S2 N2 H2 114(2)
C7 N2 S2 117.97(17)
C7 N2 H2 107(2)
H1A C1 H1B 109.5
H1A C1 H1C 109.5
H1B C1 H1C 109.5
C2 C1 H1A 109.5
C2 C1 H1B 109.5
C2 C1 H1C 109.5
C3 C2 C1 121.7(3)
C3 C2 C23 118.3(2)
C23 C2 C1 120.0(3)
C2 C3 H3 119.3
C4 C3 C2 121.4(2)
C4 C3 H3 119.3
C3 C4 H4 120.7
C3 C4 C5 118.7(3)
C5 C4 H4 120.7
C4 C5 S1 120.6(2)
C24 C5 S1 118.2(2)
C24 C5 C4 121.0(3)
N1 C6 C7 117.4(2)
N1 C6 C14 116.5(2)
N1 C6 C15 113.82(19)
C14 C6 C7 110.70(19)
C15 C6 C7 109.3(2)
C15 C6 C14 84.34(19)
N2 C7 C6 109.48(19)
N2 C7 H7 106.6
N2 C7 C25 110.4(2)
C6 C7 H7 106.6
C25 C7 C6 116.6(2)
C25 C7 H7 106.6
C9 C8 S2 119.7(2)
C9 C8 C12 121.3(2)
C12 C8 S2 118.8(2)
C8 C9 H9 120.2
C10 C9 C8 119.6(3)
C10 C9 H9 120.2
C9 C10 H10 120.6
C11 C10 C9 118.8(2)
C11 C10 H10 120.6
C10 C11 Br1 119.6(2)
C10 C11 C13 122.5(3)
C13 C11 Br1 117.9(2)
C8 C12 H12 120.6
C8 C12 C13 118.8(2)
C13 C12 H12 120.6
C11 C13 C12 118.9(3)
C11 C13 H13 120.6
C12 C13 H13 120.6
O3 C14 C6 89.70(18)
O3 C14 H14A 113.7
O3 C14 H14B 113.7
C6 C14 H14A 113.7
C6 C14 H14B 113.7
H14A C14 H14B 110.9
O3 C15 C6 90.57(18)
O3 C15 H15A 113.5
O3 C15 H15B 113.5
C6 C15 H15A 113.5
C6 C15 H15B 113.5
H15A C15 H15B 110.8
N1 C16 H16A 109.1
N1 C16 H16B 109.1
N1 C16 C17 112.3(2)
H16A C16 H16B 107.9
C17 C16 H16A 109.1
C17 C16 H16B 109.1
C18 C17 C16 120.5(2)
C18 C17 C22 118.8(2)
C22 C17 C16 120.7(2)
C17 C18 H18 119.9
C17 C18 C19 120.2(3)
C19 C18 H18 119.9
C18 C19 H19 119.9
C20 C19 C18 120.1(3)
C20 C19 H19 119.9
C19 C20 H20 120.2
C21 C20 C19 119.7(3)
C21 C20 H20 120.2
C20 C21 H21 119.6
C20 C21 C22 120.7(3)
C22 C21 H21 119.6
C17 C22 H22 119.8
C21 C22 C17 120.4(3)
C21 C22 H22 119.8
C2 C23 H23 119.6
C24 C23 C2 120.9(2)
C24 C23 H23 119.6
C5 C24 H24 120.1
C23 C24 C5 119.8(2)
C23 C24 H24 120.1
C7 C25 H25 116.5
C26 C25 C7 127.0(2)
C26 C25 H25 116.5
C25 C26 C27 125.2(3)
C25 C26 C28 121.0(3)
C28 C26 C27 113.8(2)
C26 C27 H27A 109.5
C26 C27 H27B 109.5
C26 C27 H27C 109.5
H27A C27 H27B 109.5
H27A C27 H27C 109.5
H27B C27 H27C 109.5
C26 C28 H28A 109.5
C26 C28 H28B 109.5
C26 C28 H28C 109.5
H28A C28 H28B 109.5
H28A C28 H28C 109.5
H28B C28 H28C 109.5
loop_
_geom_bond_atom_site_label_1
_geom_bond_atom_site_label_2
_geom_bond_distance
Br1 C11 1.897(3)
S1 O4 1.4382(18)
S1 O5 1.4337(18)
S1 N1 1.649(2)
S1 C5 1.768(3)
S2 O1 1.4299(19)
S2 O2 1.436(2)
S2 N2 1.630(2)
S2 C8 1.768(3)
O3 C14 1.465(3)
O3 C15 1.452(3)
N1 C6 1.478(3)
N1 C16 1.489(3)
N2 C7 1.489(3)
N2 H2 0.77(3)
C1 H1A 1.0900
C1 H1B 1.0900
C1 H1C 1.0900
C1 C2 1.503(3)
C2 C3 1.391(4)
C2 C23 1.401(4)
C3 H3 1.0800
C3 C4 1.390(4)
C4 H4 1.0800
C4 C5 1.390(3)
C5 C24 1.379(4)
C6 C7 1.545(3)
C6 C14 1.544(4)
C6 C15 1.534(4)
C7 H7 1.0900
C7 C25 1.499(3)
C8 C9 1.391(4)
C8 C12 1.392(4)
C9 H9 1.0800
C9 C10 1.389(4)
C10 H10 1.0800
C10 C11 1.373(4)
C11 C13 1.387(4)
C12 H12 1.0800
C12 C13 1.396(4)
C13 H13 1.0800
C14 H14A 1.0900
C14 H14B 1.0900
C15 H15A 1.0900
C15 H15B 1.0900
C16 H16A 1.0900
C16 H16B 1.0900
C16 C17 1.509(3)
C17 C18 1.391(4)
C17 C22 1.404(4)
C18 H18 1.0800
C18 C19 1.399(4)
C19 H19 1.0800
C19 C20 1.390(5)
C20 H20 1.0800
C20 C21 1.378(5)
C21 H21 1.0800
C21 C22 1.382(4)
C22 H22 1.0800
C23 H23 1.0800
C23 C24 1.377(4)
C24 H24 1.0800
C25 H25 1.0800
C25 C26 1.325(4)
C26 C27 1.516(4)
C26 C28 1.505(4)
C27 H27A 1.0900
C27 H27B 1.0900
C27 H27C 1.0900
C28 H28A 1.0900
C28 H28B 1.0900
C28 H28C 1.0900
loop_
_geom_torsion_atom_site_label_1
_geom_torsion_atom_site_label_2
_geom_torsion_atom_site_label_3
_geom_torsion_atom_site_label_4
_geom_torsion
Br1 C11 C13 C12 -177.3(2)
S1 N1 C6 C7 -78.7(2)
S1 N1 C6 C14 56.0(3)
S1 N1 C6 C15 151.75(18)
S1 N1 C16 C17 -66.5(3)
S1 C5 C24 C23 -177.0(2)
S2 N2 C7 C6 -128.62(19)
S2 N2 C7 C25 101.7(2)
S2 C8 C9 C10 -173.7(2)
S2 C8 C12 C13 173.5(2)
O1 S2 N2 C7 -176.94(18)
O1 S2 C8 C9 -135.7(2)
O1 S2 C8 C12 48.5(2)
O2 S2 N2 C7 52.8(2)
O2 S2 C8 C9 -4.0(2)
O2 S2 C8 C12 -179.8(2)
O4 S1 N1 C6 113.18(19)
O4 S1 N1 C16 -35.1(2)
O4 S1 C5 C4 171.9(2)
O4 S1 C5 C24 -12.4(2)
O5 S1 N1 C6 -17.0(2)
O5 S1 N1 C16 -165.27(17)
O5 S1 C5 C4 -58.6(3)
O5 S1 C5 C24 117.1(2)
N1 S1 C5 C4 55.2(2)
N1 S1 C5 C24 -129.2(2)
N1 C6 C7 N2 -66.1(3)
N1 C6 C7 C25 60.1(3)
N1 C6 C14 O3 130.5(2)
N1 C6 C15 O3 -133.3(2)
N1 C16 C17 C18 114.2(3)
N1 C16 C17 C22 -64.8(3)
N2 S2 C8 C9 110.5(2)
N2 S2 C8 C12 -65.3(2)
N2 C7 C25 C26 -128.7(3)
C1 C2 C3 C4 178.6(2)
C1 C2 C23 C24 -177.8(2)
C2 C3 C4 C5 -1.0(4)
C2 C23 C24 C5 -0.6(4)
C3 C2 C23 C24 1.7(4)
C3 C4 C5 S1 177.7(2)
C3 C4 C5 C24 2.2(4)
C4 C5 C24 C23 -1.4(4)
C5 S1 N1 C6 -132.2(2)
C5 S1 N1 C16 79.4(2)
C6 N1 C16 C17 144.5(2)
C6 C7 C25 C26 105.6(3)
C7 C6 C14 O3 -91.9(2)
C7 C6 C15 O3 93.2(2)
C7 C25 C26 C27 -6.3(4)
C7 C25 C26 C28 175.4(2)
C8 S2 N2 C7 -61.7(2)
C8 C9 C10 C11 0.5(4)
C8 C12 C13 C11 0.0(4)
C9 C8 C12 C13 -2.2(4)
C9 C10 C11 Br1 177.03(19)
C9 C10 C11 C13 -2.8(4)
C10 C11 C13 C12 2.5(4)
C12 C8 C9 C10 2.0(4)
C14 O3 C15 C6 17.64(19)
C14 C6 C7 N2 156.7(2)
C14 C6 C7 C25 -77.1(3)
C14 C6 C15 O3 -16.79(18)
C15 O3 C14 C6 -17.51(18)
C15 C6 C7 N2 65.5(3)
C15 C6 C7 C25 -168.3(2)
C15 C6 C14 O3 16.64(18)
C16 N1 C6 C7 69.7(3)
C16 N1 C6 C14 -155.5(2)
C16 N1 C6 C15 -59.8(3)
C16 C17 C18 C19 -176.9(2)
C16 C17 C22 C21 177.1(3)
C17 C18 C19 C20 -0.3(4)
C18 C17 C22 C21 -1.9(4)
C18 C19 C20 C21 -1.9(4)
C19 C20 C21 C22 2.2(5)
C20 C21 C22 C17 -0.3(4)
C22 C17 C18 C19 2.2(4)
C23 C2 C3 C4 -0.9(4)
loop_
_refln_index_h
_refln_index_k
_refln_index_l
_refln_F_squared_meas
_refln_F_squared_sigma
0 1 0 -0.1 0.15
0 1 0 -0.04 0.15
0 -1 0 -0.08 0.14
0 -1 0 -0.15 0.14
0 -2 0 29.98 1.89
0 3 0 -0.1 0.3
0 3 0 -0.09 0.48
0 4 0 203.01 12.24
0 4 0 196.76 11.37
0 5 0 0.16 0.39
0 5 0 0.15 0.7
0 5 0 0.18 0.36
0 5 0 0.09 0.35
0 6 0 5.66 0.74
0 6 0 7.09 0.82
0 7 0 0.35 0.6
0 7 0 0.11 0.57
0 8 0 5.47 0.88
-1 8 0 3.21 0.85
-1 7 0 6.99 0.91
-1 7 0 6.78 0.9
-1 6 0 18.23 1.39
-1 6 0 16.98 1.35
-1 5 0 19.05 1.37
-1 5 0 19.58 1.71
-1 5 0 20.4 1.51
-1 5 0 18.78 1.37
1 -4 0 5.74 0.64
1 -4 0 6.17 0.63
-1 4 0 8.07 0.68
-1 4 0 7.29 0.65
-1 4 0 7.81 0.82
-1 4 0 8.18 0.97
1 -3 0 208.92 12.37
1 -3 0 202.28 12.36
-1 3 0 199.48 11.65
-1 3 0 203.34 11.44
-1 3 0 202.82 12.39
-1 3 0 196.73 11.65
1 -2 0 83.79 5.16
1 -2 0 82.44 5.16
-1 2 0 83.41 4.8
-1 2 0 85.73 4.84
-1 2 0 85.54 5.17
-1 2 0 83.2 5.17
-1 2 0 79.67 4.84
1 -1 0 511.99 33.19
1 -1 0 481.01 30.29
1 -1 0 509.86 31.36
1 -1 0 479.72 33.27
-1 1 0 585.01 30.31
-1 1 0 594.89 31.4
-1 1 0 591.84 33.2
-1 1 0 586.55 33.23
-1 1 0 577.06 31.41
1 1 0 584.52 32.58
1 1 0 566.67 32.58
-1 -1 0 490.9 32.56
-1 -1 0 501.7 32.54
1 2 0 82.68 5.07
1 2 0 83.27 5.07
1 3 0 196.51 12.17
1 3 0 203.38 12.18
1 4 0 7.49 0.63
1 4 0 6.68 0.89
1 5 0 20.13 1.76
1 6 0 16.89 1.22
1 6 0 17.9 1.23
1 7 0 6.76 0.88
1 7 0 6.08 0.79
1 8 0 3.18 0.73
-2 8 0 0.3 0.8
-2 7 0 26.65 2
-2 6 0 19.73 1.55
-2 6 0 20.57 1.61
2 -5 0 25.3 1.52
2 -5 0 23.69 1.5
-2 5 0 17.78 1.53
-2 5 0 16.9 1.52
-2 5 0 19.95 1.83
-2 4 0 21.26 1.55
-2 4 0 19.81 1.39
-2 4 0 18.84 1.51
-2 4 0 17.8 1.37
2 -3 0 42.42 3.05
2 -3 0 40.89 3.04
-2 3 0 49.84 3.1
-2 3 0 51.62 2.97
-2 3 0 49.26 2.88
-2 3 0 50.82 2.89
2 -2 0 115.08 6.49
2 -2 0 115.17 6.05
2 -2 0 112.47 6.48
-2 2 0 98.93 6.48
-2 2 0 100.13 6.09
-2 2 0 97.35 6.08
-2 2 0 97.26 6.47
-2 2 0 97.25 5.96
2 -1 0 16.69 1.02
2 -1 0 16.19 1.13
2 -1 0 16.35 1.01
2 -1 0 15.75 1.01
2 -1 0 16.95 1.14
-2 1 0 12.44 1.04
-2 1 0 11.38 1.01
-2 1 0 11.9 1.11
2 0 0 230.76 14.04
2 0 0 226.94 14.04
2 0 0 229.99 13.24
2 0 0 222.84 13.24
-2 0 0 237.34 12.8
-2 0 0 218.87 13.24
-2 0 0 233.33 13.24
-2 0 0 231.85 14.04
2 1 0 12.15 0.85
2 1 0 11.65 0.87
2 1 0 11.4 0.77
2 1 0 11.36 0.78
2 2 0 96.06 6.19
2 2 0 95.79 6.19
-2 -2 0 111.37 6.17
2 3 0 48.84 3.03
2 3 0 50.13 3.06
2 3 0 48.81 3.06
2 4 0 19.03 1.24
2 5 0 17.3 1.63
2 7 0 30.24 1.86
2 7 0 26.06 1.83
2 8 0 1.21 0.61
2 8 0 0.39 0.6
-3 8 0 0.84 0.88
-3 7 0 0.31 0.71
3 -6 0 31.26 1.89
-3 6 0 25.69 2.05
-3 6 0 23.38 1.96
3 -5 0 33.98 2.14
3 -5 0 32.35 2.1
-3 5 0 26.1 2.04
-3 5 0 26.65 2.06
-3 5 0 28.01 2.27
3 -4 0 69.83 4.84
3 -4 0 68.35 4.59
3 -4 0 68.86 4.83
-3 4 0 82.43 4.62
-3 4 0 81.2 4.66
-3 4 0 79.6 4.9
-3 4 0 85.08 4.62
3 -3 0 69.03 4.62
3 -3 0 63.27 4.3
3 -3 0 64.81 4.6
-3 3 0 77.97 4.38
-3 3 0 77.15 4.36
-3 3 0 77.94 4.38
-3 3 0 77.99 4.66
3 -2 0 55.4 3.72
3 -2 0 51.03 3.69
3 -2 0 50.86 3.43
-3 2 0 62.05 3.73
-3 2 0 60.17 3.49
-3 2 0 61.42 3.45
-3 2 0 62.19 3.5
3 -1 0 505.14 30.25
3 -1 0 528.23 30.26
3 -1 0 495.2 28.53
3 -1 0 495.26 28.54
-3 1 0 484.09 28.54
-3 1 0 491.55 30.25
-3 1 0 492.58 27.6
-3 1 0 479.66 28.54
3 0 0 121.37 6.93
3 0 0 115.49 7.34
3 0 0 116.6 6.69
3 0 0 122.92 7.36
-3 0 0 122.14 6.71
-3 0 0 115.29 7.35
-3 0 0 118.89 7.35
-3 0 0 119.59 6.93
-3 0 0 115.77 7.35
-3 0 0 117.34 6.92
3 1 0 470.47 29.66
3 1 0 490.32 29.66
3 1 0 477.51 27.98
3 1 0 469.36 27.98
3 1 0 491.52 29.66
-3 -1 0 499.83 27.96
-3 -1 0 504.15 29.66
-3 -1 0 496.08 29.66
3 2 0 60.65 3.61
3 2 0 60.8 3.36
3 2 0 60.08 3.36
3 2 0 61.28 3.61
-3 -2 0 49.47 3.57
-3 -2 0 51.46 3.58
3 3 0 76.25 4.72
3 4 0 79.57 4.86
3 7 0 -0.02 0.42
3 8 0 0.96 0.56
-4 8 0 4.97 1.16
-4 7 0 25.96 2.09
4 -6 0 1.98 0.64
-4 6 0 1.43 0.77
4 -5 0 4.86 0.79
-4 5 0 5.17 0.84
-4 5 0 4.74 0.84
-4 5 0 4.68 1.05
4 -4 0 11 1.23
4 -4 0 11.73 1.17
4 -4 0 13.6 1.22
4 -4 0 11.3 0.98
-4 4 0 11.51 1.26
-4 4 0 11.19 1.14
-4 4 0 11.21 1.28
-4 4 0 10.93 1.11
4 -3 0 275.32 15.39
4 -3 0 273.65 16.77
4 -3 0 294.71 16.79
-4 3 0 262.87 16.78
-4 3 0 266.8 15.39
-4 3 0 262.1 15.82
-4 3 0 272.69 15.83
4 -2 0 5.67 0.65
4 -2 0 5.83 0.76
4 -2 0 4.76 0.73
-4 2 0 5.66 0.74
-4 2 0 5.38 0.69
-4 2 0 5.42 0.72
-4 2 0 5.04 0.69
4 -1 0 33.61 2.18
4 -1 0 33.19 2.36
4 -1 0 31.96 2.34
4 -1 0 32.1 2.17
-4 1 0 33.5 2.32
-4 1 0 34.78 2.14
-4 1 0 33.93 2.16
-4 1 0 37.39 2.21
4 0 0 691.12 43.48
4 0 0 690.12 39.76
4 0 0 721.4 43.49
4 0 0 710.94 41.04
4 0 0 703.45 41.03
-4 0 0 733.28 41.04
-4 0 0 695.18 39.64
-4 0 0 756.5 43.5
-4 0 0 718.41 43.49
-4 0 0 723.41 43.49
-4 0 0 715.16 41.03
4 1 0 37.47 2.19
4 1 0 33.48 2.31
4 1 0 34.84 2.17
-4 -1 0 34.16 2.34
-4 -1 0 32.65 2.3
-4 -1 0 34.13 2.14
4 2 0 5.81 0.64
4 2 0 6.41 0.69
4 2 0 5.06 0.62
-4 -2 0 6.59 0.72
-4 -2 0 5.24 0.62
4 3 0 259.65 15.17
4 3 0 245.89 15.17
4 3 0 263.97 16.11
-4 -3 0 276.7 16.07
-4 -3 0 272.14 16.07
4 4 0 11.09 0.96
4 4 0 10.72 0.91
4 5 0 4.59 0.61
4 7 0 25.9 1.7
4 7 0 25.84 1.71
5 -7 0 4.02 0.77
-5 7 0 4.8 1.09
5 -6 0 19.64 1.71
-5 6 0 18.58 1.76
5 -5 0 0.42 0.66
5 -5 0 0.13 0.45
-5 5 0 0.97 0.73
-5 5 0 0.9 0.73
5 -4 0 22.75 1.84
5 -4 0 22.74 1.84
5 -4 0 24.37 1.89
-5 4 0 21.41 1.86
-5 4 0 22.82 1.94
-5 4 0 21.67 1.75
-5 4 0 21.05 1.7
5 -3 0 49.99 3.03
5 -3 0 52.77 3.34
5 -3 0 48.34 3.1
5 -3 0 46.63 3.28
-5 3 0 47.62 3.1
-5 3 0 46.13 3.1
-5 3 0 48.59 3.32
-5 3 0 47.82 3.11
5 -2 0 11.49 1.12
5 -2 0 12.44 1.03
5 -2 0 12.26 1.23
5 -2 0 8.25 0.93
5 -1 0 75.38 4.98
5 -1 0 72.31 4.52
5 -1 0 75.5 4.97
5 -1 0 75.45 4.66
5 -1 0 74.94 4.66
-5 1 0 78.7 4.53
-5 1 0 79.99 4.68
-5 1 0 81.83 4.68
-5 1 0 80.47 4.99
5 0 0 3.7 0.63
5 0 0 3.48 0.54
5 0 0 3.39 0.59
5 0 0 3.42 0.54
-5 0 0 3.36 0.55
-5 0 0 3.71 0.6
-5 0 0 3.51 0.63
-5 0 0 3.25 0.62
-5 0 0 3.77 0.59
-5 0 0 4.06 0.69
5 1 0 78.34 4.92
5 1 0 79.91 4.64
5 1 0 80.42 4.5
5 1 0 82.8 4.64
-5 -1 0 76.55 4.93
-5 -1 0 73.14 4.9
-5 -1 0 73.33 4.58
-5 -1 0 72.93 4.59
5 2 0 26.81 1.78
5 2 0 27.83 1.93
5 2 0 26.86 1.79
5 3 0 43.37 2.74
5 3 0 43.47 2.75
5 3 0 44.87 2.94
-5 -3 0 46.49 2.91
-5 -3 0 46.84 2.91
5 4 0 21.88 1.43
5 4 0 20.3 1.43
5 4 0 22.3 1.56
5 5 0 -0.01 0.5
5 5 0 0.49 0.4
5 5 0 0.62 0.42
5 6 0 17.03 1.24
5 6 0 17.59 1.25
5 7 0 4.86 0.65
5 7 0 4.94 0.67
6 -7 0 9.17 1.17
-6 7 0 9.15 1.37
6 -6 0 12.28 1.38
-6 6 0 9.34 1.32
6 -5 0 13.27 1.46
6 -5 0 14 1.76
-6 5 0 13.27 1.48
6 -4 0 113.74 7.23
6 -4 0 107.25 7.73
6 -4 0 116.88 7.77
-6 4 0 128.35 7.85
-6 4 0 122.89 7.35
-6 4 0 130.44 7.39
-6 4 0 134.17 7.29
6 -3 0 25.33 1.79
6 -3 0 25.14 1.99
6 -3 0 23.35 1.8
6 -3 0 23.72 1.94
-6 3 0 24.37 1.84
-6 3 0 24.15 1.87
-6 3 0 23.65 2.01
-6 3 0 23.3 1.82
6 -2 0 30.57 2
-6 2 0 23.14 1.75
-6 2 0 22.82 1.74
-6 2 0 22.77 1.73
-6 2 0 21.84 1.89
6 -1 0 213.1 12.53
6 -1 0 206.14 13.29
6 -1 0 207.96 12.52
6 -1 0 197.34 12.1
-6 1 0 217.93 13.31
-6 1 0 230.09 12.55
-6 1 0 222.04 13.32
-6 1 0 214.82 12.52
-6 1 0 220.08 12.14
6 0 0 172.79 10.06
6 0 0 178.56 10.42
6 0 0 181 11.07
6 0 0 182.43 10.41
-6 0 0 174.11 11.04
-6 0 0 177.4 10.4
-6 0 0 169.62 11.03
-6 0 0 182.54 10.09
-6 0 0 180.1 10.41
6 1 0 219.31 13.25
6 1 0 208.25 12.07
6 1 0 213.36 12.47
6 1 0 215.51 12.49
-6 -1 0 205.03 13.22
-6 -1 0 220.5 13.25
-6 -1 0 216.77 12.45
6 2 0 22.98 1.86
6 2 0 23.63 1.76
6 2 0 23.79 1.74
-6 -2 0 27.62 1.89
-6 -2 0 30.25 1.93
6 3 0 24.02 1.62
6 3 0 24.2 1.74
6 3 0 23.01 1.63
-6 -3 0 22.64 1.7
-6 -3 0 23.81 1.72
6 4 0 122.85 7.08
6 4 0 125.41 7.07
6 4 0 127.73 7.51
-6 -4 0 114.97 7.39
-6 -4 0 110.74 7.38
6 5 0 14.09 1.15
6 5 0 13.99 1.3
6 5 0 12.9 1.11
6 6 0 9.41 0.95
6 6 0 9.91 0.98
6 7 0 8.54 0.99
6 7 0 9.72 1.02
7 -7 0 7.69 1.22
-7 7 0 8.67 1.45
7 -6 0 1.12 0.88
-7 6 0 1.16 0.97
7 -5 0 1.8 0.98
7 -5 0 0.75 0.82
-7 5 0 0.12 0.86
7 -4 0 126.99 8.17
7 -4 0 128.91 7.59
-7 4 0 125.17 7.7
-7 4 0 130.69 7.73
-7 4 0 123.78 8.19
-7 4 0 127.33 8.21
7 -3 0 76.54 4.61
7 -3 0 72.89 4.24
-7 3 0 65.36 4.31
-7 3 0 65.3 4.57
-7 3 0 65.52 4.29
-7 3 0 64.33 4.56
-7 3 0 65.44 4.25
7 -2 0 1.24 0.66
7 -2 0 1.02 0.57
7 -2 0 0.75 0.57
-7 2 0 2.09 0.81
-7 2 0 2.52 0.73
-7 2 0 1.78 0.68
-7 2 0 1.82 0.71
-7 2 0 2.04 0.8
7 -1 0 124.43 7.48
7 -1 0 130.8 7.98
7 -1 0 129.74 7.5
7 -1 0 121.81 7.25
-7 1 0 127.4 7.98
-7 1 0 122.94 7.97
-7 1 0 121.48 7.25
-7 1 0 120.52 7.46
-7 1 0 128.02 7.5
7 0 0 36.09 2.4
7 0 0 33.6 2.44
7 0 0 35.99 2.68
7 0 0 38.91 2.47
-7 0 0 38.7 2.69
-7 0 0 37.16 2.4
-7 0 0 38.62 2.71
-7 0 0 37.03 2.47
7 1 0 121.95 7.38
7 1 0 120.93 7.14
7 1 0 122.93 7.37
7 1 0 123.87 7.84
-7 -1 0 127.96 7.86
-7 -1 0 129.99 7.35
-7 -1 0 120.58 7.83
7 2 0 2.56 0.67
7 2 0 2.75 0.59
7 2 0 2.76 0.64
-7 -2 0 0.83 0.6
7 3 0 65.08 4.41
7 3 0 64.82 4.15
7 3 0 62.92 4.15
-7 -3 0 73.77 4.41
-7 -3 0 72.24 4.39
7 4 0 126.77 7.37
7 4 0 120 7.37
-7 -4 0 123.86 7.73
-7 -4 0 127.22 7.74
7 5 0 -0.03 0.56
7 5 0 -0.15 0.64
7 5 0 0.49 0.57
7 6 0 0.04 0.57
7 6 0 0.28 0.6
7 7 0 7.12 0.92
8 -7 0 14.44 1.69
-8 7 0 14.7 1.92
8 -6 0 13.04 1.66
-8 6 0 13.22 1.74
8 -5 0 23.84 2.19
-8 5 0 27.83 2.19
8 -4 0 13.72 1.76
8 -4 0 15.34 1.9
-8 4 0 20.46 1.76
-8 4 0 22.08 2.01
-8 4 0 22.07 1.99
8 -3 0 31.58 2.16
8 -3 0 32.46 2.44
-8 3 0 28.63 2.45
-8 3 0 28.54 2.46
-8 3 0 28.06 2.19
-8 3 0 28.95 2.3
-8 3 0 27.1 2.25
8 -2 0 59.02 3.64
8 -2 0 55.37 3.89
-8 2 0 53.4 3.89
-8 2 0 56.4 3.59
-8 2 0 61.42 3.73
-8 2 0 55.88 3.65
-8 2 0 52.46 3.88
8 -1 0 28.27 2.18
8 -1 0 26.65 1.96
8 -1 0 26.47 2.01
-8 1 0 28.21 2.24
-8 1 0 27.14 2.09
-8 1 0 27.48 1.95
-8 1 0 26.49 2.24
8 0 0 11.31 1.27
8 0 0 11.27 1.27
8 0 0 12.28 1.12
8 0 0 12.58 1.26
-8 0 0 12.22 1.21
-8 0 0 11.11 1.36
8 1 0 27.28 1.97
8 1 0 25.43 2.1
8 1 0 27.92 1.98
8 1 0 24.7 1.87
-8 -1 0 28.23 1.92
-8 -1 0 27 2.12
8 2 0 58.78 3.58
8 2 0 54.51 3.8
8 2 0 54.54 3.48
8 2 0 54.71 3.57
-8 -2 0 56.68 3.79
-8 -2 0 59.16 3.85
8 3 0 27.72 2.2
8 3 0 30.54 2.09
8 3 0 27.62 2.06
-8 -3 0 30.9 2.22
-8 -3 0 28.67 2.16
8 4 0 21.37 1.58
8 4 0 22.3 1.59
-8 -4 0 15 1.55
8 5 0 28.17 2.07
8 5 0 30 2.09
8 6 0 12.02 1.23
8 7 0 14.1 1.38
9 -7 0 0.35 1.03
-9 7 0 2.05 1.25
9 -6 0 5.06 1.22
-9 6 0 4.68 1.26
9 -5 0 19.69 1.99
-9 5 0 17.3 2
9 -4 0 6.76 1.24
9 -4 0 8.21 1.28
-9 4 0 6.14 1.32
-9 4 0 7.62 1.39
-9 4 0 7.42 1.25
-9 3 0 13.5 1.74
-9 3 0 12.23 1.51
-9 3 0 14.55 1.73
9 -2 0 6.54 0.99
9 -2 0 5.99 1.04
9 -2 0 5.63 0.94
-9 2 0 4.6 1.03
-9 2 0 4.43 1.02
-9 2 0 4.06 0.91
-9 2 0 4.72 1
-9 2 0 4.27 0.95
9 -1 0 48.31 3.19
9 -1 0 45.41 2.81
9 -1 0 47.33 2.94
-9 1 0 38.51 2.79
-9 1 0 38.31 3.12
-9 1 0 37.99 2.89
-9 1 0 40.27 3.15
9 0 0 91.41 6.12
9 0 0 92.23 5.57
9 0 0 91.82 5.75
9 0 0 100.47 5.8
-9 0 0 89.57 6.1
-9 0 0 95.59 5.74
9 1 0 41.08 2.78
9 1 0 35.56 2.93
9 1 0 37.84 2.67
9 1 0 37.32 2.79
-9 -1 0 48.9 2.79
-9 -1 0 45.97 3.04
9 2 0 4.62 0.83
9 2 0 4.16 0.89
9 2 0 4.45 0.81
9 2 0 3.87 0.78
-9 -2 0 5.74 0.94
-9 -2 0 6.24 1
9 3 0 16.22 1.48
9 3 0 14.4 1.47
9 3 0 14.22 1.42
9 4 0 6.48 0.97
9 4 0 8.38 1.06
-9 -4 0 7.49 0.99
9 5 0 16.2 1.5
9 6 0 4.79 0.9
9 7 0 2.21 0.85
10 -6 0 1.36 1.14
-10 6 0 3.01 1.32
10 -5 0 3.77 1.17
-10 5 0 8.15 1.38
10 -4 0 81.15 5.34
-10 4 0 76.66 5.39
-10 4 0 73.58 4.99
-10 4 0 73.98 5.39
10 -3 0 29.07 2.22
10 -3 0 29.82 2.51
-10 3 0 26.53 2.47
-10 3 0 26.7 2.29
-10 3 0 26.4 2.42
10 -2 0 63.25 3.97
10 -2 0 65.21 4.07
10 -2 0 66.47 4.38
-10 2 0 60.37 4.09
-10 2 0 57.26 4.32
-10 2 0 56.71 4.33
10 -1 0 90.01 6.55
10 -1 0 91.38 5.97
10 -1 0 92.91 6.15
-10 1 0 105.69 6.64
-10 1 0 107.75 6.2
-10 1 0 111.23 6.07
10 0 0 13.16 1.36
10 0 0 13.15 1.46
10 0 0 13.29 1.59
10 0 0 13.88 1.5
-10 0 0 13.08 1.52
-10 0 0 12.69 1.42
10 1 0 107.75 6.81
10 1 0 104.78 6.39
10 1 0 114.75 6.42
10 1 0 106.36 6.18
-10 -1 0 91.99 6.74
-10 -1 0 96.58 6.3
10 2 0 53.91 3.76
10 2 0 56.49 3.65
10 2 0 58.34 4.01
10 2 0 58.14 3.81
-10 -2 0 61.66 4.02
10 3 0 25.11 2.07
10 3 0 25.57 2.02
-10 -3 0 28.12 2.19
10 4 0 69.71 4.84
-10 -4 0 84.56 5.1
10 5 0 6.32 1.02
-10 -5 0 4.77 0.81
10 6 0 1.81 0.85
11 -6 0 0.41 1.17
-11 6 0 -0.05 1.29
11 -5 0 20.49 2.22
-11 5 0 23.49 2.27
11 -4 0 21.6 2.12
-11 4 0 20.86 2.38
-11 4 0 21.89 2.16
11 -3 0 11.81 1.61
-11 3 0 7.95 1.39
-11 3 0 8.81 1.51
11 -2 0 10.82 1.56
11 -2 0 11.08 1.41
-11 2 0 14.81 1.68
-11 2 0 12.22 1.64
11 -1 0 0.47 0.82
11 -1 0 0.85 0.73
11 -1 0 1.44 0.91
-11 1 0 2.92 0.98
-11 1 0 2.27 1.01
11 0 0 27.5 2.24
11 0 0 28.55 2.19
11 0 0 27.42 2.46
-11 0 0 27.67 2.21
-11 0 0 28.04 2.47
11 1 0 3.09 0.85
11 1 0 3.13 0.99
11 1 0 2.63 0.86
-11 -1 0 0.84 0.85
11 2 0 12.55 1.48
11 2 0 13.86 1.43
11 2 0 13.57 1.58
-11 -2 0 11.6 1.55
11 3 0 6.67 1.18
11 3 0 8.12 1.18
-11 -3 0 10.73 1.33
11 4 0 20.65 1.94
11 4 0 23.95 2.01
-11 -4 0 23.47 2.07
11 5 0 21.46 1.9
-11 -5 0 20.89 1.82
11 6 0 0.46 0.93
12 -5 0 25.14 2.6
-12 5 0 29.39 2.64
12 -4 0 12.11 1.74
-12 4 0 11.65 1.83
-12 4 0 11.45 1.72
12 -3 0 14.48 2.04
-12 3 0 20.8 2.29
12 -2 0 0.23 1.01
-12 2 0 0.5 1.16
-12 2 0 0.11 1
12 -1 0 69.03 4.68
12 -1 0 65.32 4.16
12 -1 0 65.88 4.32
-12 1 0 56.06 4.54
12 0 0 1.23 0.97
12 0 0 1.35 0.97
12 0 0 2.15 0.91
-12 0 0 2 1.05
12 1 0 60.84 3.88
12 1 0 57.54 4.03
12 1 0 56.63 4.26
-12 -1 0 64.54 4.35
12 2 0 0.43 0.88
12 2 0 -0.02 0.77
12 2 0 0.75 0.93
-12 -2 0 0.96 0.94
12 3 0 20.56 1.8
12 3 0 18.95 1.82
-12 -3 0 16.14 1.83
12 4 0 10.43 1.42
12 4 0 11.89 1.47
-12 -4 0 10.88 1.45
12 5 0 27.74 2.32
-12 -5 0 28.13 2.28
13 -5 0 10.73 1.8
13 -4 0 9.74 1.62
13 -3 0 0.32 1.13
-13 3 0 0.29 1.33
13 -2 0 55 4.34
-13 2 0 59.26 4.42
13 -1 0 4.26 1.31
-13 1 0 3.59 1.36
13 0 0 25.51 2.32
13 0 0 26.98 2.25
13 0 0 26.08 2.43
-13 0 0 24.95 2.53
13 1 0 4.9 1.08
13 1 0 4 1.15
13 1 0 5.32 1.17
-13 -1 0 2.48 1.2
13 2 0 59.05 3.95
13 2 0 59.23 3.8
-13 -2 0 50.71 4.08
13 3 0 0.76 1.03
13 3 0 0.94 0.92
-13 -3 0 -0.94 0.99
13 4 0 5.55 1.23
-13 -4 0 8.7 1.39
13 5 0 10.51 1.51
-13 -5 0 10.74 1.43
14 -4 0 2.12 1.35
14 -3 0 0.26 1.19
-14 3 0 0.43 1.44
14 -2 0 3.6 1.36
-14 2 0 3.98 1.44
14 -1 0 37.76 3.24
-14 1 0 39.52 3.4
14 0 0 0.64 1.12
-14 0 0 0.93 1.25
14 1 0 37.91 3.19
14 1 0 38.11 3.01
-14 -1 0 35.59 3.15
14 2 0 3.58 1.22
-14 -2 0 3.82 1.27
14 3 0 0.83 1.06
-14 -3 0 0.3 1.06
14 4 0 0.76 1.1
-14 -4 0 3.3 1.24
15 -4 0 -0.12 1.34
15 -3 0 2.36 1.44
-15 3 0 1.76 1.54
15 -2 0 0.56 1.19
-15 2 0 0.81 1.39
15 -1 0 22.35 2.48
-15 1 0 19 2.39
15 0 0 -0.09 1.1
-15 0 0 -0.25 1.19
15 1 0 16 2.12
-15 -1 0 21.74 2.34
15 2 0 2.41 1.2
-15 -2 0 1.16 1.25
15 3 0 2.53 1.22
-15 -3 0 3.3 1.3
15 4 0 0.3 1.2
-15 -4 0 0.67 1.19
16 -3 0 -0.11 1.4
-16 3 0 -0.68 1.61
16 -2 0 11.68 2.04
-16 2 0 12.63 2.24
16 -1 0 4.6 1.49
-16 1 0 2.01 1.6
16 0 0 4.98 1.56
-16 0 0 3.72 1.59
-16 -1 0 1.82 1.31
16 2 0 10.41 1.77
-16 -2 0 12.2 1.98
16 3 0 -0.02 1.28
-16 -3 0 0.16 1.26
17 -1 0 9.82 1.98
-17 1 0 7.42 1.99
-17 0 0 -0.2 1.5
-17 -1 0 7.43 1.81
-17 -1 1 1.9 1.56
-17 0 1 9.46 2.02
17 0 -1 11.06 2.05
-17 1 1 2.33 1.7
17 -1 -1 2.04 1.44
-16 -3 1 30.61 2.89
16 3 -1 25.52 2.65
-16 -2 1 1.58 1.37
16 2 -1 3.11 1.38
-16 -1 1 21.21 2.55
-16 0 1 0.3 1.4
16 0 -1 0.38 1.33
-16 1 1 28.6 2.79
16 -1 -1 22.09 2.76
-16 2 1 2.59 1.59
16 -2 -1 3.8 1.49
-16 3 1 25.43 3.02
16 -3 -1 29.94 2.97
-15 -4 1 26.56 2.63
15 4 -1 29.3 2.68
-15 -3 1 2.32 1.27
15 3 -1 4.09 1.36
-15 -2 1 8.89 1.64
15 2 -1 8.57 1.55
-15 -1 1 7.27 1.6
15 1 -1 7.78 1.55
-15 0 1 58.93 4.58
15 0 -1 62.72 4.69
-15 1 1 6.45 1.7
15 -1 -1 8.2 1.67
-15 2 1 9.69 1.96
15 -2 -1 8.58 1.68
-15 3 1 3.15 1.71
15 -3 -1 2.21 1.43
15 -4 -1 27.62 2.96
-14 -4 1 1.99 1.13
14 4 -1 1.16 1.13
-14 -3 1 0.68 1.18
14 3 -1 0.32 1.03
-14 -2 1 26.41 2.56
14 2 -1 27.65 2.46
-14 -1 1 11.86 1.88
14 1 -1 18.7 1.99
14 1 -1 18.82 2.14
-14 0 1 2.52 1.22
14 0 -1 2.89 1.24
-14 1 1 16.18 2.11
14 -1 -1 12.36 1.86
-14 2 1 27.08 2.88
14 -2 -1 27.98 2.64
-14 3 1 0.11 1.43
14 -3 -1 -0.52 1.16
14 -4 -1 1.78 1.34
-13 -5 1 3.5 1.11
13 5 -1 1.47 1.08
-13 -4 1 0.61 1.04
13 4 -1 -0.48 0.97
-13 -3 1 25.6 2.44
13 3 -1 29.82 2.39
-13 -2 1 24.15 2.39
13 2 -1 27.09 2.21
13 2 -1 25.16 2.26
-13 -1 1 20.96 2.19
13 1 -1 20.96 2.04
13 1 -1 22.43 2.23
13 1 -1 18.27 1.93
-13 0 1 3.13 1.16
13 0 -1 2.35 1.08
13 0 -1 2.91 0.97
13 0 -1 3.02 1.17
-13 1 1 21.93 2.34
13 -1 -1 18.27 2.07
-13 2 1 25.24 2.56
13 -2 -1 26.85 2.58
-13 3 1 28.31 2.71
13 -3 -1 25.15 2.5
13 -4 -1 0.57 1.18
-13 5 1 3.17 1.48
13 -5 -1 3.15 1.39
12 6 -1 5.13 1.16
-12 -5 1 1.31 0.9
12 5 -1 1.29 0.97
-12 -4 1 43.64 3.41
12 4 -1 48.31 3.3
-12 -3 1 10.03 1.43
12 3 -1 8.95 1.34
12 3 -1 8.95 1.32
-12 -2 1 1.16 0.97
12 2 -1 1.57 0.88
12 2 -1 1.11 0.94
12 2 -1 1.42 0.97
-12 -1 1 10.47 1.46
12 1 -1 7.54 1.25
12 1 -1 8.76 1.22
12 1 -1 7.57 1.29
-12 0 1 164.15 10.78
12 0 -1 169.61 10.15
12 0 -1 166 9.8
12 0 -1 169.43 10.77
-12 1 1 9.08 1.48
12 -1 -1 9.7 1.34
12 -1 -1 9.56 1.39
12 -1 -1 8.59 1.4
-12 2 1 1.03 1.03
-12 2 1 0.28 1.13
12 -2 -1 -0.03 0.98
-12 3 1 8.63 1.68
-12 3 1 10.35 1.58
12 -3 -1 11.43 1.64
-12 4 1 51.2 3.96
12 -4 -1 44.58 3.71
-12 5 1 0.76 1.3
12 -5 -1 1.24 1.16
-12 6 1 6.77 1.67
12 -6 -1 6.7 1.58
11 6 -1 5.11 1.1
-11 -5 1 0.76 0.77
11 5 -1 1.31 0.92
-11 -4 1 0.2 0.81
11 4 -1 0.49 0.83
-11 -3 1 41.79 2.95
11 3 -1 35.62 2.71
11 3 -1 35.86 2.77
-11 -2 1 11.55 1.52
11 2 -1 11.13 1.41
11 2 -1 9.45 1.4
11 2 -1 11.64 1.35
-11 -1 1 53.39 4.22
11 1 -1 63.09 4.28
11 1 -1 64.6 3.92
11 1 -1 60.93 4.03
-11 0 1 4.4 1.14
-11 0 1 4.42 0.95
11 0 -1 3.07 0.89
11 0 -1 4.07 1.02
11 0 -1 4.89 1
-11 1 1 64.84 4.01
-11 1 1 61.25 4.29
11 -1 -1 58.7 4.29
11 -1 -1 59.04 3.96
11 -1 -1 54.26 3.82
-11 2 1 9.62 1.6
-11 2 1 11.76 1.48
11 -2 -1 9.65 1.45
11 -2 -1 11.32 1.4
-11 3 1 36.86 3.15
-11 3 1 35.61 2.82
11 -3 -1 38.27 3.03
-11 4 1 0.96 1.2
-11 4 1 0.44 1.05
11 -4 -1 0.07 0.96
-11 5 1 1.84 1.18
11 -5 -1 0.28 1.08
-11 6 1 4.36 1.48
11 -6 -1 5.61 1.4
10 6 -1 10.19 1.28
-10 -5 1 9.84 1.14
10 5 -1 6.04 1.08
-10 -4 1 10.57 1.41
10 4 -1 15.36 1.46
-10 -3 1 15.22 1.6
10 3 -1 15 1.46
10 3 -1 14.17 1.5
-10 -2 1 27.19 2.33
10 2 -1 28.1 2.14
10 2 -1 28.11 2.07
10 2 -1 27.21 2.28
10 2 -1 28.35 2.15
-10 -1 1 14.64 1.68
-10 -1 1 16.67 1.59
10 1 -1 20.75 1.61
10 1 -1 18.96 1.67
10 1 -1 18.51 1.78
10 1 -1 19.98 1.64
-10 0 1 45.4 3.41
-10 0 1 46.46 3.13
10 0 -1 43.82 3.34
10 0 -1 46.36 3.07
10 0 -1 47.35 3.15
10 0 -1 46.74 3.17
-10 1 1 20.46 1.69
-10 1 1 21.31 1.75
-10 1 1 21.31 1.88
10 -1 -1 16.43 1.58
10 -1 -1 16.57 1.63
10 -1 -1 15.68 1.77
-10 2 1 27.85 2.49
-10 2 1 30.27 2.3
10 -2 -1 25.31 2.34
10 -2 -1 28.61 2.2
10 -2 -1 26.82 2.12
-10 3 1 15.79 1.73
-10 3 1 16.29 1.95
10 -3 -1 14.28 1.78
10 -3 -1 15.84 1.57
-10 4 1 14.25 1.91
-10 4 1 15.93 1.68
10 -4 -1 9.38 1.51
-10 5 1 4.89 1.29
10 -5 -1 8.87 1.41
-10 6 1 11.25 1.65
10 -6 -1 8.64 1.52
9 7 -1 2.68 0.89
9 6 -1 9.82 1.26
-9 -5 1 28.01 1.91
9 5 -1 23.92 1.99
-9 -4 1 34.52 2.71
9 4 -1 39.16 2.62
9 4 -1 39.88 2.63
-9 -3 1 9.35 1.34
9 3 -1 12.97 1.35
9 3 -1 15.82 1.48
9 3 -1 13.74 1.33
9 2 -1 9.07 1.17
9 2 -1 11.38 1.22
9 2 -1 10.33 1.15
9 2 -1 8.97 1.25
-9 -1 1 73.6 4.28
-9 -1 1 69.45 4.6
9 1 -1 66.97 4.18
9 1 -1 66.14 4.31
9 1 -1 67.91 4.3
9 1 -1 64.59 4.55
-9 0 1 49.21 3.2
-9 0 1 49.35 3.45
9 0 -1 50.19 3.48
9 0 -1 48.38 3.13
9 0 -1 47.51 3.23
9 0 -1 45.9 3.22
-9 1 1 69.37 4.34
-9 1 1 68.95 4.76
-9 1 1 69.42 4.44
9 -1 -1 71.26 4.33
9 -1 -1 69.56 4.73
9 -1 -1 70.08 4.44
-9 2 1 8.62 1.34
-9 2 1 10.47 1.23
-9 2 1 9.24 1.25
-9 2 1 11.15 1.42
9 -2 -1 15.01 1.46
-9 3 1 14.48 1.5
-9 3 1 14.37 1.69
9 -3 -1 9.89 1.45
-9 4 1 38.81 2.73
-9 4 1 40.56 3.01
9 -4 -1 34.17 2.69
9 -4 -1 31.63 2.8
-9 5 1 26.05 2.3
9 -5 -1 27.52 2.38
-9 6 1 10.78 1.59
9 -6 -1 14.24 1.71
-9 7 1 3.43 1.32
9 -7 -1 3.88 1.15
8 7 -1 19.58 1.66
8 6 -1 25.63 1.94
8 5 -1 1 0.65
8 5 -1 0.89 0.65
-8 -4 1 19.46 1.48
8 4 -1 14.4 1.41
8 4 -1 14.9 1.39
-8 -3 1 129.73 7.91
-8 -3 1 127.21 7.88
8 3 -1 127.09 7.93
8 3 -1 121.35 7.45
8 3 -1 118.72 7.45
-8 -2 1 4.23 0.86
-8 -2 1 4.08 0.84
8 2 -1 5.95 0.87
8 2 -1 5.28 0.81
8 2 -1 5.54 0.79
-8 -1 1 1.12 0.58
-8 -1 1 0.32 0.65
8 1 -1 1.12 0.62
8 1 -1 1.37 0.6
8 1 -1 1.02 0.58
8 1 -1 0.37 0.63
-8 0 1 8.35 1.06
-8 0 1 8.51 1.13
8 0 -1 9.2 1.14
8 0 -1 7.21 1.03
8 0 -1 9.16 1.09
8 0 -1 8.12 0.94
-8 1 1 0.8 0.67
-8 1 1 1.24 0.67
-8 1 1 1.12 0.66
-8 1 1 1.38 0.78
8 -1 -1 0.97 0.58
8 -1 -1 0.57 0.62
8 -1 -1 0.9 0.73
-8 2 1 4.85 0.89
-8 2 1 5.79 0.93
-8 2 1 5.94 1.05
-8 2 1 5.89 0.94
8 -2 -1 4.61 0.81
8 -2 -1 4.06 0.9
-8 3 1 121.97 7.77
-8 3 1 121.58 8.28
-8 3 1 131.21 7.64
-8 3 1 129.56 7.81
8 -3 -1 130.71 8.29
8 -3 -1 136.91 7.75
-8 4 1 15.52 1.63
-8 4 1 14.2 1.76
8 -4 -1 16.88 1.69
8 -4 -1 18.58 1.67
-8 5 1 0.43 0.96
8 -5 -1 1.52 0.89
-8 6 1 25.24 2.2
8 -6 -1 23.12 2.16
-8 7 1 21.06 2.21
8 -7 -1 22.48 2.1
7 7 -1 7.18 0.93
7 6 -1 16.73 1.4
7 6 -1 16.81 1.46
7 5 -1 55.43 3.4
7 5 -1 52.53 3.39
7 4 -1 5.38 0.79
7 4 -1 6.68 0.81
-7 -3 1 10.17 1.17
-7 -3 1 10.41 1.19
7 3 -1 12.34 1.11
7 3 -1 12.69 1.15
7 3 -1 12.62 1.21
-7 -2 1 109.08 7.24
-7 -2 1 110.84 7.25
7 2 -1 117.09 6.85
7 2 -1 119.02 6.84
7 2 -1 117.74 7.28
-7 -1 1 24.19 1.96
-7 -1 1 26.08 1.79
-7 -1 1 26.57 2.02
7 1 -1 25.77 1.84
7 1 -1 25.14 1.84
7 1 -1 24.06 1.77
7 1 -1 25.1 1.93
-7 0 1 24.43 1.99
-7 0 1 23.28 1.74
7 0 -1 24.11 1.72
7 0 -1 25.28 1.81
7 0 -1 24.46 1.82
7 0 -1 25.72 1.99
-7 1 1 27.07 2.03
-7 1 1 25.84 1.92
-7 1 1 25.39 1.82
-7 1 1 27.11 1.95
7 -1 -1 26.07 1.86
7 -1 -1 24.34 1.81
7 -1 -1 25.27 2.03
7 -1 -1 24.71 1.88
-7 2 1 118.27 7.44
-7 2 1 118.99 6.8
-7 2 1 113.03 6.96
-7 2 1 119.34 7.44
-7 2 1 123.29 7.01
7 -2 -1 112.96 7.42
7 -2 -1 105.22 6.91
-7 3 1 12.3 1.27
-7 3 1 12.23 1.28
-7 3 1 13.24 1.5
-7 3 1 11.64 1.32
-7 3 1 12.8 1.44
7 -3 -1 11.06 1.29
7 -3 -1 10.57 1.19
7 -3 -1 9.89 1.35
-7 4 1 4.99 1.09
-7 4 1 5.59 1.01
-7 4 1 6.35 1.03
-7 4 1 5.44 1.1
-7 5 1 53.32 3.8
7 -5 -1 57.72 4.03
7 -5 -1 63.91 4.03
-7 6 1 14.72 1.73
7 -6 -1 17.86 1.72
-7 7 1 7.55 1.43
7 -7 -1 8.49 1.21
6 7 -1 5.84 0.83
6 7 -1 5.85 0.83
6 6 -1 3.99 0.71
6 6 -1 4.93 0.71
6 5 -1 96.26 5.85
6 5 -1 98.71 5.86
6 5 -1 100.47 6.15
-6 -4 1 24.24 1.79
-6 -4 1 23.17 1.79
6 4 -1 29.64 1.81
6 4 -1 27.31 1.79
6 4 -1 27.52 1.91
-6 -3 1 82.19 5.48
-6 -3 1 81.73 5.48
6 3 -1 90.38 5.52
6 3 -1 91.92 5.2
6 3 -1 88.54 5.2
-6 -2 1 23.08 1.68
-6 -2 1 22.3 1.69
6 2 -1 21.27 1.65
6 2 -1 19.78 1.55
6 2 -1 21.35 1.55
-6 -1 1 152.53 8.87
-6 -1 1 147.49 8.85
-6 -1 1 151.85 8.32
6 1 -1 137.15 8.32
6 1 -1 131.59 8.83
6 1 -1 133.34 8.08
6 1 -1 136.07 8.33
-6 0 1 70.95 4.61
-6 0 1 69.2 4.3
-6 0 1 70.41 4.32
6 0 -1 72.87 4.62
6 0 -1 70.76 4.31
6 0 -1 68.9 4.18
6 0 -1 70.69 4.32
-6 1 1 130.28 8.94
-6 1 1 143.34 8.46
-6 1 1 137.84 8.44
-6 1 1 135.87 8.17
6 -1 -1 143.12 8.18
6 -1 -1 155.62 8.46
6 -1 -1 142.89 8.42
6 -1 -1 153.31 8.99
-6 2 1 21.88 1.66
-6 2 1 20.39 1.63
-6 2 1 19.5 1.78
-6 2 1 19.1 1.81
-6 2 1 20.56 1.6
6 -2 -1 23.57 1.6
6 -2 -1 24.08 1.81
6 -2 -1 21.37 1.61
-6 3 1 92.58 5.76
-6 3 1 93.04 5.33
-6 3 1 93.7 5.76
-6 3 1 93.56 5.41
-6 3 1 90.61 5.39
6 -3 -1 84.13 5.7
6 -3 -1 82.92 5.29
6 -3 -1 79.46 5.25
6 -3 -1 83.64 5.71
-6 4 1 28.64 2.13
-6 4 1 30.94 2.38
-6 4 1 32.33 2.25
-6 4 1 31.04 2.34
-6 4 1 32.67 2.21
6 -4 -1 25.04 2.18
6 -4 -1 25.79 2.26
6 -4 -1 22.93 2.14
-6 5 1 100.6 6.7
6 -5 -1 111.98 7.07
6 -5 -1 118.84 6.74
-6 6 1 4.15 1.01
6 -6 -1 3.53 0.86
-6 7 1 5.97 1.16
6 -7 -1 4.29 0.89
5 7 -1 3.84 0.68
5 7 -1 3.66 0.68
5 6 -1 20.01 1.47
5 6 -1 20.9 1.47
5 5 -1 47.92 2.98
5 5 -1 45.28 2.81
5 5 -1 43.87 2.8
5 4 -1 49.73 2.94
5 4 -1 47.27 2.94
5 4 -1 47.15 3.13
5 3 -1 22.5 1.67
5 3 -1 23.04 1.55
5 3 -1 23.38 1.55
-5 -2 1 19.82 1.65
-5 -2 1 19.92 1.65
5 2 -1 23.44 1.56
5 2 -1 25.78 1.7
5 2 -1 24.29 1.56
-5 -1 1 56.41 3.68
-5 -1 1 55.07 3.67
-5 -1 1 58.37 3.94
-5 -1 1 53.01 3.92
5 1 -1 70.83 3.96
5 1 -1 73.1 3.73
-5 0 1 1.45 0.5
-5 0 1 1.59 0.5
-5 0 1 1.75 0.54
-5 0 1 1.32 0.57
5 0 -1 2.47 0.6
5 0 -1 1.83 0.47
5 0 -1 1.71 0.45
5 0 -1 1.7 0.51
-5 1 1 74.14 4.08
-5 1 1 73.68 4.34
-5 1 1 74.1 3.97
-5 1 1 74.97 4.08
-5 1 1 71.72 4.33
5 -1 -1 57.9 4.3
5 -1 -1 57.57 4.03
5 -1 -1 57.06 4.02
5 -1 -1 58.38 4.3
-5 2 1 25.71 1.85
-5 2 1 25.84 1.71
-5 2 1 24.14 1.7
-5 2 1 24.51 1.69
-5 2 1 26 1.87
5 -2 -1 20.15 1.64
5 -2 -1 20.55 1.75
5 -2 -1 20.23 1.6
5 -2 -1 21.36 1.8
-5 3 1 22.37 1.6
-5 3 1 24.37 1.75
-5 3 1 22.47 1.6
-5 3 1 23.63 1.59
-5 3 1 25.28 1.74
5 -3 -1 16.56 1.64
5 -3 -1 16.36 1.44
5 -3 -1 15.51 1.61
-5 4 1 52.94 3.53
-5 4 1 53.41 3.74
-5 4 1 49.2 3.47
-5 4 1 49.95 3.48
-5 4 1 52.51 3.73
5 -4 -1 58.42 3.53
5 -4 -1 63.79 3.76
5 -4 -1 58.42 3.69
-5 5 1 45.9 3.04
-5 5 1 49.92 3.08
5 -5 -1 45.16 2.9
5 -5 -1 43.16 3.13
5 -5 -1 42.99 2.88
-5 6 1 22.27 1.74
5 -6 -1 17.28 1.62
-5 7 1 4.91 1.09
5 -7 -1 5.13 0.73
4 8 -1 5.09 0.8
4 7 -1 4.13 0.68
4 7 -1 3.75 0.63
4 6 -1 0.15 0.44
4 6 -1 0.38 0.45
4 5 -1 41.65 2.56
4 5 -1 41.82 2.56
4 5 -1 42.67 2.69
4 4 -1 2.56 0.42
4 4 -1 2.58 0.46
4 4 -1 2.19 0.4
-4 -3 1 7.35 0.67
-4 -3 1 6.43 0.66
4 3 -1 4.63 0.6
4 3 -1 4.93 0.61
4 3 -1 4.79 0.61
-4 -2 1 194.74 12.04
-4 -2 1 198.31 12.05
4 2 -1 199.08 12.06
4 2 -1 195.38 11.36
4 2 -1 193.94 11.36
-4 -1 1 24.17 1.74
-4 -1 1 25.57 1.9
-4 -1 1 24.52 1.88
-4 -1 1 25.58 1.75
4 1 -1 30.53 1.78
4 1 -1 29.59 1.9
4 1 -1 30.28 1.77
-4 0 1 510.37 29.57
-4 0 1 520.12 28.6
-4 0 1 499.41 29.56
4 0 -1 509.51 28.58
4 0 -1 533.35 31.35
4 0 -1 503.75 31.34
4 0 -1 517.72 29.57
4 0 -1 511.42 29.57
4 0 -1 521.66 31.35
-4 1 1 30.83 1.9
-4 1 1 29.89 1.83
-4 1 1 32.62 2.05
-4 1 1 32.53 2.07
-4 1 1 29.03 1.85
4 -1 -1 25.03 2.02
4 -1 -1 23.67 1.85
4 -1 -1 25.7 2.01
4 -1 -1 25.46 1.85
-4 2 1 206.47 11.67
-4 2 1 201.95 12.38
-4 2 1 193.56 11.32
-4 2 1 199.94 12.38
-4 2 1 193 11.65
4 -2 -1 210.3 12.38
4 -2 -1 194.02 11.32
4 -2 -1 201.57 11.63
4 -2 -1 201.76 12.37
-4 3 1 5.19 0.81
-4 3 1 5.31 0.81
-4 3 1 4.81 0.72
-4 3 1 5.64 0.83
-4 3 1 5.5 0.72
4 -3 -1 7.2 0.85
4 -3 -1 7.61 0.9
4 -3 -1 6.83 0.82
-4 4 1 2.59 0.69
-4 4 1 2.3 0.66
-4 4 1 1.95 0.71
-4 4 1 3.32 0.71
-4 4 1 2.42 0.65
-4 5 1 43.65 2.79
-4 5 1 42.78 2.77
-4 5 1 45.09 2.95
4 -5 -1 40.1 2.56
4 -5 -1 39.73 2.85
4 -5 -1 39.36 2.82
-4 6 1 -0.43 0.69
4 -6 -1 0.25 0.56
-4 7 1 4.63 0.99
-4 8 1 7.44 1.25
3 8 -1 10.66 1.11
3 7 -1 5.54 0.71
3 7 -1 4.19 0.65
3 6 -1 11.1 0.93
3 6 -1 11.81 0.95
3 5 -1 121.15 7.02
3 4 -1 23.34 1.59
-3 -3 1 27.04 1.87
-3 -3 1 25.81 1.86
3 3 -1 30.2 1.77
3 3 -1 31.91 1.78
3 3 -1 31.28 1.94
-3 -2 1 30.21 1.95
-3 -2 1 30.35 1.95
3 2 -1 29.82 1.96
3 2 -1 27.94 1.81
3 2 -1 30.11 1.97
3 2 -1 28.54 1.81
-3 -1 1 240.6 13.33
-3 -1 1 238.64 13.33
-3 -1 1 237.16 12.55
3 1 -1 198.87 12.56
3 1 -1 195.05 13.31
3 1 -1 196.44 12.55
-3 0 1 19.18 1.32
-3 0 1 18.8 1.32
-3 0 1 20 1.44
3 0 -1 19.15 1.26
3 0 -1 19.34 1.3
3 0 -1 19.19 1.33
3 0 -1 19.28 1.41
3 0 -1 20.66 1.45
-3 1 1 199.18 12.66
-3 1 1 199.86 12.66
-3 1 1 194.38 13.42
-3 1 1 192.98 13.42
-3 1 1 202.79 12.26
3 -1 -1 249.68 13.45
3 -1 -1 247.15 12.68
3 -1 -1 248.21 13.46
3 -1 -1 238.03 12.67
-3 2 1 30.77 2.13
-3 2 1 29.56 1.97
-3 2 1 29.95 2.11
-3 2 1 29.96 1.98
-3 2 1 29.53 1.95
3 -2 -1 31.35 1.92
3 -2 -1 30.69 2.1
3 -2 -1 32.12 2.09
-3 3 1 31.08 1.97
-3 3 1 32.06 2.06
-3 3 1 33.09 2.15
-3 3 1 33.13 2.14
-3 3 1 33.33 1.98
3 -3 -1 26.57 2.03
3 -3 -1 25.53 2.06
3 -3 -1 26.89 2.1
-3 4 1 23.7 1.71
-3 4 1 23.36 1.69
-3 4 1 24.62 1.81
-3 4 1 24.68 1.82
-3 4 1 23.07 1.83
3 -4 -1 24.53 1.57
3 -4 -1 25.88 1.81
3 -4 -1 23.74 1.76
-3 5 1 133.37 7.45
-3 5 1 127.74 7.44
-3 5 1 124.8 7.43
3 -5 -1 118.15 7.77
3 -5 -1 124.13 7.79
-3 6 1 12.11 1.32
-3 6 1 14.25 1.29
-3 7 1 4.7 0.95
-3 8 1 12.83 1.5
2 8 -1 16.32 1.37
2 7 -1 4.89 0.7
2 7 -1 3.57 0.66
2 6 -1 19.21 1.34
2 6 -1 18.39 1.31
2 5 -1 0.82 0.32
2 4 -1 80.51 4.83
2 4 -1 80.32 4.99
2 3 -1 85.26 5.28
-2 -2 1 92.07 5.48
-2 -2 1 88.41 5.47
2 2 -1 87.49 5.14
2 2 -1 85.53 5.49
2 2 -1 93.03 5.14
2 2 -1 87.58 5.49
-2 -1 1 176.21 10.9
-2 -1 1 173.15 10.9
-2 -1 1 173.46 10.26
2 1 -1 184.18 10.91
2 1 -1 175.55 10.28
2 1 -1 181.36 10.28
2 1 -1 184.45 10.91
-2 0 1 26.01 1.73
-2 0 1 25.98 1.62
-2 0 1 25.65 1.61
2 0 -1 28.33 1.75
2 0 -1 24.66 1.6
2 0 -1 26.71 1.62
-2 1 1 185.74 10.99
-2 1 1 182.43 10.36
-2 1 1 187.62 10.99
-2 1 1 177.62 10.36
-2 1 1 188.09 10.05
2 -1 -1 173.05 10.35
2 -1 -1 178.29 10.99
2 -1 -1 176.41 10.35
2 -1 -1 168.78 10.98
2 -1 -1 174.46 10.03
-2 2 1 90.01 5.59
-2 2 1 85.47 5.14
-2 2 1 91.64 5.59
-2 2 1 88.28 5.24
-2 2 1 90.21 5.59
-2 2 1 87.54 5.24
2 -2 -1 92.34 5.19
2 -2 -1 88.7 5.57
2 -2 -1 87.57 5.14
2 -2 -1 94.17 5.58
-2 3 1 84.4 5.18
-2 3 1 83.87 5.2
-2 3 1 86.49 5.2
-2 3 1 88.36 5.55
2 -3 -1 87.99 5.18
2 -3 -1 94.89 5.54
2 -3 -1 91.32 5.53
2 -3 -1 90.82 5.33
-2 4 1 80.74 5.29
-2 4 1 83.36 5
-2 4 1 80.09 4.96
-2 4 1 82.52 5.29
-2 4 1 82.75 4.97
2 -4 -1 89.77 5.25
2 -4 -1 87.3 5.23
-2 5 1 1.4 0.52
-2 5 1 0.82 0.78
-2 5 1 0.74 0.51
2 -5 -1 0.45 0.31
-2 6 1 20.91 1.59
-2 6 1 20.86 1.61
-2 7 1 5.1 0.86
-2 8 1 18.08 1.63
1 8 -1 2.87 0.77
1 7 -1 10.42 1.09
1 7 -1 9.16 1
1 6 -1 4.29 0.61
1 6 -1 3.67 0.59
1 5 -1 6.44 1
1 5 -1 5.3 0.61
1 5 -1 5.45 0.63
1 4 -1 30.19 1.84
1 4 -1 31.34 2.04
1 3 -1 75.44 4.68
-1 -2 1 161.74 10.2
-1 -2 1 165.31 10.2
1 2 -1 174.95 10.22
1 2 -1 166.96 10.21
-1 -1 1 212.77 12.16
-1 -1 1 205.47 12.16
1 1 -1 192.74 12.16
1 1 -1 190.7 11.46
1 1 -1 196.19 12.16
-1 0 1 19.66 1.18
-1 0 1 19.42 1.18
1 0 -1 18.45 1.17
1 0 -1 20.24 1.26
-1 1 1 192.76 11.43
-1 1 1 192.24 11.43
-1 1 1 190.78 12.12
-1 1 1 194.42 11.08
-1 1 1 192.94 12.12
1 -1 -1 206.95 11.42
1 -1 -1 206.17 12.12
1 -1 -1 206.88 12.12
1 -1 -1 205.6 11.08
-1 2 1 178.25 9.83
-1 2 1 178.2 10.46
-1 2 1 174.58 9.83
-1 2 1 173.25 9.61
-1 2 1 178.06 10.46
-1 2 1 175.67 10.46
1 -2 -1 163.46 10.44
1 -2 -1 158.97 9.6
1 -2 -1 160.4 10.16
1 -2 -1 168.21 10.44
-1 3 1 78.43 4.77
-1 3 1 78.36 5.07
-1 3 1 77.33 4.74
-1 3 1 76.85 4.74
1 -3 -1 96.7 5.05
-1 4 1 31.03 2.08
-1 4 1 31.24 2.08
-1 4 1 31.93 2.14
-1 4 1 31.87 1.91
-1 4 1 29.19 1.9
-1 5 1 5.23 0.96
-1 5 1 5.6 0.69
-1 5 1 5.43 0.68
-1 6 1 4.54 0.67
-1 6 1 4.59 0.68
-1 7 1 10.51 1.14
-1 7 1 10 1.09
-1 8 1 3.71 0.84
0 8 -1 2.68 0.82
0 7 -1 11.43 1.18
0 7 -1 13.64 1.26
0 6 -1 12.72 1.13
0 6 -1 14.48 1.2
0 5 -1 79.82 4.79
0 5 -1 76.9 4.57
0 5 -1 74.11 4.57
0 5 -1 77.77 4.86
0 4 -1 48.26 3.06
0 4 -1 47.11 2.84
0 4 -1 45.62 2.83
0 4 -1 49.04 3.06
0 -3 1 47.8 2.96
0 -3 1 49.45 2.96
0 3 -1 47.65 2.93
0 3 -1 47.65 3
0 3 -1 44.36 2.77
0 3 -1 45.13 2.77
0 -2 1 34.45 2.22
0 -2 1 34.9 2.22
0 2 -1 33.93 2.06
0 2 -1 34.69 2.06
0 2 -1 36.1 2.24
0 2 -1 35.05 2.24
0 -1 1 421.2 24.52
0 -1 1 419.44 23.91
0 -1 1 423.76 23.09
0 -1 1 417.76 24.47
0 1 -1 394.87 23.86
0 1 -1 389.78 24.47
0 1 -1 388.05 23.11
0 1 -1 385.84 24.47
0 1 -1 383.86 23.09
0 1 1 373.94 22.18
0 1 1 386.49 24.31
0 1 1 378.13 24.31
0 1 1 386.05 23.72
0 -1 -1 429.86 24.31
0 -1 -1 431.72 24.31
0 -1 -1 415.77 23.74
0 2 1 35.49 2.2
0 2 1 34.57 2.2
0 2 1 35.49 2.14
0 2 1 35.88 2.2
0 2 1 35.68 2.14
0 -2 -1 34.26 2.14
0 3 1 44.43 2.83
0 3 1 46.33 2.78
0 3 1 45.05 2.83
0 4 1 46.67 2.94
0 4 1 46.72 2.96
0 5 1 82.54 5.03
0 6 1 14.93 1.08
0 6 1 15.12 1.59
0 6 1 12.86 1.06
0 7 1 12.44 1.14
0 7 1 12.62 1.11
0 8 1 2.9 0.73
-1 8 -1 3.85 0.92
-1 7 -1 13.05 1.28
-1 6 -1 17.6 1.41
-1 6 -1 16.13 1.36
-1 5 -1 38.35 2.57
-1 5 -1 38.25 2.4
-1 5 -1 37.92 2.71
-1 5 -1 35.34 2.37
1 -4 1 39.83 2.35
1 -4 1 40.36 2.35
-1 4 -1 33.78 2.24
-1 4 -1 34.24 2.44
-1 4 -1 32.53 2.23
-1 4 -1 33.27 2.41
1 -3 1 8.18 0.8
1 -3 1 7.41 0.8
-1 3 -1 8.92 0.85
-1 3 -1 8.04 0.72
-1 3 -1 10.12 1.06
-1 3 -1 7.79 0.74
1 -2 1 538.6 33.09
1 -2 1 533.27 32.23
1 -2 1 515.83 33.09
-1 2 -1 543.06 31.22
-1 2 -1 545.88 31.22
-1 2 -1 561.62 30.26
-1 2 -1 555.13 33.1
-1 2 -1 559.51 33.1
1 -1 1 188.96 11.33
1 -1 1 186.04 11.03
1 -1 1 185.37 10.67
1 -1 1 181.93 11.33
-1 1 -1 186.62 10.68
-1 1 -1 183.54 10.68
-1 1 -1 184.56 11.33
-1 1 -1 184.28 10.35
1 0 1 333.48 19.38
1 0 1 334.08 18.69
1 0 1 333.61 19.41
-1 0 -1 350.24 20.07
-1 0 -1 329.62 19.35
-1 0 -1 346.61 20.48
-1 0 -1 331.51 19.41
-1 0 -1 333.98 18.74
1 1 1 183.09 10.83
1 1 1 170.18 10.6
1 1 1 177.94 10.83
-1 -1 -1 179.72 10.82
-1 -1 -1 178.26 10.82
1 2 1 544.59 32.29
1 3 1 8.38 0.64
1 4 1 33.25 2.27
1 5 1 40.28 2.79
1 6 1 18.57 1.84
1 7 1 11.66 0.99
1 8 1 3.73 0.72
1 8 1 3.44 0.69
-2 8 -1 18.9 1.72
-2 7 -1 7.21 1.02
-2 6 -1 8.1 1.06
-2 6 -1 9.29 1.12
2 -5 1 51.69 3.83
2 -5 1 53.83 3.85
-2 5 -1 67.5 3.75
-2 5 -1 69.72 3.96
-2 5 -1 63.61 3.73
2 -4 1 22.42 1.62
2 -4 1 22.39 1.6
-2 4 -1 21.61 1.72
-2 4 -1 21.68 1.53
-2 4 -1 21.24 1.67
-2 4 -1 20.93 1.52
-2 3 -1 11.47 1.12
-2 3 -1 11.65 0.97
-2 3 -1 11.41 1.1
-2 3 -1 11.24 0.97
2 -2 1 12.88 0.98
2 -2 1 12.63 0.99
2 -2 1 12.97 1.11
2 -2 1 12.81 1.14
-2 2 -1 14.4 1.13
-2 2 -1 15.65 1.14
-2 2 -1 15.16 1.05
-2 2 -1 15.57 1.06
2 -1 1 456.51 27.27
2 -1 1 477.79 27.27
2 -1 1 461.57 28.91
2 -1 1 485.42 28.91
-2 1 -1 484.35 28.91
-2 1 -1 482.13 27.28
-2 1 -1 474.96 27.28
2 0 1 83.24 5.04
2 0 1 83.02 5.03
2 0 1 85.95 4.86
2 0 1 85.88 5.35
-2 0 -1 84.75 5.04
-2 0 -1 84.11 5.35
-2 0 -1 89.58 5.35
-2 0 -1 84.95 5.04
-2 0 -1 87.2 4.86
2 1 1 477.88 27.97
2 1 1 456.45 26.39
2 1 1 448.5 26.41
2 1 1 472.16 27.97
-2 -1 -1 457.52 27.96
-2 -1 -1 447.39 27.96
2 2 1 15.49 1.04
2 2 1 15.03 1.09
2 2 1 15.15 1.03
2 3 1 10.9 0.85
2 4 1 21 1.38
2 5 1 67.96 4.23
2 6 1 9.91 1.29
-3 8 -1 12.19 1.5
-3 7 -1 0.49 0.76
3 -6 1 0.84 0.55
-3 6 -1 0.12 0.69
-3 6 -1 0.25 0.67
3 -5 1 123.7 7.54
3 -5 1 127.39 7.55
-3 5 -1 117.24 7.18
-3 5 -1 119.4 7.18
-3 5 -1 113.19 7.16
3 -4 1 126.67 8.13
3 -4 1 133.78 8.16
3 -4 1 134.92 7.82
-3 4 -1 129.56 7.7
-3 4 -1 129.7 8.19
-3 4 -1 128.78 7.64
-3 4 -1 128.72 7.7
3 -3 1 0.93 0.37
3 -3 1 0.75 0.49
3 -3 1 0.54 0.5
3 -3 1 0.53 0.51
-3 3 -1 0.12 0.52
-3 3 -1 0.3 0.46
-3 3 -1 0.15 0.48
-3 3 -1 0.13 0.46
3 -2 1 31.93 2.32
3 -2 1 31.81 2.13
3 -2 1 32.76 2.33
3 -2 1 31.29 2.14
-3 2 -1 35.47 2.17
-3 2 -1 35.53 2.2
-3 2 -1 36.75 2.19
-3 2 -1 36.85 2.35
3 -1 1 411.24 24.6
3 -1 1 416.29 22.44
3 -1 1 435.76 24.62
3 -1 1 429.24 23.21
3 -1 1 420.2 23.21
-3 1 -1 371.75 24.59
-3 1 -1 376.14 23.2
-3 1 -1 382.69 24.59
-3 1 -1 384.2 23.2
3 0 1 16.63 1.16
3 0 1 15.41 1.25
3 0 1 17.45 1.28
3 0 1 15.04 1.11
3 0 1 16.09 1.08
-3 0 -1 15.31 1.07
-3 0 -1 15.42 1.13
-3 0 -1 15.69 1.15
3 1 1 372.24 23.68
3 1 1 368.84 22.33
3 1 1 363.18 22.33
3 1 1 379.78 23.68
-3 -1 -1 412.42 22.31
-3 -1 -1 419.38 23.69
-3 -1 -1 405.24 23.68
3 2 1 33.37 1.99
3 2 1 34.21 1.99
3 2 1 37.11 2.2
3 2 1 36 2.18
-3 -2 -1 30.36 2.14
-3 -2 -1 30.5 2.15
3 3 1 0 0.26
3 3 1 0.39 0.39
3 4 1 125.29 7.57
3 5 1 112.5 6.77
3 6 1 -0.14 0.83
-4 8 -1 2.2 1.03
-4 7 -1 -0.02 0.83
4 -6 1 84.59 5.44
-4 6 -1 85.07 5.27
4 -5 1 16.44 1.56
-4 5 -1 20.98 1.66
-4 5 -1 17.99 1.55
4 -4 1 29.05 1.91
4 -4 1 29.89 1.91
-4 4 -1 19.48 1.84
-4 4 -1 20.05 1.73
-4 4 -1 21.39 1.89
-4 4 -1 21.67 1.76
4 -3 1 18.55 1.21
4 -3 1 17.55 1.41
4 -3 1 17.17 1.38
4 -3 1 18.52 1.46
-4 3 -1 12.81 1.29
-4 3 -1 13.7 1.27
-4 3 -1 13.14 1.35
-4 3 -1 14.58 1.4
4 -2 1 359.96 20.74
4 -2 1 371.73 22.04
4 -2 1 380.08 22.05
-4 2 -1 342.02 20.77
-4 2 -1 350.12 20.12
-4 2 -1 354.26 20.78
-4 2 -1 357.11 22.04
4 -1 1 63.23 4.06
4 -1 1 61.54 3.79
4 -1 1 59.82 3.67
4 -1 1 57.84 3.77
4 -1 1 61.52 4.06
-4 1 -1 67.63 3.81
-4 1 -1 62.76 3.68
-4 1 -1 64.01 4.06
-4 1 -1 63.12 3.79
4 0 1 302.84 17.21
4 0 1 301.2 18.26
4 0 1 295.39 16.62
4 0 1 290.69 17.21
-4 0 -1 288.76 17.2
-4 0 -1 303.37 18.25
-4 0 -1 291.47 17.19
-4 0 -1 300.13 16.63
-4 0 -1 303.7 18.26
4 1 1 62.26 3.89
4 1 1 62.98 3.55
4 1 1 59.9 3.64
4 1 1 60.48 3.64
-4 -1 -1 59.77 3.89
-4 -1 -1 59.82 3.62
-4 -1 -1 59.99 3.89
-4 -1 -1 61.64 3.9
4 2 1 338.02 20.7
4 2 1 332.19 19.51
4 2 1 326.96 19.51
-4 -2 -1 351.34 20.69
-4 -2 -1 346.77 20.68
4 3 1 12 1.07
4 3 1 12.05 0.87
4 3 1 13 0.99
4 3 1 12.89 0.87
4 4 1 19.48 1.32
4 4 1 18.69 1.44
4 5 1 19.3 1.43
4 6 1 85.9 5.29
5 -7 1 10.09 1.19
-5 7 -1 8.02 1.31
5 -6 1 29.19 2.33
-5 6 -1 32.02 2.34
5 -5 1 62.36 3.59
5 -5 1 58.13 3.87
-5 5 -1 55.16 3.72
-5 5 -1 50.66 3.67
5 -4 1 11.75 1.36
5 -4 1 13.09 1.39
5 -4 1 13.95 1.46
-5 4 -1 13.67 1.44
-5 4 -1 13.49 1.49
-5 4 -1 12.8 1.32
-5 4 -1 13.98 1.37
5 -3 1 34.03 2.25
5 -3 1 34.65 2.5
5 -3 1 36.29 2.56
5 -3 1 33.27 2.33
5 -2 1 15.68 1.35
5 -2 1 14.03 1.31
5 -2 1 14.36 1.18
5 -2 1 14.37 1.2
-5 2 -1 14.34 1.35
-5 2 -1 14.73 1.29
-5 2 -1 15.16 1.29
-5 2 -1 14.79 1.29
-5 1 -1 22.44 1.6
-5 1 -1 22.11 1.58
-5 1 -1 22.14 1.55
-5 1 -1 21.95 1.79
5 0 1 13.1 1.12
5 0 1 12.31 1.02
5 0 1 12.63 1.09
5 0 1 12.61 1.23
-5 0 -1 12.16 1.11
-5 0 -1 13.83 1.27
-5 0 -1 12.47 1
-5 0 -1 11.06 1.01
-5 0 -1 11.46 1.15
5 1 1 23.19 1.71
5 1 1 22.46 1.51
5 1 1 21.98 1.55
5 1 1 23.03 1.59
5 2 1 13.63 1.13
5 2 1 14.87 1.11
5 2 1 15.1 1.23
-5 -2 -1 15.27 1.22
-5 -2 -1 14.74 1.23
5 3 1 50.08 3.02
5 3 1 49.7 3.23
5 3 1 50 3.03
5 4 1 12.14 1.02
5 4 1 11.3 0.93
5 4 1 11.94 1.12
5 4 1 12.18 0.91
5 5 1 50.46 3.23
5 5 1 48.43 2.96
5 5 1 49.85 2.97
6 -7 1 2.78 0.88
-6 7 -1 1.58 1.05
6 -6 1 1.92 0.86
-6 6 -1 2.83 0.99
6 -5 1 18.08 1.75
-6 5 -1 18.67 1.73
6 -4 1 122.26 7.37
6 -4 1 118.3 7.64
6 -4 1 131.6 7.7
6 -4 1 125.1 7.15
-6 4 -1 113.36 7.66
-6 4 -1 117.57 7.24
-6 4 -1 112.26 7.11
-6 4 -1 114.92 7.23
6 -3 1 7.62 1.02
6 -3 1 6.99 0.85
6 -3 1 7.12 0.96
-6 3 -1 6.63 0.93
-6 3 -1 6.29 0.92
-6 3 -1 6.61 0.98
-6 3 -1 7.41 1.04
6 -2 1 313.08 16.87
6 -2 1 313.76 17.38
6 -2 1 313.38 18.46
-6 2 -1 274.27 17.37
-6 2 -1 297.6 17.4
-6 2 -1 283.69 18.44
-6 2 -1 296.54 16.86
6 -1 1 43.11 2.66
6 -1 1 39.14 2.66
6 -1 1 40.09 2.88
6 -1 1 40.51 2.59
-6 1 -1 41.11 2.7
-6 1 -1 40.28 2.9
-6 1 -1 40.56 2.65
-6 1 -1 40.98 2.6
6 0 1 135.78 8.97
6 0 1 140.95 8.46
6 0 1 151.45 8.47
6 0 1 138.95 8.16
-6 0 -1 146.06 8.46
-6 0 -1 146.23 8.19
-6 0 -1 143.31 8.98
-6 0 -1 143.23 8.45
6 1 1 40.27 2.57
6 1 1 38.15 2.47
6 1 1 39.7 2.76
6 1 1 40.21 2.6
-6 -1 -1 39.76 2.54
-6 -1 -1 38.78 2.76
-6 -1 -1 42.87 2.79
-6 -1 -1 40.22 2.75
6 2 1 295.34 18.29
6 2 1 289.07 17.24
6 2 1 282.52 17.24
-6 -2 -1 306.99 18.28
-6 -2 -1 314.84 18.28
6 3 1 5.87 0.7
6 3 1 6.1 0.76
6 3 1 6.72 0.79
-6 -3 -1 6.59 0.82
-6 -3 -1 6.52 0.84
6 4 1 112.58 6.81
6 4 1 108.19 6.4
6 4 1 106.83 6.77
6 4 1 107.13 6.41
6 5 1 18.13 1.39
6 5 1 20.76 1.62
6 5 1 18.8 1.38
6 6 1 2.05 0.55
6 6 1 2.2 0.55
6 7 1 1.73 0.58
6 7 1 2.15 0.59
7 -7 1 8.17 1.25
-7 7 -1 6.77 1.36
7 -6 1 11.75 1.55
-7 6 -1 15.88 1.71
7 -5 1 9.88 1.39
-7 5 -1 12.39 1.51
7 -4 1 36.56 2.75
7 -4 1 40.09 2.73
7 -4 1 38.85 2.55
-7 4 -1 33.66 2.59
-7 4 -1 30.52 2.53
-7 4 -1 32.71 2.77
7 -3 1 30.09 2.13
7 -3 1 32.12 2.37
-7 3 -1 27.88 2.17
-7 3 -1 27.55 2.36
-7 3 -1 29.31 2.16
-7 3 -1 28.99 2.22
7 -2 1 65.53 4.58
7 -2 1 68.69 5.06
7 -2 1 72.07 4.7
-7 2 -1 83.9 4.68
-7 2 -1 87.04 4.82
-7 2 -1 78.56 4.77
-7 2 -1 81.42 5.11
7 -1 1 25.62 2.13
7 -1 1 25.56 1.84
7 -1 1 27.96 1.93
7 -1 1 26.88 1.96
7 0 1 0.24 0.57
7 0 1 0.86 0.53
7 0 1 -0.13 0.48
7 0 1 0.23 0.58
-7 0 -1 0.39 0.55
-7 0 -1 0.18 0.65
-7 0 -1 -0.36 0.62
-7 0 -1 0.26 0.5
-7 -1 -1 26.3 2.03
-7 -1 -1 25.65 2.04
-7 -1 -1 27.21 1.87
-7 -1 -1 30.35 2.14
7 2 1 82.03 4.79
7 2 1 79.41 5.07
7 2 1 82.89 4.66
7 2 1 79.84 4.76
-7 -2 -1 74.85 5.05
-7 -2 -1 70.89 5.02
7 3 1 26.67 1.94
7 3 1 26.55 1.95
7 3 1 27.26 2.06
-7 -3 -1 30.88 2.08
-7 -3 -1 28.77 2.04
7 4 1 32.22 2.21
7 4 1 30.66 2.43
7 4 1 29.18 2.22
-7 -4 -1 37.1 2.28
-7 -4 -1 36.59 2.28
7 5 1 11.23 1.12
7 5 1 12.62 1.14
7 5 1 12.59 1.37
7 6 1 15.26 1.29
7 6 1 14.59 1.28
7 7 1 6.59 0.86
8 -7 1 0.74 1.01
-8 7 -1 2.06 1.21
8 -6 1 0.88 0.93
-8 6 -1 3.12 1.11
8 -5 1 7.91 1.32
-8 5 -1 13.11 1.51
8 -4 1 3.83 0.97
8 -4 1 3.16 0.96
-8 4 -1 1.95 0.91
-8 4 -1 2.3 1.03
8 -3 1 3.43 0.97
8 -3 1 3.76 0.8
-8 3 -1 4.05 1.03
-8 3 -1 3.62 0.92
-8 3 -1 2.95 0.83
-8 3 -1 3 0.88
8 -2 1 21.45 1.88
8 -2 1 21 1.87
8 -2 1 21.18 2.1
-8 2 -1 28.67 2.06
-8 2 -1 27.5 1.93
-8 2 -1 26.33 1.94
-8 2 -1 29.63 2.16
8 -1 1 70.75 4.29
8 -1 1 66.75 4.12
8 -1 1 66.86 4.25
8 -1 1 66.1 4.54
-8 1 -1 64.82 4.24
-8 1 -1 69.74 4.25
-8 1 -1 68.49 4.55
-8 1 -1 65.09 4.1
8 0 1 127.17 7.63
8 0 1 125.18 8.12
8 0 1 126.22 7.63
8 0 1 124.24 7.37
-8 0 -1 130.67 8.14
-8 0 -1 131.55 7.41
-8 0 -1 123.11 8.12
-8 0 -1 130.74 7.63
8 1 1 66.77 4.22
8 1 1 69.17 4.53
8 1 1 63.78 4.06
8 1 1 68.06 4.25
-8 -1 -1 67.82 4.19
-8 -1 -1 70.54 4.51
8 2 1 24.43 1.82
8 2 1 28.34 1.84
8 2 1 26.8 1.78
8 2 1 26.43 1.96
-8 -2 -1 21.09 1.98
-8 -2 -1 19.77 1.89
8 3 1 3.46 0.75
8 3 1 3.5 0.74
8 3 1 3.99 0.73
-8 -3 -1 2.87 0.72
-8 -3 -1 3.45 0.77
8 4 1 1.9 0.68
8 4 1 1.8 0.68
8 4 1 1.76 0.84
-8 -4 -1 3.88 0.7
8 5 1 10.05 1.15
8 5 1 11.81 1.23
8 6 1 2.43 0.73
8 7 1 1.75 0.74
9 -7 1 6.68 1.38
-9 7 -1 7.39 1.57
9 -6 1 7.05 1.34
-9 6 -1 7.46 1.45
9 -5 1 2.15 1.02
-9 5 -1 2.67 1.08
9 -4 1 71.9 4.98
9 -4 1 76.41 4.69
-9 4 -1 72.08 5.02
-9 4 -1 72.67 5.03
-9 4 -1 66.87 4.69
9 -3 1 29.89 2.33
9 -3 1 31.9 2.55
-9 3 -1 31.33 2.39
-9 3 -1 30.92 2.69
-9 3 -1 33.31 2.7
9 -2 1 27.29 2.46
9 -2 1 25.23 2.2
9 -2 1 27.18 2.2
-9 2 -1 33.4 2.38
-9 2 -1 31.59 2.31
-9 2 -1 30.75 2.45
-9 2 -1 32.05 2.27
-9 2 -1 30.41 2.46
9 -1 1 17.04 1.86
9 -1 1 16.87 1.6
9 -1 1 18.59 1.64
-9 1 -1 21.09 1.86
-9 1 -1 21.38 1.7
-9 1 -1 22.37 1.76
-9 1 -1 20.74 1.86
9 0 1 58.19 3.87
9 0 1 59.74 4.19
9 0 1 63.91 3.94
9 0 1 62.07 3.77
-9 0 -1 64.09 3.82
-9 0 -1 60.23 3.88
-9 0 -1 57.34 4.13
-9 0 -1 57.69 4.14
9 1 1 19.5 1.66
9 1 1 21.64 1.68
9 1 1 21.07 1.56
9 1 1 19.61 1.78
-9 -1 -1 17.55 1.6
-9 -1 -1 15.58 1.65
9 2 1 31.52 2.1
9 2 1 31.5 2.19
9 2 1 30.51 2.35
9 2 1 31.69 2.21
-9 -2 -1 26.75 2.36
-9 -2 -1 26.91 2.33
9 3 1 32.69 2.3
9 3 1 31.18 2.42
9 3 1 31.34 2.28
9 3 1 31.21 2.26
-9 -3 -1 31.15 2.38
9 4 1 68.38 4.81
9 4 1 77.05 4.57
9 4 1 69.58 4.54
-9 -4 -1 74.49 4.74
9 5 1 2.61 0.79
9 6 1 7.89 1.07
9 7 1 7.52 1.07
10 -6 1 9.39 1.53
-10 6 -1 9.2 1.67
10 -5 1 9.17 1.44
-10 5 -1 6.68 1.42
10 -4 1 6.71 1.33
-10 4 -1 5.15 1.37
-10 4 -1 5.66 1.27
-10 4 -1 7.98 1.49
10 -3 1 40.6 3.21
10 -3 1 40.52 2.98
-10 3 -1 39.68 3.29
-10 3 -1 42.85 3.04
-10 3 -1 40.94 3.29
10 -2 1 17.95 1.65
10 -2 1 20.34 1.74
10 -2 1 20.68 1.98
-10 2 -1 16.37 1.75
-10 2 -1 16.47 1.86
-10 2 -1 15.83 1.86
10 -1 1 112.6 6.63
10 -1 1 107.55 6.38
10 -1 1 107.01 7.03
-10 1 -1 104.77 7.03
-10 1 -1 111.16 6.63
-10 1 -1 104.24 6.41
-10 1 -1 100.48 7.01
10 0 1 30.08 2.21
10 0 1 31.93 2.34
10 0 1 29.19 2.48
10 0 1 31.88 2.37
-10 0 -1 29.99 2.55
-10 0 -1 33.33 2.34
10 1 1 107.42 6.46
10 1 1 103.76 6.45
10 1 1 97.82 6.83
10 1 1 102.79 6.21
-10 -1 -1 104.18 6.85
-10 -1 -1 111.96 6.41
10 2 1 17.52 1.68
10 2 1 16.85 1.52
10 2 1 17.76 1.76
10 2 1 16.47 1.62
-10 -2 -1 18.88 1.81
10 3 1 41.41 2.71
10 3 1 37.41 2.74
-10 -3 -1 37.43 2.86
10 4 1 6.24 1.21
10 4 1 6.11 1.02
-10 -4 -1 6.74 1.02
10 5 1 5.27 1.02
-10 -5 -1 9.2 1.02
10 6 1 7.69 1.11
11 -6 1 17.23 2.11
-11 6 -1 20.34 2.27
11 -5 1 15.65 1.94
-11 5 -1 14.08 1.87
11 -4 1 11.91 1.77
-11 4 -1 15.02 1.82
-11 4 -1 14.69 1.99
-11 4 -1 14.31 1.95
11 -3 1 16.27 1.95
-11 3 -1 21.81 1.92
-11 3 -1 19.76 2.21
-11 3 -1 18.82 2.22
11 -2 1 35.21 3.08
11 -2 1 36.95 2.8
-11 2 -1 39.84 3.18
-11 2 -1 40.05 3.21
-11 2 -1 40.09 2.93
11 -1 1 19.6 1.79
11 -1 1 22.35 1.95
11 -1 1 20.36 1.73
-11 1 -1 15.05 1.95
-11 1 -1 14.3 1.76
-11 1 -1 13.95 1.98
11 0 1 1.84 0.89
11 0 1 1.07 0.71
11 0 1 0.62 0.83
-11 0 -1 1.19 0.82
-11 0 -1 1.08 0.98
11 1 1 13.64 1.62
11 1 1 13.76 1.51
11 1 1 16.55 1.79
-11 -1 -1 19.91 1.84
11 2 1 36.63 2.58
11 2 1 38.71 2.91
11 2 1 37.62 2.71
-11 -2 -1 34.31 2.83
11 3 1 18.6 1.73
11 3 1 18.15 1.61
-11 -3 -1 13.65 1.72
11 4 1 16.31 1.67
11 4 1 13.82 1.57
-11 -4 -1 13.56 1.58
11 5 1 12.62 1.57
-11 -5 -1 14.42 1.45
11 6 1 17.27 1.8
12 -5 1 10.31 1.7
-12 5 -1 11.51 1.79
12 -4 1 11.07 1.71
-12 4 -1 8.12 1.75
-12 4 -1 9.66 1.61
12 -3 1 24.38 2.58
-12 3 -1 29.09 2.64
-12 3 -1 27.91 2.66
-12 2 -1 11.88 1.58
-12 2 -1 10.03 1.62
-12 2 -1 10.42 1.63
12 -1 1 34.09 2.5
12 -1 1 34.17 2.76
12 -1 1 34.53 2.55
-12 1 -1 24.68 2.62
12 0 1 35.27 2.54
12 0 1 32.27 2.83
12 0 1 36.42 2.75
-12 0 -1 34.95 2.94
12 1 1 26.58 2.46
12 1 1 27.67 2.23
12 1 1 26.56 2.34
-12 -1 -1 33.4 2.6
12 2 1 11.59 1.55
12 2 1 12.38 1.51
12 2 1 10.34 1.33
12 3 1 27.96 2.18
12 3 1 25.79 2.09
-12 -3 -1 21.93 2.25
12 4 1 7.19 1.29
12 4 1 10.03 1.35
-12 -4 -1 11.67 1.51
12 5 1 12.01 1.54
-12 -5 -1 14.06 1.55
13 -5 1 3.01 1.35
13 -4 1 0.35 1.21
-13 3 -1 27.77 2.86
13 -2 1 2.24 1.16
-13 2 -1 1.21 1.19
13 -1 1 26.35 2.56
-13 1 -1 28.73 2.63
13 0 1 17.57 1.91
13 0 1 13.42 1.67
13 0 1 15.69 1.7
-13 0 -1 13.91 1.91
13 1 1 33.3 2.62
13 1 1 32.49 2.78
13 1 1 34.51 2.48
-13 -1 -1 23.46 2.65
13 2 1 1.23 1.01
13 2 1 1.26 0.91
-13 -2 -1 2.04 1.11
13 3 1 29.01 2.52
13 3 1 30.41 2.38
-13 -3 -1 28.97 2.61
13 4 1 1.99 1.08
-13 -4 -1 1.32 1.05
13 5 1 5.45 1.24
-13 -5 -1 3.22 1.06
14 -4 1 4.27 1.49
14 -3 1 13.34 2.04
-14 3 -1 14.86 2.23
14 -2 1 4.53 1.46
-14 2 -1 4.97 1.6
14 -1 1 10.03 1.68
-14 1 -1 10.8 1.83
14 0 1 37.42 3.14
-14 0 -1 35.4 3.21
14 1 1 12.81 1.8
14 1 1 10.3 1.59
-14 -1 -1 11.76 1.8
14 2 1 3.81 1.23
-14 -2 -1 4.9 1.31
14 3 1 12.44 1.69
-14 -3 -1 11.85 1.71
14 4 1 7.76 1.44
-14 -4 -1 6.13 1.4
15 -4 1 0.11 1.23
15 -3 1 21.2 2.61
-15 3 -1 23.92 2.9
15 -2 1 19.04 2.38
-15 2 -1 14.46 2.32
15 -1 1 0.34 1.27
-15 1 -1 0.93 1.44
15 0 1 0.26 1.13
-15 0 -1 0.19 1.33
15 1 1 0.31 1.16
-15 -1 -1 -0.96 1.18
15 2 1 15.37 1.99
-15 -2 -1 15.37 2.05
15 3 1 22.92 2.27
-15 -3 -1 19.25 2.24
15 4 1 3.22 1.34
-15 -4 -1 1 1.26
16 -3 1 9.61 1.98
-16 3 -1 10.9 2.25
16 -2 1 17.57 2.31
-16 2 -1 18.05 2.56
16 -1 1 4.27 1.58
-16 1 -1 4.36 1.76
16 0 1 29.33 2.94
-16 0 -1 27.28 2.97
-16 -1 -1 2.76 1.47
16 2 1 17.5 2.21
-16 -2 -1 18.08 2.3
16 3 1 8.89 1.71
-16 -3 -1 11.44 1.86
17 -1 1 4.41 1.67
-17 1 -1 5.55 1.92
-17 0 -1 17.2 2.43
-17 -1 -1 0.89 1.49
-17 -1 2 5.67 1.73
-17 0 2 0.63 1.55
17 0 -2 1.27 1.36
-17 1 2 5.91 1.89
17 -1 -2 6.87 1.84
-16 -3 2 0.39 1.34
16 3 -2 1.04 1.27
-16 -2 2 13.92 2.09
16 2 -2 17.14 2.13
-16 -1 2 -1.02 1.31
-16 0 2 0.54 1.29
16 0 -2 0.13 1.31
-16 1 2 0.27 1.46
16 -1 -2 1.55 1.42
-16 2 2 17.66 2.48
16 -2 -2 15.52 2.29
-16 3 2 0.39 1.62
16 -3 -2 0.43 1.45
-15 -4 2 1.14 1.23
15 4 -2 1.35 1.25
-15 -3 2 4.62 1.39
15 3 -2 7.32 1.46
-15 -2 2 5.32 1.47
15 2 -2 6.11 1.41
-15 -1 2 38.57 3.09
15 1 -2 31.31 2.9
15 1 -2 32.51 3.15
-15 0 2 1.53 1.36
15 0 -2 1.96 1.32
-15 1 2 33.48 3.33
15 -1 -2 40.37 3.32
-15 2 2 6.13 1.74
15 -2 -2 4.86 1.57
-15 3 2 7.44 1.9
15 -3 -2 4.41 1.58
15 -4 -2 -0.23 1.35
-14 -4 2 4.59 1.29
14 4 -2 3.27 1.25
-14 -3 2 8.87 1.59
14 3 -2 9.86 1.52
-14 -2 2 24.01 2.46
14 2 -2 22.22 2.25
-14 -1 2 7.83 1.56
14 1 -2 8.68 1.48
14 1 -2 8.05 1.56
-14 0 2 -0.38 1.17
14 0 -2 -0.69 0.98
-14 1 2 8.43 1.62
14 -1 -2 7.68 1.59
-14 2 2 21.21 2.62
14 -2 -2 24.43 2.56
-14 3 2 10.56 1.97
14 -3 -2 9.75 1.72
14 -4 -2 5.85 1.6
-13 -5 2 21.9 2.13
13 5 -2 21.88 2.14
-13 -4 2 3.03 1.15
13 4 -2 4.44 1.2
-13 -3 2 3.28 1.13
13 3 -2 2.77 1.08
-13 -2 2 8.4 1.46
13 2 -2 9.92 1.43
-13 -1 2 8.71 1.53
13 1 -2 15.5 1.76
13 1 -2 13.82 1.72
-13 0 2 1.35 1.14
13 0 -2 0.87 0.99
13 0 -2 0.12 0.94
-13 1 2 14.88 1.97
13 -1 -2 9.9 1.6
-13 2 2 9.42 1.73
13 -2 -2 10.41 1.66
-13 3 2 2.31 1.45
13 -3 -2 4.73 1.31
-13 4 2 2.67 1.37
13 -4 -2 3.75 1.37
-13 5 2 23.79 2.57
13 -5 -2 23.37 2.52
12 6 -2 -0.05 0.95
-12 -5 2 23.23 2.06
12 5 -2 21.56 2.06
-12 -4 2 6.42 1.24
12 4 -2 5.94 1.16
-12 -3 2 3.04 1.12
12 3 -2 6.73 1.18
12 3 -2 8.11 1.22
-12 -2 2 12.16 1.56
12 2 -2 8.72 1.31
12 2 -2 9.5 1.44
12 2 -2 8.23 1.31
-12 -1 2 19.94 1.93
12 1 -2 14.23 1.86
12 1 -2 14.52 1.71
12 1 -2 14.68 1.55
-12 0 2 44.76 3.42
12 0 -2 44.43 3.08
12 0 -2 45.9 3.21
12 0 -2 43.04 3.39
-12 1 2 15.78 2.15
12 -1 -2 23.57 1.98
12 -1 -2 20.84 1.99
12 -1 -2 20.97 2.05
-12 2 2 9.28 1.55
-12 2 2 7.19 1.34
12 -2 -2 13.17 1.74
-12 3 2 6.69 1.36
-12 3 2 8.84 1.59
12 -3 -2 3.31 1.17
-12 4 2 4.7 1.4
12 -4 -2 4.71 1.26
-12 5 2 18.76 2.3
12 -5 -2 21.87 2.37
-12 6 2 -0.46 1.35
11 6 -2 11.62 1.47
-11 -5 2 7.18 1.08
11 5 -2 5.8 1.14
11 4 -2 7.77 1.21
-11 -3 2 6.93 1.22
11 3 -2 8.94 1.21
11 3 -2 9.02 1.25
-11 -2 2 126.08 8.66
11 2 -2 133.25 7.99
11 2 -2 139.36 8.23
11 2 -2 141.2 8.76
-11 -1 2 3.82 1.05
11 1 -2 1.23 0.87
11 1 -2 2.24 0.83
11 1 -2 2.37 0.96
-11 0 2 0.36 0.79
-11 0 2 0.22 0.85
11 0 -2 0.84 0.81
11 0 -2 0.77 0.78
11 0 -2 -0.38 0.72
-11 1 2 1.41 0.85
-11 1 2 1.71 1.1
11 -1 -2 3.68 0.9
11 -1 -2 3.33 0.95
11 -1 -2 3.54 1
-11 2 2 133.28 8.19
-11 2 2 140.1 8.78
11 -2 -2 132.61 8.71
11 -2 -2 127.36 7.93
-11 3 2 10.06 1.61
-11 3 2 7.63 1.31
11 -3 -2 7.56 1.38
-11 4 2 8.45 1.51
-11 4 2 8.88 1.66
11 -4 -2 14.05 1.75
-11 5 2 5.86 1.42
11 -5 -2 7.07 1.41
-11 6 2 13.73 1.89
11 -6 -2 10.82 1.66
10 6 -2 3.35 0.97
-10 -5 2 12.78 1.36
10 5 -2 10.98 1.42
-10 -4 2 22.76 1.99
10 4 -2 23.05 1.93
-10 -3 2 15.27 1.56
10 3 -2 14.77 1.48
-10 -2 2 5.19 1.02
10 2 -2 4.55 0.93
10 2 -2 4.85 1
10 2 -2 4.79 0.93
10 2 -2 4.8 0.91
-10 -1 2 39.65 2.89
-10 -1 2 41.78 2.65
10 1 -2 36.17 2.86
10 1 -2 31.94 2.52
10 1 -2 36.95 2.67
10 1 -2 37.81 2.68
-10 0 2 13.33 1.46
-10 0 2 13.8 1.67
10 0 -2 13.57 1.41
10 0 -2 13.77 1.49
10 0 -2 14.4 1.56
10 0 -2 13.84 1.6
-10 1 2 39.06 2.79
-10 1 2 35.81 3.05
-10 1 2 38.64 2.82
10 -1 -2 42.24 3.07
10 -1 -2 41.97 2.84
10 -1 -2 39.41 2.76
-10 2 2 4.69 1.12
-10 2 2 5 1.06
10 -2 -2 4.61 0.97
10 -2 -2 4.95 1.05
-10 3 2 13.55 1.71
-10 3 2 15.09 1.94
10 -3 -2 18.22 1.72
10 -3 -2 17.28 1.84
-10 4 2 25.99 2.35
-10 4 2 24.61 2.21
10 -4 -2 21.61 2.3
-10 5 2 11.29 1.61
10 -5 -2 13.15 1.69
-10 6 2 4.11 1.33
10 -6 -2 4.87 1.24
9 7 -2 6 1.04
9 6 -2 2.01 0.86
-9 -5 2 27.84 2.06
9 5 -2 28.22 2.13
-9 -4 2 60.38 3.94
9 4 -2 52.61 3.73
9 4 -2 61.84 3.79
-9 -3 2 7.19 1.04
9 3 -2 7.03 0.98
9 3 -2 7.04 1.03
9 3 -2 6.51 0.95
-9 -2 2 26.62 2.19
-9 -2 2 24.37 2.13
9 2 -2 27.87 2.04
9 2 -2 27.04 2.02
9 2 -2 27.3 2.18
9 2 -2 26.72 2.05
-9 -1 2 19.5 1.51
-9 -1 2 18.51 1.68
9 1 -2 14 1.49
9 1 -2 16.91 1.54
9 1 -2 16.63 1.47
9 1 -2 15.89 1.64
-9 0 2 25.33 2.2
-9 0 2 25.55 1.99
9 0 -2 27.37 2.19
9 0 -2 27.71 2
9 0 -2 23.99 1.89
9 0 -2 27.45 2
-9 1 2 15.96 1.81
-9 1 2 17.07 1.59
-9 1 2 16.44 1.53
9 -1 -2 20.67 1.74
9 -1 -2 20.56 1.65
-9 2 2 25.89 2.14
-9 2 2 27.03 2.27
-9 2 2 30.69 2.23
-9 2 2 25.88 2.05
9 -2 -2 25.55 2.07
-9 3 2 7.05 1.11
-9 3 2 7.16 1.3
9 -3 -2 6.5 1.19
9 -3 -2 9.32 1.21
-9 4 2 56.5 3.91
-9 4 2 60.18 4.25
9 -4 -2 57.85 3.92
9 -4 -2 58.28 4.15
-9 5 2 27.69 2.36
9 -5 -2 28.51 2.42
-9 6 2 3 1.18
9 -6 -2 0.94 0.96
-9 7 2 6.01 1.46
9 -7 -2 6.92 1.34
8 7 -2 1.45 0.82
8 6 -2 15.96 1.49
-8 -5 2 9.58 1.02
8 5 -2 10.92 1.24
8 5 -2 11.12 1.22
8 4 -2 12.83 1.26
8 4 -2 12.89 1.28
-8 -3 2 34.87 2.41
-8 -3 2 37.05 2.46
8 3 -2 30.39 2.24
8 3 -2 31.19 2.43
8 3 -2 29.55 2.26
-8 -2 2 94.37 6.13
-8 -2 2 99.12 6.16
8 2 -2 99.49 5.79
8 2 -2 93.62 5.79
8 2 -2 89.43 6.13
-8 -1 2 32.36 2.36
-8 -1 2 30.4 2.49
8 1 -2 35.08 2.31
8 1 -2 37.23 2.59
8 1 -2 34.68 2.38
8 1 -2 37.62 2.42
-8 0 2 0.42 0.71
-8 0 2 0.67 0.61
8 0 -2 1.07 0.56
8 0 -2 0.71 0.58
8 0 -2 0.52 0.62
8 0 -2 1.11 0.65
-8 1 2 35.85 2.49
-8 1 2 36.28 2.63
-8 1 2 36.14 2.37
-8 1 2 37.14 2.46
8 -1 -2 32.89 2.33
8 -1 -2 31.21 2.59
8 -1 -2 34.52 2.43
-8 2 2 95.84 6.28
-8 2 2 91.77 5.72
-8 2 2 98.99 5.94
-8 2 2 95.5 5.91
8 -2 -2 94.22 6.26
8 -2 -2 99.09 5.87
-8 3 2 32.11 2.47
-8 3 2 30.32 2.41
-8 3 2 31.61 2.43
-8 3 2 30.6 2.65
8 -3 -2 34.52 2.38
8 -3 -2 38.11 2.49
8 -3 -2 36.35 2.62
-8 4 2 12.72 1.53
-8 4 2 13.67 1.74
8 -4 -2 18.07 1.7
8 -4 -2 18.08 1.7
-8 5 2 12.05 1.45
8 -5 -2 8.91 1.32
-8 6 2 14.88 1.66
8 -6 -2 12.45 1.65
-8 7 2 1.79 1.17
8 -7 -2 1.45 0.97
7 7 -2 3.24 0.81
7 6 -2 11.52 1.24
7 6 -2 12.78 1.29
7 5 -2 79.14 4.76
7 5 -2 75.98 4.74
-7 -4 2 7.74 1.05
-7 -4 2 8.28 1.04
7 4 -2 9.38 1.06
7 4 -2 9.44 1.03
-7 -3 2 11.22 1.08
-7 -3 2 10.74 1.14
7 3 -2 7.33 0.97
7 3 -2 7.14 0.98
7 3 -2 7.42 1.06
-7 -2 2 12.7 1.24
-7 -2 2 11.47 1.27
7 2 -2 12.21 1.23
7 2 -2 10.75 1.11
7 2 -2 12.11 1.12
-7 -1 2 88.84 5.16
-7 -1 2 91.22 5.18
-7 -1 2 89.98 4.83
7 1 -2 70.84 4.8
7 1 -2 70.55 5.12
7 1 -2 68.06 4.66
7 1 -2 74.13 4.81
-7 0 2 11.46 1.1
-7 0 2 11.31 1.2
-7 0 2 11.08 1.22
7 0 -2 12.21 1.12
7 0 -2 11.74 1.18
7 0 -2 11.23 1.2
7 0 -2 10.86 1.06
-7 1 2 68.81 4.74
-7 1 2 74 4.91
-7 1 2 71.89 5.21
-7 1 2 72.79 4.9
7 -1 -2 92.68 4.95
7 -1 -2 92.84 4.95
7 -1 -2 88.51 5.27
-7 2 2 10.81 1.14
-7 2 2 12.44 1.4
-7 2 2 10.42 1.24
-7 2 2 10.83 1.24
7 -2 -2 12.75 1.15
7 -2 -2 11.79 1.32
7 -2 -2 11.72 1.16
-7 3 2 7.72 1.1
-7 3 2 6.95 1.07
-7 3 2 6.8 0.98
-7 3 2 7.24 1.03
7 -3 -2 9.15 1.08
7 -3 -2 10.66 1.07
7 -3 -2 9.91 1.22
-7 4 2 9.88 1.26
-7 4 2 7.32 1.12
-7 4 2 10.03 1.29
-7 4 2 10.89 1.32
7 -4 -2 7.68 1.14
7 -4 -2 7.66 1.18
-7 5 2 79.18 5.12
7 -5 -2 80.78 5.36
7 -5 -2 81.56 5.11
-7 6 2 11.53 1.5
7 -6 -2 14.26 1.54
-7 7 2 2.31 1.11
7 -7 -2 3.5 0.96
6 7 -2 7.68 0.97
6 6 -2 22.44 1.7
6 6 -2 23.59 1.69
6 5 -2 1.26 0.57
6 5 -2 1.66 0.59
-6 -4 2 52.88 3.43
-6 -4 2 51.94 3.43
6 4 -2 53.86 3.31
6 4 -2 52.01 3.49
6 4 -2 54.74 3.31
-6 -3 2 0.93 0.53
-6 -3 2 1 0.53
6 3 -2 0.96 0.52
6 3 -2 0.63 0.49
6 3 -2 0.7 0.48
-6 -2 2 2.67 0.63
-6 -2 2 3 0.62
6 2 -2 -0.07 0.48
6 2 -2 -0.08 0.45
6 2 -2 -0.03 0.49
-6 -1 2 69.33 4.3
-6 -1 2 76.59 4.64
-6 -1 2 69.26 4.6
6 1 -2 68.58 4.31
6 1 -2 70.29 4.32
6 1 -2 71.16 4.59
-6 0 2 1.2 0.58
-6 0 2 1.39 0.55
-6 0 2 0.99 0.56
6 0 -2 1.61 0.55
6 0 -2 1.22 0.56
6 0 -2 1.74 0.57
6 0 -2 1.65 0.62
-6 1 2 69.65 4.38
-6 1 2 73.85 4.4
-6 1 2 70.89 4.25
-6 1 2 72.94 4.69
6 -1 -2 69.77 4.36
6 -1 -2 67.83 4.65
6 -1 -2 74 4.38
-6 2 2 -0.48 0.54
-6 2 2 -0.13 0.55
-6 2 2 -0.14 0.51
-6 2 2 0.29 0.64
6 -2 -2 2.55 0.61
6 -2 -2 3.45 0.71
6 -2 -2 2.89 0.59
-6 3 2 0.79 0.62
-6 3 2 0.67 0.6
-6 3 2 0.81 0.69
-6 3 2 0.49 0.6
6 -3 -2 1.1 0.64
6 -3 -2 1.07 0.52
6 -3 -2 0.86 0.59
6 -3 -2 0.8 0.62
-6 4 2 54.19 3.59
-6 4 2 56.07 3.61
-6 4 2 55.7 3.82
-6 4 2 55.35 3.58
6 -4 -2 56.87 3.59
6 -4 -2 53.53 3.78
6 -4 -2 55.83 3.82
-6 5 2 1.65 0.8
6 -5 -2 0.7 0.81
6 -5 -2 1.43 0.58
6 -5 -2 0.84 0.75
-6 6 2 23.25 2.03
6 -6 -2 25.38 2.03
-6 7 2 7.76 1.33
6 -7 -2 9.29 1.17
5 7 -2 3.7 0.73
5 7 -2 3.86 0.77
5 6 -2 7.15 0.92
5 6 -2 7.63 0.95
5 5 -2 6.42 0.75
5 5 -2 6.31 0.75
-5 -4 2 29.67 1.8
-5 -4 2 28.23 1.78
5 4 -2 23.24 1.74
5 4 -2 23.63 1.74
5 4 -2 24.4 1.87
-5 -3 2 19.43 1.38
-5 -3 2 16.96 1.36
5 3 -2 18.02 1.29
5 3 -2 17.56 1.38
5 3 -2 16.36 1.29
-5 -2 2 85.37 5.77
-5 -2 2 85.56 5.76
5 2 -2 98.29 5.8
5 2 -2 92.01 5.44
5 2 -2 96.73 5.45
-5 -1 2 207.4 12.72
-5 -1 2 211.51 11.98
-5 -1 2 218.44 11.98
-5 -1 2 204.01 12.72
5 1 -2 195.92 11.99
5 1 -2 198.07 12.72
5 1 -2 207.14 11.99
-5 0 2 3.14 0.55
-5 0 2 4.29 0.62
-5 0 2 4.07 0.67
-5 0 2 2.89 0.64
5 0 -2 3.32 0.61
5 0 -2 3.03 0.54
5 0 -2 3.43 0.62
-5 1 2 203.4 13.1
-5 1 2 210.28 12.35
-5 1 2 205.85 11.95
-5 1 2 202.09 12.34
5 -1 -2 210.86 12.34
5 -1 -2 216.18 12.35
5 -1 -2 219.85 13.11
5 -1 -2 225.63 13.11
-5 2 2 96.78 5.83
-5 2 2 96.06 5.49
-5 2 2 94.06 5.47
-5 2 2 97.24 5.35
5 -2 -2 86.39 5.8
5 -2 -2 84.56 5.41
5 -2 -2 85.11 5.31
5 -2 -2 88.27 5.82
-5 3 2 19.11 1.54
-5 3 2 18.1 1.45
-5 3 2 16.89 1.44
-5 3 2 17.48 1.57
5 -3 -2 19.37 1.63
5 -3 -2 19.76 1.52
5 -3 -2 18.55 1.55
-5 4 2 24.49 1.95
-5 4 2 26.51 2.07
-5 4 2 23.82 1.91
-5 4 2 23.96 2.02
5 -4 -2 28.81 2.09
5 -4 -2 29.21 2.09
5 -4 -2 29.61 2.06
-5 5 2 6.56 0.93
5 -5 -2 2.85 0.57
5 -5 -2 2.95 0.75
5 -5 -2 3.15 0.95
-5 6 2 7.39 1.06
5 -6 -2 7.19 0.95
-5 7 2 3.39 1
4 8 -2 3.34 0.78
4 7 -2 0.28 0.63
4 7 -2 0.54 0.58
4 6 -2 37.55 2.41
4 5 -2 34.03 2.16
4 5 -2 32.71 2.1
4 5 -2 30.91 2.08
4 4 -2 9.44 0.86
4 4 -2 9.97 0.87
4 4 -2 10.34 0.98
-4 -3 2 93.96 5.6
-4 -3 2 93.33 5.6
4 3 -2 87.48 5.62
4 3 -2 87.05 5.28
4 3 -2 86.55 5.28
-4 -2 2 105.75 7.14
-4 -2 2 105.53 7.14
4 2 -2 125.07 7.18
4 2 -2 120.27 6.74
4 2 -2 118.43 6.73
-4 -1 2 274.38 15.96
-4 -1 2 275.09 15.96
-4 -1 2 283.9 16.95
-4 -1 2 272.38 16.94
4 1 -2 283.79 15.98
4 1 -2 279.21 16.94
4 1 -2 266.55 15.97
-4 0 2 11.1 1.01
-4 0 2 12.08 1.14
-4 0 2 10.57 0.93
-4 0 2 11.11 1.03
4 0 -2 11.53 1.01
4 0 -2 11.01 0.94
4 0 -2 11.22 1.04
4 0 -2 11.74 1.04
-4 1 2 285.5 16.06
-4 1 2 268.76 15.53
-4 1 2 282.72 17.04
-4 1 2 273.09 16.06
4 -1 -2 282.65 17.04
4 -1 -2 271.68 16.05
4 -1 -2 275.78 17.03
4 -1 -2 281.87 17.03
4 -1 -2 275.13 16.05
-4 2 2 121.15 6.83
-4 2 2 119.97 6.65
-4 2 2 127.73 7.27
-4 2 2 123.39 6.83
4 -2 -2 105.25 6.63
4 -2 -2 109.58 6.78
4 -2 -2 107.54 7.23
4 -2 -2 109.99 7.24
-4 3 2 91.28 5.9
-4 3 2 94.49 5.47
-4 3 2 92.43 5.54
-4 3 2 86.52 5.53
4 -3 -2 96.68 5.9
4 -3 -2 94.63 5.89
4 -3 -2 94.04 5.47
4 -4 -2 5.14 0.79
4 -4 -2 5.11 0.87
4 -4 -2 5.59 0.68
4 -4 -2 5.71 0.78
-4 5 2 34.7 2.52
-4 5 2 33.55 2.34
-4 5 2 31.81 2.3
4 -5 -2 33 2.15
4 -5 -2 35.81 2.42
4 -5 -2 33.71 2.38
-4 6 2 39.06 2.79
-4 6 2 41.89 2.85
4 -6 -2 42.73 2.75
-4 7 2 1.09 0.84
-4 8 2 3.72 1.06
3 8 -2 3.31 0.8
3 7 -2 14.44 1.25
3 7 -2 12.86 1.21
3 6 -2 0.64 0.52
3 6 -2 0.74 0.48
3 5 -2 3.45 0.52
3 5 -2 4.05 0.53
3 5 -2 2.66 0.41
3 4 -2 148.97 9.2
3 4 -2 149.48 8.66
-3 -3 2 76.89 4.98
-3 -3 2 75.18 4.98
3 3 -2 83.12 5.03
3 3 -2 83.32 4.71
3 3 -2 82.21 4.7
-3 -2 2 40.86 2.66
-3 -2 2 42.36 2.66
3 2 -2 41.2 2.5
3 2 -2 41.21 2.5
3 2 -2 41.11 2.67
3 2 -2 38.91 2.49
-3 -1 2 172.67 10.22
-3 -1 2 179.57 10.87
-3 -1 2 178.44 10.23
-3 -1 2 185.07 10.87
3 1 -2 169.74 10.24
3 1 -2 176.18 10.24
3 1 -2 175.54 10.87
-3 0 2 814.09 48.34
-3 0 2 798.63 45.54
-3 0 2 770.51 45.71
-3 0 2 816.42 48.25
3 0 -2 780 45.72
3 0 -2 781.71 48.33
3 0 -2 776.14 45.53
3 0 -2 811.04 48.25
-3 1 2 171.63 11.21
-3 1 2 171.82 10.23
-3 1 2 177.59 10.57
-3 1 2 171.34 10.57
3 -1 -2 183.26 10.24
3 -1 -2 196.09 11.23
3 -1 -2 182.24 10.57
3 -1 -2 186.82 11.22
3 -1 -2 198.06 11.23
3 -1 -2 183 10.56
-3 2 2 42.21 2.63
-3 2 2 41.91 2.62
-3 2 2 41.84 2.8
-3 2 2 42.22 2.6
3 -2 -2 42.73 2.81
3 -2 -2 42.48 2.79
3 -2 -2 42.55 2.57
-3 3 2 84.04 4.87
-3 3 2 87.07 5.19
-3 3 2 83.82 4.87
-3 3 2 84.53 4.83
3 -3 -2 77.62 4.8
3 -3 -2 78.14 4.98
3 -3 -2 77.72 5.15
3 -3 -2 80.95 5.17
-3 4 2 156.15 8.97
-3 4 2 154.04 9.11
-3 4 2 153.03 9.1
-3 4 2 152.32 9.66
3 -4 -2 153.56 8.95
3 -4 -2 163.9 9.64
3 -4 -2 156.2 9.33
3 -4 -2 155.14 9.62
-3 5 2 3.29 0.71
-3 5 2 3.69 0.7
-3 5 2 3.62 0.92
3 -5 -2 5.82 0.67
3 -5 -2 5.27 0.63
-3 6 2 0.06 0.66
-3 6 2 0.58 0.65
-3 7 2 14.42 1.4
-3 8 2 4.26 1.01
2 8 -2 7.07 0.95
2 7 -2 14.38 1.32
2 7 -2 17.23 1.37
2 6 -2 8.85 0.99
2 6 -2 9.59 0.92
2 5 -2 3.45 0.53
2 5 -2 3.26 0.52
2 4 -2 7.06 0.65
2 4 -2 6.92 0.6
2 4 -2 7.12 0.77
2 4 -2 7.41 0.69
-2 -3 2 71.48 4.82
-2 -3 2 72.31 4.82
2 3 -2 81.19 4.73
2 3 -2 83.22 4.56
2 3 -2 79.49 4.86
2 3 -2 79.19 4.55
-2 -2 2 86.76 5.32
-2 -2 2 86.39 5.32
2 2 -2 86.67 5.33
2 2 -2 82.91 4.99
2 2 -2 85.92 5.32
2 2 -2 85.11 5
-2 -1 2 515.42 31.75
-2 -1 2 492.39 29.95
-2 -1 2 509.65 31.75
2 1 -2 541.61 31.75
2 1 -2 537.55 30.01
2 1 -2 534.84 29.96
-2 0 2 40.13 2.54
-2 0 2 38.15 2.53
-2 0 2 37.66 2.38
-2 0 2 39.74 2.39
2 0 -2 39.18 2.39
2 0 -2 39.14 2.55
2 0 -2 40.94 2.56
2 0 -2 38.53 2.38
-2 1 2 554.91 30.34
-2 1 2 571.92 29.33
-2 1 2 552.75 30.34
-2 1 2 551.54 32.15
2 -1 -2 502.59 29.32
2 -1 -2 516.81 32.14
2 -1 -2 495.1 32.14
2 -1 -2 504.99 30.32
2 -1 -2 503.29 30.32
-2 2 2 86.6 5.36
-2 2 2 85.4 4.94
-2 2 2 85.76 5.04
-2 2 2 88.34 5.37
-2 2 2 84.53 5.04
2 -2 -2 84.05 4.93
2 -2 -2 86.56 4.97
2 -2 -2 85.7 5.2
2 -2 -2 86.71 5.36
2 -2 -2 84.89 5.35
-2 3 2 81.95 4.58
-2 3 2 84.35 4.9
-2 3 2 82.35 4.58
-2 3 2 82.87 4.58
2 -3 -2 73.04 4.54
2 -3 -2 70.74 4.69
2 -3 -2 73.86 4.85
2 -3 -2 71.79 4.84
-2 4 2 7.86 0.84
-2 4 2 7.71 0.93
-2 4 2 7.19 0.75
-2 4 2 7.51 0.76
2 -4 -2 6.45 0.71
2 -4 -2 7.43 0.75
2 -4 -2 6.73 0.59
-2 5 2 3.22 0.6
-2 5 2 3.14 0.85
-2 5 2 2.81 0.57
-2 6 2 9.14 1.03
-2 6 2 9.19 1.06
-2 7 2 16.32 1.49
-2 7 2 15.76 1.4
-2 8 2 8.27 1.08
1 8 -2 5.02 0.92
1 7 -2 2.66 0.73
1 7 -2 1.92 0.67
1 6 -2 22.12 1.57
1 6 -2 19.53 1.5
1 5 -2 5.28 0.63
1 5 -2 7.2 1.07
1 5 -2 5.65 0.65
-1 -4 2 19.56 1.48
-1 -4 2 20.73 1.48
1 4 -2 23.56 1.46
1 4 -2 25.01 1.61
1 4 -2 24.31 1.48
-1 -3 2 3.51 0.45
-1 -3 2 3.55 0.46
1 3 -2 2.8 0.47
1 3 -2 2.96 0.4
1 3 -2 3.14 0.41
1 3 -2 3.2 0.42
-1 -2 2 282.17 16.05
-1 -2 2 278.86 16.05
1 2 -2 261.39 15.13
1 2 -2 258.16 16.06
1 2 -2 255.77 15.64
1 2 -2 254.96 15.12
1 2 -2 249.65 16.05
-1 -1 2 339.03 20.09
-1 -1 2 350.3 18.94
-1 -1 2 342.83 20.09
1 1 -2 320.25 20.09
1 1 -2 310.17 18.95
1 1 -2 321.68 18.95
1 1 -2 324.77 19.6
-1 0 2 92.19 5.78
-1 0 2 91.54 5.45
-1 0 2 90.27 5.45
1 0 -2 95.36 5.45
1 0 -2 95.13 5.65
1 0 -2 96.25 5.46
1 0 -2 95.74 5.79
1 0 -2 94.07 5.78
-1 1 2 315.15 18.75
-1 1 2 315.53 19.88
-1 1 2 312.12 18.75
-1 1 2 319.09 18.13
-1 1 2 323.33 19.88
1 -1 -2 325.28 19.4
1 -1 -2 341.27 18.74
1 -1 -2 347.2 19.88
1 -1 -2 333.24 19.88
1 -1 -2 333.13 18.13
-1 2 2 253.85 16.05
-1 2 2 252.31 15.12
-1 2 2 252.92 16.05
-1 2 2 257 15.12
-1 2 2 257.41 14.7
1 -2 -2 268.92 14.7
1 -2 -2 273.6 16.05
1 -2 -2 277.58 15.67
1 -2 -2 275.75 16.05
-1 3 2 2.57 0.35
-1 3 2 3.38 0.42
-1 3 2 3.19 0.47
-1 3 2 3 0.59
1 -3 -2 3.47 0.4
1 -3 -2 4.1 0.45
1 -3 -2 4.23 0.5
-1 4 2 24.57 1.53
-1 4 2 24.02 1.53
-1 4 2 25.96 1.79
-1 4 2 23.75 1.68
-1 5 2 5.43 0.67
-1 5 2 5.57 0.66
-1 5 2 7.07 1.01
-1 6 2 23.74 1.98
-1 6 2 20.44 1.5
-1 6 2 20 1.48
-1 7 2 2.22 0.68
-1 7 2 2.67 0.67
-1 8 2 5 0.87
0 8 -2 7.53 1.05
0 7 -2 7.02 0.95
0 7 -2 5.82 0.89
0 6 -2 8.13 1.05
0 6 -2 8.7 0.98
0 5 -2 15.63 1.24
0 5 -2 17.79 1.71
0 5 -2 15.61 1.23
0 -4 2 34.85 2.25
0 -4 2 35.51 2.24
0 4 -2 34.69 2.32
0 4 -2 34.81 2.39
0 4 -2 33.1 2.15
0 4 -2 32.3 2.14
0 -3 2 252.23 16.4
0 -3 2 262.35 16.4
0 3 -2 275.05 15.48
0 3 -2 278.11 15.48
0 3 -2 274.56 16.43
0 -2 2 12.22 0.82
0 -2 2 11.98 0.93
0 -2 2 11.79 0.97
0 2 -2 11.8 0.97
0 2 -2 10.99 0.82
0 2 -2 11.63 0.87
0 2 -2 11.51 0.87
0 2 -2 11.78 0.95
0 -1 2 252.81 14.5
0 -1 2 255.91 14.03
0 -1 2 267.38 14.88
0 -1 2 257.82 14.88
0 1 -2 230.19 14.03
0 1 -2 233.29 14.87
0 1 -2 232.64 14.49
0 1 -2 220.59 14.02
0 0 2 27.55 1.67
0 0 2 26.69 1.78
0 0 2 28.23 1.78
0 0 2 26.47 1.67
0 0 -2 25.97 1.66
0 0 -2 27.89 1.77
0 0 -2 27.98 1.74
0 0 -2 27.1 1.67
0 1 2 219.72 13.43
0 1 2 225.41 12.98
0 1 2 225.82 13.43
0 1 2 218.16 13.92
0 1 2 224.01 14.25
0 1 2 221.13 14.25
0 -1 -2 253.13 14.25
0 -1 -2 248.82 13.93
0 -1 -2 253.57 12.99
0 -1 -2 251.18 14.25
0 2 2 11.3 0.84
0 2 2 10.84 0.84
0 2 2 10.74 0.84
0 2 2 11.62 0.87
0 -2 -2 11.96 0.79
0 -2 -2 12.26 0.86
0 -2 -2 11.81 0.79
0 3 2 279.87 15.21
0 3 2 269.77 16.13
0 3 2 277.73 16.52
0 -3 -2 258.32 16.13
0 4 2 34.95 2.27
0 4 2 34.03 2.19
0 5 2 17.3 1.57
0 6 2 8.72 0.77
0 6 2 9.29 1.26
0 6 2 8.15 0.77
0 7 2 6.61 0.82
0 7 2 6.27 0.74
0 8 2 6.18 0.84
-1 8 -2 0.89 0.83
-1 7 -2 25.88 1.97
-1 6 -2 4.7 0.79
-1 6 -2 4.71 0.78
1 -5 2 17.97 1.4
1 -5 2 16.73 1.37
-1 5 -2 22.43 1.45
-1 4 -2 27.2 2.06
-1 4 -2 26.46 1.8
-1 4 -2 28.01 1.95
-1 4 -2 26.32 1.79
-1 3 -2 72.96 4.28
-1 3 -2 70.4 4.23
-1 3 -2 71.25 4.52
-1 3 -2 70.26 4.23
1 -2 2 3.33 0.47
1 -2 2 2.86 0.39
1 -2 2 2.72 0.52
1 -2 2 3.05 0.53
-1 2 -2 4.52 0.58
-1 2 -2 4.43 0.47
-1 2 -2 3.99 0.57
-1 2 -2 3.86 0.54
-1 2 -2 4.23 0.5
-1 2 -2 4.85 0.58
1 -1 2 66.81 4.35
1 -1 2 68.38 4.49
1 -1 2 69.14 4.23
1 -1 2 66.3 4.22
1 -1 2 66.21 4.48
-1 1 -2 74.78 4.23
-1 1 -2 75.82 4.5
-1 1 -2 77.64 4.12
-1 1 -2 76.36 4.24
-1 1 -2 77.69 4.36
1 0 2 161.2 9.44
1 0 2 164.94 9.44
1 0 2 163.38 9.09
1 0 2 162.35 10.01
-1 0 -2 162 10.01
-1 0 -2 163.33 9.44
-1 0 -2 167.71 10.02
-1 0 -2 164.72 9.09
-1 0 -2 159.54 9.44
1 1 2 75.05 4.39
1 1 2 73.52 4.11
1 1 2 73.89 4.11
1 1 2 72.81 4.32
1 1 2 74.66 4.39
-1 -1 -2 66.76 4.31
-1 -1 -2 65.6 4.37
-1 -1 -2 65.34 4.37
1 2 2 3.72 0.51
1 2 2 4.59 0.42
1 2 2 4.32 0.42
-1 -2 -2 2.82 0.46
1 3 2 68.89 4.25
1 3 2 71.1 4.09
1 4 2 26.85 1.7
1 4 2 26.69 1.86
1 5 2 24.74 1.97
1 6 2 5.94 1.06
1 8 2 0.35 0.55
-2 8 -2 3.04 0.98
-2 7 -2 8.09 1.1
2 -6 2 17.84 1.49
-2 6 -2 24.18 1.74
-2 6 -2 21.22 1.66
2 -5 2 9.75 1.03
2 -5 2 9.72 1.06
-2 5 -2 9.29 1.1
-2 5 -2 9.88 1.06
-2 5 -2 11.44 1.3
2 -4 2 35.62 2.38
2 -4 2 33.91 2.34
-2 4 -2 34.34 2.39
-2 4 -2 33.01 2.23
-2 4 -2 32.6 2.22
-2 4 -2 34.21 2.41
2 -3 2 17.49 1.29
2 -3 2 17.01 1.3
2 -3 2 16.77 1.08
-2 3 -2 14.85 1.3
-2 3 -2 13.19 1.17
-2 3 -2 14.35 1.29
-2 3 -2 12.8 1.19
2 -2 2 157.08 8.38
2 -2 2 152.46 8.64
2 -2 2 157.44 8.93
2 -2 2 154.11 8.93
-2 2 -2 132.95 8.91
-2 2 -2 129.21 8.39
-2 2 -2 133.54 8.39
-2 2 -2 135.14 8.19
2 -1 2 103.89 6.15
2 -1 2 106.74 6.55
2 -1 2 96.3 5.95
2 -1 2 102.21 6.35
2 -1 2 99.88 6.15
2 -1 2 104.86 6.54
-2 1 -2 111.68 6.17
-2 1 -2 107.84 6.54
-2 1 -2 110.53 6.16
2 0 2 145.43 8.59
2 0 2 146.69 8.6
2 0 2 149.19 8.28
-2 0 -2 152.9 9.12
-2 0 -2 147.15 8.59
-2 0 -2 150.87 8.91
-2 0 -2 146.23 8.27
-2 0 -2 147.9 8.6
-2 0 -2 147.43 9.12
2 1 2 110.79 6.38
2 1 2 107.12 6.38
2 1 2 102.78 6.26
2 1 2 107.95 6
2 1 2 105.17 6
-2 -1 -2 101.04 6.37
-2 -1 -2 101.47 6.37
-2 -1 -2 97.08 5.96
-2 -1 -2 96.56 5.96
-2 -1 -2 102.28 5.96
2 2 2 123.33 8.24
2 2 2 127.56 8.39
2 2 2 130.85 8.39
-2 -2 -2 153.14 8.36
-2 -2 -2 149.96 8.36
2 3 2 12.83 0.99
2 4 2 33.98 2.22
2 4 2 33.38 2.15
2 5 2 10.55 1.31
2 6 2 25.09 2.14
-3 8 -2 -0.05 0.94
-3 7 -2 24.14 1.99
3 -6 2 4.2 0.73
-3 6 -2 4.63 0.87
3 -5 2 78.32 4.84
3 -5 2 81.85 4.87
-3 5 -2 69.98 4.61
-3 5 -2 68.23 4.6
3 -4 2 1.42 0.36
3 -4 2 0.75 0.54
3 -4 2 1.49 0.58
-3 4 -2 1.11 0.62
-3 4 -2 1.89 0.75
-3 4 -2 0.94 0.56
-3 4 -2 0.63 0.53
3 -3 2 202.53 13.09
3 -3 2 201.07 13.49
3 -3 2 210.16 13.51
-3 3 -2 229.09 12.75
-3 3 -2 223.11 12.44
-3 3 -2 232.62 13.54
-3 3 -2 234.41 12.76
3 -2 2 6.3 0.74
3 -2 2 6.77 0.83
3 -2 2 6.26 0.91
3 -2 2 6.78 0.78
3 -2 2 6.66 0.75
-3 2 -2 8.76 0.96
-3 2 -2 8.15 0.84
-3 2 -2 7.27 0.82
-3 2 -2 8.58 0.92
3 -1 2 440.11 27.32
3 -1 2 456.53 26.43
3 -1 2 428.34 25.54
3 -1 2 453.39 26.43
3 -1 2 456.76 28.02
-3 1 -2 473.78 26.44
-3 1 -2 464.89 25.55
-3 1 -2 466.75 26.44
-3 1 -2 463.59 28.02
-3 1 -2 487.81 28.04
3 0 2 196.44 11.11
3 0 2 198.82 11.79
3 0 2 186.72 11.1
3 0 2 182.96 10.69
3 0 2 187.77 11.78
-3 0 -2 190.37 11.78
-3 0 -2 191.07 10.7
-3 0 -2 188.54 11.09
-3 0 -2 202.21 11.79
-3 0 -2 187.51 11.1
3 1 2 457.59 27.18
3 1 2 446.86 25.62
3 1 2 440.56 27.17
3 1 2 447.54 24.74
3 1 2 448.01 25.63
3 1 2 447.21 26.56
-3 -1 -2 429.07 27.16
-3 -1 -2 446.67 27.17
-3 -1 -2 450.53 25.6
3 2 2 7.91 0.76
3 2 2 7.47 0.61
3 2 2 7.36 0.78
3 2 2 7.8 0.6
-3 -2 -2 6.75 0.68
-3 -2 -2 7.7 0.71
3 3 2 231.5 13.9
3 3 2 224.14 13.67
3 4 2 0.65 0.42
3 5 2 67.47 4.12
3 5 2 66.31 4.12
3 6 2 3.95 0.97
-4 8 -2 4.26 1.16
4 -7 2 6.82 0.88
-4 7 -2 7.17 1.18
4 -6 2 23.13 1.89
-4 6 -2 23.27 1.91
4 -5 2 30.59 2.12
4 -5 2 31.92 2.44
-4 5 -2 35.77 2.39
-4 5 -2 37.44 2.42
4 -4 2 19.82 1.56
4 -4 2 19.35 1.77
4 -4 2 18.94 1.81
-4 4 -2 25.5 1.9
-4 4 -2 26.51 1.92
-4 4 -2 25.78 1.77
-4 4 -2 24.02 1.74
4 -3 2 142.31 8.13
4 -3 2 141.06 8.44
4 -3 2 138.06 8.43
4 -3 2 138.46 7.85
4 -3 2 133.57 7.75
-4 3 -2 125.66 7.74
-4 3 -2 132.08 8.42
-4 3 -2 123.88 7.91
-4 3 -2 128.98 7.92
4 -2 2 95.26 6.14
4 -2 2 91.13 5.8
4 -2 2 99.2 6.37
4 -2 2 90.59 5.93
4 -2 2 93.51 6.34
-4 2 -2 111.22 6.4
-4 2 -2 106.86 5.99
-4 2 -2 111.26 5.86
-4 2 -2 104.52 5.99
4 -1 2 251.04 14.94
4 -1 2 258.26 15.87
4 -1 2 260.35 14.95
4 -1 2 249.43 14.45
-4 1 -2 254.58 15.86
-4 1 -2 269.28 14.97
-4 1 -2 267.29 14.96
-4 1 -2 252.48 14.45
4 0 2 635.59 36.07
4 0 2 638.5 37.36
4 0 2 659.82 37.37
4 0 2 660.77 39.61
-4 0 -2 652.39 36.08
-4 0 -2 637.35 39.6
-4 0 -2 653.73 37.36
-4 0 -2 662.37 37.36
4 1 2 256.79 14.79
4 1 2 264.63 15.71
4 1 2 257.58 14.8
4 1 2 254.11 14.28
-4 -1 -2 241.39 15.68
-4 -1 -2 258.15 15.7
-4 -1 -2 259.23 14.77
4 2 2 103.31 5.84
4 2 2 101.09 6.14
4 2 2 107.58 6.23
4 2 2 105.38 5.84
-4 -2 -2 89.04 6.18
-4 -2 -2 91.7 6.19
4 3 2 117.78 7.66
4 3 2 117.45 7.27
4 3 2 130.06 7.75
4 3 2 121.29 7.26
-4 -3 -2 133.48 7.68
-4 -3 -2 132.71 7.68
4 4 2 25.09 1.63
4 4 2 23.67 1.75
4 5 2 35.86 2.4
4 6 2 24.46 2.08
5 -7 2 1.21 0.78
-5 7 -2 0.92 0.96
5 -6 2 8.74 1.15
5 -5 2 3.29 0.89
-5 5 -2 3.64 0.88
-5 5 -2 3.33 0.89
5 -4 2 76.87 5.2
5 -4 2 81.45 5.24
-5 4 -2 80.58 4.93
-5 4 -2 78.75 4.92
-5 4 -2 77.61 4.89
-5 4 -2 81.41 5.26
5 -3 2 170.21 10.16
5 -3 2 165.12 9.48
5 -3 2 163.31 10.14
5 -3 2 167.32 9.81
-5 3 -2 159.56 10.15
-5 3 -2 160.97 9.55
-5 3 -2 153.1 9.3
-5 3 -2 152.32 9.54
5 -2 2 58.55 4.14
5 -2 2 57.9 3.83
5 -2 2 62.83 4.14
5 -2 2 56.64 3.77
-5 2 -2 67.39 3.9
-5 2 -2 65.99 3.8
-5 2 -2 65.11 3.9
-5 2 -2 65.53 4.15
5 -1 2 1.94 0.56
5 -1 2 2.55 0.66
5 -1 2 2.75 0.55
5 -1 2 2.29 0.56
-5 1 -2 5.19 0.7
-5 1 -2 5.02 0.75
5 0 2 89.51 5.26
5 0 2 86.16 5.6
5 0 2 86.7 5.24
5 0 2 86.46 5.05
-5 0 -2 88.22 5.24
-5 0 -2 86.42 5.05
-5 0 -2 86.45 5.59
-5 0 -2 89.04 5.59
-5 0 -2 88.73 5.25
5 1 2 5.81 0.65
5 1 2 5.38 0.67
5 1 2 5.79 0.7
5 1 2 6.83 0.9
5 2 2 67.33 4.01
5 2 2 64.67 3.74
5 2 2 62.52 3.75
-5 -2 -2 55.34 3.95
-5 -2 -2 60.18 3.98
5 3 2 145.27 9.32
5 3 2 152.56 8.89
5 3 2 153.07 9.45
5 3 2 150.32 8.9
-5 -3 -2 157.6 9.41
-5 -3 -2 158.27 9.41
5 4 2 78.42 4.81
5 4 2 76.15 4.52
5 4 2 76.82 4.51
5 4 2 75.04 4.83
5 5 2 3.18 0.45
5 5 2 3.79 0.7
6 -7 2 7.83 1.15
-6 7 -2 7.12 1.33
6 -6 2 2.19 0.91
-6 6 -2 0.8 0.88
6 -5 2 4.34 0.95
-6 5 -2 1.38 0.84
6 -4 2 29 2.24
6 -4 2 31.29 2.52
6 -4 2 31.79 2.51
-6 4 -2 34.04 2.4
-6 4 -2 33.52 2.48
-6 4 -2 33.69 2.41
-6 4 -2 32.31 2.54
6 -3 2 72.72 4.49
6 -3 2 72.25 4.13
6 -3 2 74.89 4.3
-6 3 -2 60.65 4.17
-6 3 -2 61.8 4.11
-6 3 -2 62.87 4.19
-6 3 -2 60.01 4.46
6 -2 2 1.63 0.64
6 -2 2 1.6 0.72
6 -2 2 2.08 0.61
-6 2 -2 2.38 0.64
-6 2 -2 2.71 0.67
-6 2 -2 2.75 0.64
-6 2 -2 2.45 0.78
6 -1 2 160.15 9.33
6 -1 2 158.41 9.91
6 -1 2 155.03 9.32
6 -1 2 142.71 8.98
-6 1 -2 166.96 9.34
-6 1 -2 156.27 9.31
-6 1 -2 163.27 9.02
-6 1 -2 159.69 9.9
6 0 2 0.86 0.48
6 0 2 0.24 0.62
6 0 2 0.81 0.53
6 0 2 0.61 0.53
-6 0 -2 0.48 0.61
-6 0 -2 0.84 0.5
-6 0 -2 0.84 0.55
-6 0 -2 1.22 0.54
6 1 2 161.87 9.21
6 1 2 157.69 9.22
6 1 2 158.72 8.88
6 1 2 163.38 9.8
-6 -1 -2 154.69 9.78
-6 -1 -2 145.55 9.76
-6 -1 -2 155.11 9.17
6 2 2 2.48 0.53
6 2 2 2.67 0.61
6 2 2 2.65 0.54
6 2 2 2.7 0.58
-6 -2 -2 1.09 0.53
-6 -2 -2 0.7 0.56
6 3 2 58.16 3.87
6 3 2 59.38 3.89
6 3 2 61.82 4.16
6 3 2 59.59 4.13
-6 -3 -2 70.94 4.11
-6 -3 -2 74.38 4.15
6 4 2 30.15 1.96
6 4 2 30.95 2.11
6 4 2 30.13 2.22
6 4 2 29.02 1.97
6 5 2 0.63 0.46
6 5 2 0.69 0.65
6 5 2 1.23 0.47
6 6 2 1.23 0.5
6 6 2 1.23 0.5
6 7 2 6.47 0.83
6 7 2 7.04 0.84
7 -7 2 0.33 0.93
-7 7 -2 0.7 1.04
7 -6 2 22.44 2.03
-7 6 -2 19.79 2.06
7 -5 2 4.92 1.08
-7 5 -2 5.34 1.09
7 -4 2 12.39 1.38
7 -4 2 13.05 1.6
-7 4 -2 17.64 1.59
-7 4 -2 18.54 1.79
7 -3 2 1.14 0.62
7 -3 2 0.99 0.64
7 -3 2 1.38 0.79
-7 3 -2 2.07 0.76
-7 3 -2 1.32 0.82
-7 3 -2 2.03 0.72
-7 3 -2 1.61 0.72
7 -2 2 65.13 3.99
7 -2 2 61.81 4.38
7 -2 2 62.32 4.06
-7 2 -2 63.38 4.37
-7 2 -2 64.56 4.1
-7 2 -2 67.76 4.03
-7 2 -2 67.47 4.11
7 -1 2 95.39 5.67
7 -1 2 90.72 6.02
7 -1 2 90.63 5.47
7 -1 2 88.74 5.66
-7 1 -2 98.5 5.68
-7 1 -2 87.39 5.45
-7 1 -2 97.14 6.07
-7 1 -2 94.33 5.68
7 0 2 242.98 13.99
7 0 2 237.79 13.48
7 0 2 246.76 13.98
7 0 2 233.18 14.82
-7 0 -2 243.44 13.5
-7 0 -2 237.07 14.82
-7 0 -2 231.45 13.94
7 1 2 90.28 5.63
7 1 2 92.47 5.62
7 1 2 91.38 5.41
7 1 2 92.67 5.97
-7 -1 -2 93.32 5.57
-7 -1 -2 92.46 5.97
-7 -1 -2 97.6 6.01
-7 -1 -2 92.97 5.97
7 2 2 63.21 3.95
7 2 2 67.23 4.25
7 2 2 60.03 3.95
7 2 2 62.41 3.82
-7 -2 -2 62.1 4.2
-7 -2 -2 69.89 4.26
7 3 2 1.41 0.68
7 3 2 1.38 0.58
7 3 2 1.22 0.57
7 3 2 2.49 0.59
-7 -3 -2 1.11 0.58
-7 -3 -2 1.09 0.56
7 4 2 14.76 1.23
7 4 2 16.5 1.27
7 4 2 15.92 1.48
-7 -4 -2 12.54 1.17
-7 -4 -2 12.65 1.16
7 5 2 5.67 0.78
7 5 2 5.88 0.97
7 5 2 5.64 0.76
7 6 2 17.66 1.48
7 6 2 21.42 1.52
7 7 2 0.5 0.61
8 -7 2 11.21 1.58
-8 7 -2 13.21 1.77
8 -6 2 1.17 0.98
-8 6 -2 2.68 1.11
8 -5 2 8.74 1.33
-8 5 -2 9.42 1.36
8 -4 2 76.5 5.15
8 -4 2 81.09 5.33
8 -4 2 81.42 5.61
-8 4 -2 86.53 5.3
-8 4 -2 87.94 5.62
8 -3 2 29.04 2.04
8 -3 2 26.03 2.22
-8 3 -2 24.82 2.11
-8 3 -2 26.28 2.1
-8 3 -2 27.98 2.2
-8 3 -2 25.13 2.24
8 -2 2 5.56 0.89
8 -2 2 5.93 1.04
8 -2 2 7.01 0.96
-8 2 -2 3.95 0.99
-8 2 -2 3.35 0.81
-8 2 -2 4.12 0.91
-8 2 -2 4.28 0.89
8 -1 2 3.43 0.77
8 -1 2 2.52 0.64
8 -1 2 3.01 0.75
8 -1 2 2.5 0.78
-8 1 -2 0.88 0.78
-8 1 -2 1.07 0.64
-8 1 -2 1.93 0.67
8 0 2 281.8 15.99
8 0 2 270.37 16.96
8 0 2 270.36 15.43
8 0 2 268.33 15.99
-8 0 -2 267.54 16.94
-8 0 -2 278.42 15.44
-8 0 -2 276.28 15.97
8 1 2 0.7 0.67
8 1 2 1.74 0.67
8 1 2 0.62 0.56
8 1 2 1.35 0.62
-8 -1 -2 2.81 0.76
-8 -1 -2 2.02 0.73
-8 -1 -2 2.42 0.6
8 2 2 3.35 0.78
8 2 2 3.37 0.78
8 2 2 3.85 0.69
8 2 2 4.11 0.75
-8 -2 -2 5.44 0.87
-8 -2 -2 5.69 0.86
8 3 2 23.96 2.07
8 3 2 24.85 1.89
8 3 2 25.21 1.93
8 3 2 26.38 1.86
8 3 2 24.17 2
-8 -3 -2 28.54 2.06
-8 -3 -2 27.29 2
8 4 2 85.44 5.41
8 4 2 81.99 5.08
8 4 2 85.44 5.08
-8 -4 -2 79.95 5.28
8 5 2 8.96 1.14
8 5 2 9 1.08
8 6 2 1.6 0.71
8 7 2 11.39 1.22
-9 7 -2 0.16 1.17
9 -6 2 5.21 1.27
-9 6 -2 5.22 1.38
9 -5 2 0.9 1.03
-9 5 -2 1 1.1
9 -4 2 12.63 1.51
9 -4 2 11.81 1.59
-9 4 -2 14.1 1.64
-9 4 -2 12.77 1.71
9 -3 2 78.29 5.44
9 -3 2 77.28 4.96
-9 3 -2 81.17 5.49
-9 3 -2 81.59 5.11
9 -2 2 22.3 1.76
9 -2 2 22.29 2
9 -2 2 21.41 1.76
-9 2 -2 17.15 1.96
-9 2 -2 16.95 1.72
-9 2 -2 16.98 1.7
-9 2 -2 17.84 1.69
9 -1 2 22.91 1.93
9 -1 2 22.53 2.18
9 -1 2 21.53 1.83
-9 1 -2 27.51 2.26
-9 1 -2 27.89 1.97
-9 1 -2 29.42 2.05
9 0 2 92.85 5.73
9 0 2 95.86 5.73
9 0 2 88.54 6.06
9 0 2 91.19 5.48
-9 0 -2 90.59 5.68
-9 0 -2 94.44 5.52
-9 0 -2 94 6.1
-9 0 -2 90.41 6.08
9 1 2 26.92 2
9 1 2 28.51 2
9 1 2 26.85 2.13
9 1 2 29.35 1.87
-9 -1 -2 21.81 2.07
-9 -1 -2 19.82 1.97
-9 -1 -2 22.29 1.88
9 2 2 18.03 1.56
9 2 2 16.3 1.55
9 2 2 16.09 1.43
9 2 2 16.17 1.67
-9 -2 -2 20.26 1.68
-9 -2 -2 20.17 1.75
9 3 2 82.46 4.98
9 3 2 83.9 5.29
9 3 2 78.95 4.97
9 3 2 79.4 4.81
-9 -3 -2 74.09 5.19
9 4 2 14.29 1.53
9 4 2 12.28 1.33
9 4 2 12.3 1.3
-9 -4 -2 10.67 1.3
9 5 2 1.16 0.74
9 6 2 4.39 0.9
9 7 2 1.28 0.79
10 -6 2 10.56 1.61
-10 6 -2 11.67 1.74
10 -5 2 6.61 1.38
-10 5 -2 6.7 1.38
10 -4 2 5.78 1.23
-10 4 -2 10.09 1.63
-10 4 -2 11.37 1.67
-10 4 -2 10.63 1.49
10 -3 2 3.47 0.98
10 -3 2 3.57 1.15
-10 3 -2 4.69 1.12
-10 3 -2 4.54 1.19
10 -2 2 72.03 4.61
10 -2 2 74.17 5.1
10 -2 2 72.99 4.72
-10 2 -2 72.89 4.74
-10 2 -2 73.07 5.08
10 -1 2 52.55 3.41
10 -1 2 52.13 3.55
10 -1 2 52.28 3.82
-10 1 -2 50.24 3.77
-10 1 -2 52.37 3.79
-10 1 -2 52.13 3.42
10 0 2 60.95 4.29
10 0 2 64.58 4.03
10 0 2 59.68 4
10 0 2 59.09 3.79
-10 0 -2 63.03 3.89
-10 0 -2 61.9 3.96
-10 0 -2 56.4 4.21
-10 0 -2 59.74 4.23
10 1 2 53.42 3.41
10 1 2 46.8 3.56
10 1 2 49.16 3.38
10 1 2 48.88 3.2
-10 -1 -2 52.22 3.33
-10 -1 -2 48.57 3.59
10 2 2 70.2 4.54
10 2 2 66.74 4.77
10 2 2 72.37 4.33
-10 -2 -2 71.99 4.77
10 3 2 5.67 0.92
10 3 2 4.39 0.96
-10 -3 -2 3.51 0.93
10 4 2 9.79 1.3
10 4 2 10.85 1.32
10 5 2 8.31 1.11
-10 -5 -2 6.82 0.82
10 6 2 12.01 1.42
11 -6 2 7.43 1.48
-11 6 -2 6.45 1.66
11 -5 2 10.28 1.69
-11 5 -2 13.22 1.81
11 -4 2 4.79 1.31
-11 4 -2 5.9 1.5
-11 4 -2 6.85 1.53
-11 4 -2 4.81 1.31
11 -3 2 18.06 2.1
-11 3 -2 20.85 2.13
-11 3 -2 18.51 2.13
-11 3 -2 18.06 1.87
11 -2 2 11.72 1.45
11 -2 2 10.11 1.52
-11 2 -2 11.16 1.67
-11 2 -2 12.21 1.51
-11 2 -2 12.43 1.7
11 -1 2 5.9 1.14
-11 1 -2 10.49 1.47
-11 1 -2 12.4 1.54
-11 1 -2 10.35 1.46
11 0 2 16.67 1.86
11 0 2 19.32 1.82
11 0 2 19.64 1.7
-11 0 -2 18.05 1.89
-11 0 -2 18.56 1.88
11 1 2 12.38 1.65
11 1 2 12.84 1.38
11 1 2 12.12 1.5
11 2 2 11.76 1.34
11 2 2 11.53 1.44
11 2 2 11.32 1.53
-11 -2 -2 9.72 1.4
11 3 2 16.81 1.61
11 3 2 16.88 1.65
-11 -3 -2 15.27 1.71
11 4 2 4.51 1.04
11 4 2 5.95 1.09
-11 -4 -2 5.34 1.06
11 5 2 11.13 1.4
-11 -5 -2 10.21 1.27
11 6 2 6.14 1.16
12 -5 2 3.26 1.33
-12 5 -2 0.87 1.29
12 -4 2 21.55 2.21
-12 4 -2 20.3 2.49
-12 4 -2 19.02 2.44
-12 4 -2 16.73 2.14
12 -3 2 19.62 2.16
-12 3 -2 17.55 2.12
-12 3 -2 17.66 2
-12 3 -2 15.57 2.09
12 -2 2 3.64 1.13
-12 2 -2 3.16 1.31
-12 2 -2 2.83 1.26
12 -1 2 8.1 1.42
12 -1 2 8.85 1.39
12 -1 2 9.5 1.27
-12 1 -2 10.15 1.55
-12 1 -2 8.92 1.5
12 0 2 61.55 4.4
12 0 2 59.16 4.1
12 0 2 61.59 3.97
-12 0 -2 60.55 4.43
12 1 2 9.34 1.35
12 1 2 9.08 1.46
12 1 2 10.76 1.3
-12 -1 -2 7.94 1.36
12 2 2 2.72 0.95
12 2 2 3.25 1
-12 -2 -2 2.03 1.02
12 3 2 14.68 1.77
12 3 2 18.06 1.67
-12 -3 -2 18.45 1.9
12 4 2 17.49 1.87
-12 -4 -2 20.64 1.96
12 5 2 0.96 0.93
-12 -5 -2 2.34 0.9
13 -5 2 9.11 1.74
13 -4 2 3.39 1.42
13 -3 2 2.96 1.34
-13 3 -2 1.36 1.41
-13 3 -2 1.6 1.42
13 -2 2 16.35 2.01
-13 2 -2 11.09 1.8
-13 2 -2 10.07 1.76
13 -1 2 2.38 1.23
-13 1 -2 6.47 1.42
13 0 2 2.71 1
13 0 2 2.15 1.1
13 0 2 2.98 1.21
-13 0 -2 1.91 1.13
13 1 2 4.89 1.22
13 1 2 6.43 1.16
13 1 2 5.37 1.32
-13 -1 -2 3.68 1.26
13 2 2 10.65 1.52
13 2 2 12.11 1.52
-13 -2 -2 12.44 1.68
13 3 2 1.23 0.91
13 3 2 2.71 1.13
-13 -3 -2 3.19 1.16
13 4 2 4.87 1.22
-13 -4 -2 3.8 1.17
13 5 2 9.67 1.47
-13 -5 -2 9.59 1.33
14 -4 2 13.82 2.03
14 -3 2 16.02 2.17
-14 3 -2 11.55 2.01
14 -2 2 25.75 2.62
-14 2 -2 20.13 2.58
14 -1 2 13.82 1.97
-14 1 -2 13.7 2.04
14 0 2 33.55 2.96
-14 0 -2 32.7 3.05
14 1 2 12.06 1.81
14 1 2 11.6 1.69
-14 -1 -2 12.6 1.83
14 2 2 23.11 2.25
-14 -2 -2 21.84 2.39
14 3 2 9.97 1.58
-14 -3 -2 13.69 1.78
14 4 2 12.59 1.71
-14 -4 -2 14.81 1.85
15 -3 2 3.84 1.55
-15 3 -2 3.37 1.74
15 -2 2 -0.31 1.28
-15 2 -2 2.94 1.59
15 -1 2 9.57 1.77
-15 1 -2 9.59 1.83
15 0 2 16.9 2.26
-15 0 -2 15.77 2.12
15 1 2 11.35 1.74
-15 -1 -2 10.6 1.82
15 2 2 2.39 1.25
-15 -2 -2 0.15 1.21
15 3 2 2.27 1.24
-15 -3 -2 4.08 1.36
16 -2 2 2.2 1.54
-16 2 -2 2.07 1.72
16 -1 2 24.94 2.75
-16 1 -2 19.75 2.74
16 0 2 3.34 1.53
-16 0 -2 2.98 1.57
-16 -1 -2 23.03 2.64
16 2 2 2.6 1.34
-16 -2 -2 1.39 1.36
-17 0 -2 5.17 1.83
-17 -1 3 6.41 1.78
-17 0 3 0.47 1.52
17 0 -3 1.76 1.51
-17 1 3 10.58 2.04
17 -1 -3 8.01 1.85
-16 -3 3 -0.01 1.28
16 3 -3 1.04 1.3
-16 -2 3 7.53 1.68
16 2 -3 5.66 1.53
-16 -1 3 6.88 1.71
-16 0 3 11.4 2.05
16 0 -3 12.18 2.03
-16 1 3 5.61 1.78
16 -1 -3 7.67 1.78
-16 2 3 7.69 1.93
16 -2 -3 7.95 1.82
-16 3 3 1.76 1.57
16 -3 -3 0.98 1.47
-15 -4 3 12.31 1.86
15 4 -3 10.86 1.73
-15 -3 3 6.15 1.49
15 3 -3 6.84 1.46
-15 -2 3 4.1 1.43
15 2 -3 5.65 1.41
-15 -1 3 3.47 1.42
15 1 -3 2.81 1.32
-15 0 3 7.09 1.69
15 0 -3 6.16 1.48
-15 1 3 5.44 1.52
15 -1 -3 5.21 1.54
-15 2 3 5.12 1.67
15 -2 -3 4.16 1.54
-15 3 3 9.51 1.98
15 -3 -3 7.33 1.75
15 -4 -3 11.39 2.04
-14 -4 3 24.39 2.54
14 4 -3 29.76 2.57
-14 -3 3 21.07 2.33
14 3 -3 21.87 2.17
-14 -2 3 1.26 1.2
14 2 -3 2.67 1.14
-14 -1 3 14.98 2.16
14 1 -3 22.68 2.34
14 1 -3 19.89 2.09
-14 0 3 3.14 1.35
14 0 -3 2.54 1.18
-14 1 3 20.25 2.38
14 -1 -3 17.43 2.27
-14 2 3 2.45 1.34
14 -2 -3 0.62 1.26
-14 3 3 25.48 2.83
14 -3 -3 25.52 2.71
14 -4 -3 29.24 2.92
-13 -5 3 4.84 1.18
13 5 -3 5.24 1.3
-13 -4 3 4.56 1.31
13 4 -3 6.19 1.3
-13 -3 3 1.09 1.05
13 3 -3 1.74 1.08
-13 -2 3 16.01 2.08
13 2 -3 18.82 1.91
-13 -1 3 16.74 2.01
13 1 -3 17.06 1.88
13 1 -3 16.28 2.02
-13 0 3 13.48 1.82
13 0 -3 13.37 1.72
13 0 -3 12.07 1.76
-13 1 3 16.81 2.18
13 -1 -3 19.76 2.21
-13 2 3 16.37 2.21
13 -2 -3 18.3 2.15
-13 3 3 3.48 1.45
13 -3 -3 2.45 1.18
-13 4 3 8.59 1.59
13 -4 -3 5.19 1.47
-13 5 3 4.59 1.52
13 -5 -3 3.31 1.41
-12 -5 3 6.77 1.19
12 5 -3 5.18 1.21
-12 -4 3 2.29 1.05
12 4 -3 2.45 1.04
-12 -3 3 16.21 1.82
12 3 -3 17.02 1.82
-12 -2 3 19.33 1.98
12 2 -3 17.83 1.88
12 2 -3 18.71 1.85
12 2 -3 17.58 1.72
-12 -1 3 18.13 1.96
12 1 -3 17.03 1.74
12 1 -3 17.35 1.98
12 1 -3 16.27 1.7
-12 0 3 14.33 1.75
12 0 -3 14.66 1.56
12 0 -3 15.33 1.78
12 0 -3 14.94 1.61
-12 1 3 14.16 2.03
12 -1 -3 17.82 1.96
12 -1 -3 19.98 1.92
12 -1 -3 19.56 1.78
-12 2 3 19.4 2.03
-12 2 3 18.71 2.24
12 -2 -3 21.74 2.22
-12 3 3 19.83 2.06
-12 3 3 18.81 2.15
12 -3 -3 17.94 2.14
-12 4 3 2.36 1.26
12 -4 -3 4 1.27
-12 5 3 5.21 1.47
12 -5 -3 6.12 1.44
11 6 -3 1.58 0.99
-11 -5 3 4.85 1.06
11 5 -3 7.44 1.2
-11 -4 3 5.65 1.12
11 4 -3 6.55 1.14
-11 -3 3 56.24 3.78
11 3 -3 51.27 3.54
11 3 -3 47.83 3.5
-11 -2 3 8.3 1.42
11 2 -3 13.91 1.64
11 2 -3 13.43 1.4
11 2 -3 13.43 1.49
-11 -1 3 30.48 2.81
11 1 -3 36.14 2.82
11 1 -3 38.09 2.63
11 1 -3 38.16 2.7
-11 0 3 43.48 3.1
-11 0 3 43.84 3.37
11 0 -3 45.51 3.35
11 0 -3 42.28 3.04
11 0 -3 45.47 3.15
-11 1 3 37.49 2.89
-11 1 3 36.62 2.65
11 -1 -3 33.94 2.62
11 -1 -3 31.75 2.75
11 -1 -3 31.78 2.49
-11 2 3 12.54 1.65
-11 2 3 13.58 1.58
11 -2 -3 7.8 1.37
11 -2 -3 8.05 1.21
-11 3 3 54.84 3.86
-11 3 3 52.82 4.08
11 -3 -3 57.11 4.05
-11 4 3 9.22 1.47
-11 4 3 8.71 1.53
11 -4 -3 6.46 1.35
-11 5 3 5.93 1.42
11 -5 -3 5.43 1.31
-11 6 3 2.42 1.42
11 -6 -3 3.27 1.22
10 6 -3 11.1 1.37
-10 -5 3 9.75 1.41
10 5 -3 15.01 1.53
-10 -4 3 35.43 2.76
10 4 -3 38.64 2.69
-10 -3 3 18.26 1.69
10 3 -3 12.35 1.53
10 3 -3 14.84 1.62
-10 -2 3 4.97 1
10 2 -3 1.16 0.81
10 2 -3 1.29 0.79
10 2 -3 0.19 0.67
-10 -1 3 23.72 2.23
-10 -1 3 24.81 2.03
10 1 -3 27.57 2.11
10 1 -3 25.87 1.99
10 1 -3 27.79 2.08
10 1 -3 27.69 2.28
-10 0 3 81.28 5.79
-10 0 3 90.62 5.46
10 0 -3 86.28 5.86
10 0 -3 86.23 5.46
10 0 -3 85.88 5.31
10 0 -3 93.9 5.52
-10 1 3 26.35 2.01
-10 1 3 28.37 2.32
10 -1 -3 23.59 2.05
10 -1 -3 22.33 2.16
-10 2 3 1.12 0.87
-10 2 3 0.78 0.93
10 -2 -3 4.64 1.1
10 -2 -3 4.47 0.93
-10 3 3 13.75 1.92
-10 3 3 13.78 1.71
10 -3 -3 16.85 1.84
10 -3 -3 17.92 1.66
-10 4 3 42 3.06
-10 4 3 44.79 3.34
10 -4 -3 34.71 3.1
-10 5 3 13.76 1.71
10 -5 -3 9.68 1.53
-10 6 3 11.32 1.69
10 -6 -3 9.86 1.53
9 7 -3 8.71 1.21
9 6 -3 3.3 0.92
-9 -5 3 13.33 1.27
9 5 -3 8.77 1.22
-9 -4 3 22.16 1.84
9 4 -3 20.5 1.78
-9 -3 3 48.61 3.64
9 3 -3 54.81 3.71
9 3 -3 53.73 3.47
9 3 -3 54.75 3.48
-9 -2 3 21.74 1.9
-9 -2 3 21.77 1.94
9 2 -3 20.14 1.78
9 2 -3 20.68 1.87
9 2 -3 21.08 1.75
-9 -1 3 92.8 5.49
-9 -1 3 87.9 5.87
9 1 -3 91.29 5.52
9 1 -3 90.24 5.37
9 1 -3 87.52 5.52
9 1 -3 85.63 5.87
-9 0 3 6.81 1.1
-9 0 3 6.77 0.97
9 0 -3 5.94 0.9
9 0 -3 6.94 1.09
9 0 -3 6.88 0.97
9 0 -3 5.95 0.92
-9 1 3 92.56 6.11
-9 1 3 94.13 5.71
-9 1 3 95.49 5.61
9 -1 -3 87.2 5.69
9 -1 -3 91.79 6.09
-9 2 3 20.88 1.87
-9 2 3 20.3 1.73
-9 2 3 19.57 1.71
-9 2 3 18.87 1.89
9 -2 -3 20.93 1.75
9 -2 -3 21.03 1.97
-9 3 3 56.4 3.81
-9 3 3 55.58 3.56
9 -3 -3 47.37 3.44
9 -3 -3 50.08 3.77
-9 4 3 19.39 2.14
-9 4 3 20.23 1.98
9 -4 -3 22.86 1.96
9 -4 -3 22.32 2.05
-9 5 3 8.8 1.43
9 -5 -3 12.63 1.59
-9 6 3 2.9 1.21
9 -6 -3 2.07 1.03
-9 7 3 6.55 1.51
9 -7 -3 5.93 1.24
8 7 -3 0.15 0.78
8 6 -3 29.72 2.21
-8 -5 3 2.49 0.67
8 5 -3 1.93 0.77
8 4 -3 7.88 1.01
8 4 -3 7.92 0.99
-8 -3 3 42.09 2.95
-8 -3 3 41.29 2.95
8 3 -3 41.8 2.96
8 3 -3 39.51 2.78
8 3 -3 42.43 2.8
-8 -2 3 11.78 1.37
-8 -2 3 13.66 1.43
8 2 -3 12.38 1.37
8 2 -3 14.82 1.37
8 2 -3 14.07 1.3
-8 -1 3 20.84 1.7
-8 -1 3 21.38 1.89
8 1 -3 23.36 1.72
8 1 -3 24.29 1.92
8 1 -3 21.34 1.71
8 1 -3 23.16 1.73
-8 0 3 126.27 8.16
-8 0 3 129.78 7.67
8 0 -3 131.35 7.7
8 0 -3 128.17 8.18
8 0 -3 122.1 7.45
8 0 -3 132.01 7.71
-8 1 3 23 1.72
-8 1 3 22.45 1.85
-8 1 3 23.06 1.67
-8 1 3 21.26 1.67
8 -1 -3 18.22 1.68
8 -1 -3 18.78 1.81
-8 2 3 14.69 1.41
-8 2 3 13.08 1.45
-8 2 3 14.27 1.31
-8 2 3 12.99 1.42
8 -2 -3 11.22 1.47
8 -2 -3 11.81 1.23
8 -2 -3 11.63 1.28
-8 3 3 44.76 2.95
-8 3 3 43.71 3.02
-8 3 3 41.21 3.21
-8 3 3 43.08 3
8 -3 -3 43.47 2.92
8 -3 -3 44.08 2.97
8 -3 -3 42.33 3.18
-8 4 3 6.91 1.08
-8 4 3 8.16 1.25
8 -4 -3 3.84 1.02
8 -4 -3 3.21 1.01
-8 5 3 2.32 0.97
8 -5 -3 2.78 0.91
-8 6 3 31.3 2.59
8 -6 -3 32.13 2.57
-8 7 3 1.07 1.14
8 -7 -3 -0.53 0.9
7 7 -3 12.95 1.39
7 6 -3 8.03 1.01
-7 -5 3 9.69 1.05
7 5 -3 12.99 1.22
7 5 -3 12.95 1.24
-7 -4 3 50.87 3.35
-7 -4 3 48.92 3.33
7 4 -3 47.42 3.19
7 4 -3 51.93 3.22
-7 -3 3 90.19 5.97
-7 -3 3 94.54 5.98
7 3 -3 94.51 5.66
7 3 -3 97.04 5.67
7 3 -3 90.68 6
-7 -2 3 0.63 0.6
-7 -2 3 1.31 0.51
-7 -2 3 0.53 0.61
7 2 -3 1.57 0.56
7 2 -3 1.61 0.63
7 2 -3 1.89 0.63
7 1 -3 25.72 2.03
7 1 -3 25.37 1.87
7 1 -3 25.42 1.86
-7 0 3 117.49 7.69
-7 0 3 121.02 7.24
-7 0 3 125.79 7.26
7 0 -3 120.05 7.71
7 0 -3 121.57 7.26
7 0 -3 120.16 7.04
7 0 -3 123.07 7.26
-7 1 3 25.29 1.92
-7 1 3 25.64 1.89
-7 1 3 24.32 2.05
-7 1 3 25.31 1.84
-7 2 3 1.5 0.64
-7 2 3 1.24 0.7
-7 2 3 1.61 0.67
-7 2 3 1.79 0.69
7 -2 -3 1.36 0.63
7 -2 -3 0.51 0.58
7 -2 -3 0.98 0.64
-7 3 3 95 6.07
-7 3 3 96.3 5.58
-7 3 3 95.96 5.7
-7 3 3 91.78 5.69
7 -3 -3 92.85 5.6
7 -3 -3 85.65 5.53
7 -3 -3 89.06 6.02
-7 4 3 54.56 3.45
-7 4 3 53.42 3.67
-7 4 3 47.55 3.37
-7 4 3 53.09 3.42
7 -4 -3 47.85 3.57
7 -4 -3 51.04 3.39
-7 5 3 12.27 1.38
7 -5 -3 10.13 1.39
7 -5 -3 10.8 1.49
-7 6 3 8.11 1.31
7 -6 -3 11.73 1.41
-7 7 3 14.89 1.82
7 -7 -3 13.82 1.5
6 7 -3 5 0.89
6 6 -3 1.92 0.67
6 6 -3 2.7 0.71
-6 -5 3 7.98 0.77
6 5 -3 8.27 1.04
6 5 -3 8.12 1
-6 -4 3 25.59 1.77
-6 -4 3 26.86 1.78
6 4 -3 20.99 1.79
6 4 -3 21.43 1.72
6 4 -3 21.36 1.69
-6 -3 3 34.9 2.52
-6 -3 3 32.91 2.51
6 3 -3 38 2.4
6 3 -3 36.88 2.54
6 3 -3 38.1 2.39
-6 -2 3 40.26 2.36
-6 -2 3 39.12 2.6
-6 -2 3 41.2 2.36
-6 -2 3 38.42 2.57
6 2 -3 32.25 2.38
6 2 -3 34.29 2.58
6 2 -3 31.57 2.38
-6 -1 3 45.42 3.21
-6 -1 3 46.31 3.46
-6 -1 3 45.14 3.42
6 1 -3 56.66 3.27
6 1 -3 58.62 3.28
6 1 -3 58.39 3.48
-6 0 3 77.87 4.78
-6 0 3 80.06 4.78
-6 0 3 75 5.07
6 0 -3 78.63 5.1
6 0 -3 76.04 4.78
6 0 -3 83.58 4.81
-6 1 3 61.43 3.34
-6 1 3 58.77 3.38
-6 1 3 61.35 3.41
-6 1 3 57.95 3.62
6 -1 -3 44.33 3.24
6 -1 -3 47.63 3.6
6 -1 -3 50.43 3.37
6 -1 -3 47.59 3.35
-6 2 3 34.23 2.42
-6 2 3 31.32 2.32
-6 2 3 33.51 2.42
-6 2 3 33.05 2.6
6 -2 -3 38.9 2.4
6 -2 -3 38.57 2.58
6 -2 -3 40.17 2.41
-6 3 3 38.46 2.46
-6 3 3 39.58 2.66
-6 3 3 38.74 2.48
-6 3 3 36.65 2.44
6 -3 -3 33.57 2.36
6 -3 -3 31.26 2.41
6 -3 -3 35.59 2.63
6 -3 -3 31.66 2.56
-6 4 3 19.99 1.77
-6 4 3 22.57 1.97
-6 4 3 22.83 1.92
-6 4 3 23.28 1.84
6 -4 -3 24.51 1.9
6 -4 -3 25.81 1.94
6 -4 -3 24.54 2.01
-6 5 3 8.16 1.11
6 -5 -3 8.31 1.11
6 -5 -3 8.19 1.25
6 -5 -3 8.53 1.01
-6 6 3 2.73 0.92
6 -6 -3 1.25 0.78
-6 7 3 4.49 1.12
6 -7 -3 4.05 0.81
5 7 -3 1.3 0.68
5 6 -3 7.68 0.92
5 6 -3 6.95 0.93
5 6 -3 6.46 0.87
5 5 -3 13.98 1.24
5 5 -3 13.48 1.18
5 5 -3 14.46 1.23
-5 -4 3 54.68 3.66
-5 -4 3 56.7 3.66
5 4 -3 57.21 3.51
5 4 -3 58.41 3.51
5 4 -3 57.18 3.73
-5 -3 3 51.05 3.36
-5 -3 3 49.38 3.36
5 3 -3 52.94 3.18
5 3 -3 51.6 3.18
5 3 -3 50.68 3.37
-5 -2 3 138.63 8.34
-5 -2 3 142.78 8.35
5 2 -3 131.15 8.33
5 2 -3 127.61 7.84
5 2 -3 127.08 7.84
-5 -1 3 49.99 3.06
-5 -1 3 46.95 3.24
-5 -1 3 53.76 3.3
5 1 -3 50.8 3.07
5 1 -3 47.11 3.25
5 1 -3 45.98 3.06
-5 0 3 72.41 4.42
-5 0 3 73.33 4.72
-5 0 3 73.36 4.43
5 0 -3 74.53 4.44
5 0 -3 73.1 4.72
5 0 -3 72.39 4.42
-5 1 3 48.76 3.36
-5 1 3 50.98 3.19
-5 1 3 47.88 3.16
-5 1 3 47.59 3.07
5 -1 -3 52.78 3.41
5 -1 -3 51.1 3.37
5 -1 -3 51.18 3.16
5 -1 -3 51.87 3.16
5 -1 -3 52.32 3.41
-5 2 3 129.93 7.89
-5 2 3 125.44 7.66
-5 2 3 127.01 8.38
-5 2 3 127.29 7.89
5 -2 -3 138.3 7.68
5 -2 -3 141.05 8.39
5 -2 -3 138.18 8.38
5 -2 -3 139.38 7.86
-5 3 3 52.52 3.29
-5 3 3 54.86 3.52
-5 3 3 52.78 3.29
-5 3 3 50.77 3.24
5 -3 -3 47.92 3.46
5 -3 -3 53.52 3.53
5 -3 -3 49.77 3.25
-5 4 3 60.03 3.71
-5 4 3 60.51 3.69
-5 4 3 57.9 3.67
-5 4 3 60.86 3.92
5 -4 -3 59.04 3.89
5 -4 -3 55.18 3.68
5 -4 -3 56.13 3.69
5 -4 -3 54.4 3.84
-5 5 3 15.27 1.63
-5 5 3 13.91 1.45
-5 5 3 11.81 1.43
5 -5 -3 16.94 1.26
5 -5 -3 16.09 1.48
5 -5 -3 17.73 1.71
-5 6 3 8.44 1.18
5 -6 -3 10.98 1.18
-5 7 3 1.42 0.91
4 8 -3 3.08 0.84
4 7 -3 11.35 1.2
4 6 -3 44.48 2.83
4 6 -3 44.18 2.86
4 5 -3 3.36 0.64
4 5 -3 3.85 0.59
4 5 -3 3.31 0.61
-4 -4 3 54.35 3.58
-4 -4 3 52.89 3.59
4 4 -3 56.53 3.43
4 4 -3 59.73 3.46
4 4 -3 58.49 3.68
-4 -3 3 91.1 5.14
-4 -3 3 88.81 5.12
4 3 -3 75.71 4.82
4 3 -3 77.49 5.13
4 3 -3 77.27 4.82
4 3 -3 75.57 4.81
-4 -2 3 40.54 2.52
-4 -2 3 38.43 2.27
-4 -2 3 39.56 2.53
4 2 -3 35.23 2.35
4 2 -3 32.87 2.33
4 2 -3 35.63 2.49
-4 -1 3 88.88 5.89
-4 -1 3 89.61 5.9
-4 -1 3 90.23 5.54
-4 -1 3 89.49 5.55
4 1 -3 102.75 5.93
4 1 -3 95.19 5.57
4 1 -3 99.76 5.57
-4 0 3 690.61 43.87
-4 0 3 730.39 41.41
-4 0 3 721.08 41.4
4 0 -3 712.77 41.4
4 0 -3 745.83 41.41
4 0 -3 749.29 43.89
4 0 -3 693.75 43.87
-4 1 3 94.65 6
-4 1 3 97.28 5.65
-4 1 3 100.53 5.66
-4 1 3 100.93 5.5
4 -1 -3 88.96 5.99
4 -1 -3 91.92 5.64
4 -1 -3 94.71 6.01
4 -1 -3 90.82 5.62
-4 2 3 35.88 2.57
-4 2 3 36.32 2.4
-4 2 3 36.31 2.36
-4 2 3 35.34 2.42
4 -2 -3 36.96 2.35
4 -2 -3 38.21 2.57
4 -2 -3 40.12 2.59
4 -2 -3 39.38 2.38
-4 3 3 79.57 5.39
-4 3 3 79.23 4.98
-4 3 3 75.26 5.04
-4 3 3 74.67 5.04
4 -3 -3 93 5.39
4 -3 -3 97.99 5.41
4 -3 -3 90.66 5
-4 4 3 57.87 3.58
-4 4 3 60.28 3.82
-4 4 3 60.4 3.59
-4 4 3 56.91 3.6
4 -4 -3 56.57 3.77
4 -4 -3 55.44 3.59
4 -4 -3 54.28 3.59
4 -4 -3 55.61 3.75
-4 5 3 3.83 0.99
-4 5 3 4.74 0.83
-4 5 3 4.59 0.85
4 -5 -3 7.61 0.76
4 -5 -3 8.23 0.94
4 -5 -3 7.75 0.98
-4 6 3 47.85 3.09
-4 6 3 42.71 3.05
4 -6 -3 47.44 3.03
-4 7 3 13.1 1.42
-4 8 3 2.9 1
3 8 -3 8.11 1.06
3 7 -3 4.99 0.83
3 7 -3 6.14 0.9
3 6 -3 9.59 1.02
3 6 -3 11.1 1.08
3 5 -3 13.42 1.13
3 5 -3 13.49 1.16
3 5 -3 13.47 1
-3 -4 3 78.41 4.89
-3 -4 3 76.44 4.88
3 4 -3 79.22 4.66
3 4 -3 78.49 4.8
3 4 -3 79.1 4.65
3 4 -3 77.37 4.95
-3 -3 3 53.62 3.78
-3 -3 3 52.21 3.77
3 3 -3 64.02 3.58
3 3 -3 63.8 3.57
3 3 -3 63.48 3.83
-3 -2 3 55.08 3.39
-3 -2 3 53.46 3.69
-3 -2 3 52.03 3.66
3 2 -3 62.2 3.71
3 2 -3 58.79 3.47
3 2 -3 60.24 3.49
3 2 -3 61.57 3.48
-3 -1 3 76.54 4.96
-3 -1 3 75.84 4.95
-3 -1 3 78.6 5.29
-3 -1 3 82.14 5.29
-3 -1 3 78.39 4.97
3 1 -3 94.81 5.31
3 1 -3 96.04 5
3 1 -3 91.68 4.99
-3 0 3 1000 54.86
-3 0 3 935.81 58.05
-3 0 3 921.59 54.78
-3 0 3 985.85 58.06
3 0 -3 947.73 58.23
3 0 -3 961.44 55.02
3 0 -3 945.28 58.05
3 0 -3 941.76 55
-3 1 3 95.6 5.1
-3 1 3 94.66 5.43
-3 1 3 95.46 5.11
-3 1 3 95.81 4.95
3 -1 -3 80.58 5.41
3 -1 -3 77.92 5.07
3 -1 -3 74.74 5.39
3 -1 -3 78.04 4.92
3 -1 -3 81.37 5.08
-3 2 3 58.92 3.72
-3 2 3 62.56 3.51
-3 2 3 60.4 3.5
-3 2 3 60 3.43
3 -2 -3 55.12 3.72
3 -2 -3 55.57 3.7
3 -2 -3 56.04 3.72
3 -2 -3 52.28 3.43
-3 3 3 67.44 3.92
-3 3 3 66.28 3.67
-3 3 3 65.39 3.65
-3 3 3 66.72 3.67
3 -3 -3 55.17 3.86
3 -3 -3 52.89 3.73
3 -3 -3 54.37 3.85
3 -3 -3 53.54 3.59
-3 4 3 81.48 5.1
-3 4 3 76.45 4.77
-3 4 3 81.3 4.79
-3 4 3 83.16 4.8
3 -4 -3 78.68 4.77
3 -4 -3 78.91 5.04
3 -4 -3 78.39 4.88
3 -4 -3 79.65 5.06
-3 5 3 12.35 1.38
-3 5 3 12.43 1.18
-3 5 3 12.01 1.14
3 -5 -3 12.3 0.93
3 -5 -3 12.06 1.11
3 -5 -3 12.04 1.08
-3 6 3 9.78 1.14
-3 6 3 10.3 1.17
-3 7 3 6.01 0.97
-3 8 3 9.44 1.24
2 8 -3 6.17 0.97
2 7 -3 1.43 0.7
2 6 -3 28.91 2.07
2 6 -3 32.44 2.1
2 5 -3 27.21 1.88
2 5 -3 29.16 1.9
2 4 -3 31.72 2
2 4 -3 31.02 1.98
2 4 -3 31.09 2.14
2 4 -3 30.29 1.98
-2 -3 3 11.84 1
-2 -3 3 12.42 0.97
2 3 -3 10.49 0.9
2 3 -3 10.28 1
2 3 -3 10.62 0.91
-2 -2 3 201.26 10.98
-2 -2 3 196.28 11.71
-2 -2 3 197.93 11.71
2 2 -3 180.83 11.03
2 2 -3 187.66 11.71
2 2 -3 188.2 11.41
2 2 -3 181.87 11.03
-2 -1 3 190.93 11.33
-2 -1 3 184.86 10.67
-2 -1 3 190.34 10.67
-2 -1 3 194.27 11.33
2 1 -3 179.23 10.67
2 1 -3 176.44 10.68
2 1 -3 174.86 11.32
-2 0 3 192.07 11.26
-2 0 3 181.51 10.6
-2 0 3 178.27 10.6
2 0 -3 175.32 11.24
2 0 -3 179.98 10.6
2 0 -3 182.52 10.6
2 0 -3 192.43 11.26
-2 1 3 183.42 11.5
-2 1 3 178.31 10.84
-2 1 3 181.35 10.85
-2 1 3 179.15 10.48
2 -1 -3 192.88 11.23
2 -1 -3 188.03 10.83
2 -1 -3 189.21 10.84
2 -1 -3 193.82 10.49
2 -1 -3 190.87 11.51
2 -1 -3 196.94 11.51
-2 2 3 187.22 10.89
-2 2 3 189.02 11.91
-2 2 3 178.99 11.21
-2 2 3 196.69 11.23
2 -2 -3 195.96 11.91
2 -2 -3 197.32 10.9
2 -2 -3 200.92 11.17
2 -2 -3 198.47 11.91
2 -2 -3 196.12 11.62
2 -2 -3 198.67 11.91
-2 3 3 9.99 1
-2 3 3 11.5 0.93
-2 3 3 10.44 1.01
-2 3 3 9.29 0.89
2 -3 -3 12.66 0.99
2 -3 -3 12.23 1.01
2 -3 -3 12.14 0.93
2 -3 -3 11.79 0.95
-2 4 3 29.21 1.8
-2 4 3 30.32 1.96
-2 4 3 30.48 1.98
-2 4 3 29.63 1.8
2 -4 -3 20.42 1.84
-2 5 3 27.57 1.85
-2 5 3 27.64 1.86
-2 5 3 27.77 2.07
-2 6 3 29.5 2.14
-2 6 3 32.46 2.17
-2 6 3 35.11 2.52
-2 7 3 1.98 0.75
-2 7 3 1.86 0.7
-2 8 3 6.04 0.99
1 8 -3 0.08 0.78
1 7 -3 7.68 0.98
1 6 -3 24.85 1.83
1 6 -3 26.54 1.87
-1 -5 3 41.17 2.6
1 5 -3 41.45 2.9
1 5 -3 40.49 2.61
1 5 -3 40.07 2.59
-1 -4 3 16.18 1.19
-1 -4 3 16.21 1.19
1 4 -3 14.63 1.24
1 4 -3 14.77 1.15
1 4 -3 14.75 1.01
1 4 -3 13.88 1.12
-1 -3 3 75.88 4.64
-1 -3 3 73.31 4.63
1 3 -3 71.47 4.64
1 3 -3 70.55 4.35
1 3 -3 75.54 4.37
1 3 -3 73.85 4.47
-1 -2 3 3.65 0.5
-1 -2 3 4.1 0.58
-1 -2 3 3.46 0.56
1 2 -3 5.76 0.64
1 2 -3 5.34 0.55
1 2 -3 5.37 0.69
1 2 -3 5.42 0.59
-1 -1 3 135.17 8.86
-1 -1 3 134.93 8.34
-1 -1 3 147.92 8.87
-1 -1 3 134.13 8.63
1 1 -3 147.71 8.36
1 1 -3 151.8 8.64
1 1 -3 149.43 8.36
1 1 -3 149.37 8.87
-1 0 3 0.05 0.33
-1 0 3 0 0.31
-1 0 3 0.16 0.32
-1 0 3 0.04 0.34
-1 0 3 0.04 0.11
1 0 -3 0.03 0.34
1 0 -3 0.1 0.32
1 0 -3 0.01 0.27
1 0 -3 0.35 0.32
1 0 -3 0.25 0.33
-1 1 3 146.53 8.25
-1 1 3 147.77 8.26
-1 1 3 150.12 7.97
-1 1 3 153.81 8.78
-1 1 3 148.18 8.57
1 -1 -3 135.55 8.24
1 -1 -3 141.19 8.76
1 -1 -3 134.8 7.97
1 -1 -3 132.04 8.76
1 -1 -3 134.37 8.56
-1 2 3 5.92 0.6
-1 2 3 5.37 0.65
-1 2 3 6.5 0.61
-1 2 3 5.62 0.53
-1 2 3 5.7 0.55
-1 2 3 5.49 0.67
1 -2 -3 3.45 0.51
1 -2 -3 3.75 0.52
1 -2 -3 3.56 0.51
1 -2 -3 4.25 0.59
-1 3 3 73.07 4.59
-1 3 3 71.64 4.28
-1 3 3 72.74 4.29
-1 3 3 71.99 4.29
1 -3 -3 74.89 4.55
1 -3 -3 74.31 4.55
1 -3 -3 74.46 4.48
-1 4 3 14.29 1.02
-1 4 3 15.16 1.25
-1 4 3 13.83 1.02
-1 4 3 15.21 1.16
1 -4 -3 15.54 1.06
-1 5 3 38.61 2.44
-1 5 3 39.39 2.45
-1 5 3 42.63 2.7
-1 6 3 24.21 1.68
-1 6 3 28.14 2.13
-1 6 3 23.55 1.69
-1 7 3 9.56 0.99
-1 7 3 8.7 1.04
-1 8 3 -0.13 0.67
0 8 -3 33.16 2.45
0 7 -3 4.91 0.88
0 6 -3 5.52 0.81
0 6 -3 5.42 0.83
0 -5 3 29.94 2.11
0 -5 3 33.37 2.13
0 5 -3 30.7 2.12
0 5 -3 30.99 2.44
0 5 -3 31.63 2.11
0 -4 3 99.93 6.3
0 -4 3 97.56 6.3
0 4 -3 102.13 6.36
0 4 -3 100.87 5.97
0 4 -3 103.43 5.99
0 4 -3 102 5.97
0 -3 3 15.75 1.24
0 -3 3 16.77 1.24
0 3 -3 14.77 1.13
0 3 -3 14.31 1.23
0 3 -3 14.23 1.05
0 3 -3 15.24 1.15
0 -2 3 33.58 2.25
0 -2 3 33.11 2.04
0 -2 3 34.15 2.12
0 -2 3 32.58 2.24
0 -1 3 95.93 5.63
0 -1 3 90.66 5.62
0 -1 3 92.63 5.81
0 -1 3 95.38 5.98
0 -1 3 94.27 5.99
0 1 -3 100.49 5.83
0 1 -3 98.67 5.64
0 1 -3 100.42 5.99
0 0 3 50.95 2.97
0 0 3 47.47 2.96
0 0 -3 49.57 3.07
0 0 -3 47.05 3.15
0 0 -3 49.51 2.96
0 0 -3 49.86 2.97
0 0 -3 50.73 3.17
0 0 -3 48.48 2.96
0 1 3 96.11 5.57
0 1 3 95.85 5.56
0 1 3 97.82 5.92
0 1 3 97.14 5.34
0 1 3 100.99 5.92
0 1 3 95.77 5.8
0 -1 -3 93.85 5.91
0 -1 -3 91.98 5.34
0 -1 -3 92.99 5.91
0 -1 -3 94.65 5.54
0 -1 -3 93.64 5.79
0 2 3 49.51 3.12
0 2 3 50.57 3.16
0 2 3 48.75 2.92
0 2 3 50.13 2.91
0 2 3 50.63 3.16
0 2 3 51.01 2.93
0 3 3 13.26 1.1
0 3 3 15.16 1.07
0 3 3 13.9 1.07
0 -3 -3 16.02 1.09
0 4 3 104.95 6.5
0 4 3 106.4 6.13
0 5 3 32.45 2.27
0 6 3 5.16 0.62
0 6 3 5.63 1.03
0 6 3 4.87 0.55
0 7 3 6.03 0.71
0 7 3 5.41 0.7
0 8 3 29.76 2.04
-1 8 -3 1.26 0.89
-1 7 -3 8.6 1.1
-1 6 -3 55.17 3.38
-1 6 -3 48.93 3.34
1 -5 3 101.97 6.35
1 -5 3 96.69 6.34
-1 5 -3 98.89 6.04
-1 5 -3 101.5 6.12
-1 5 -3 106.73 6.08
1 -4 3 1.85 0.57
1 -4 3 2.39 0.54
-1 4 -3 2.83 0.57
-1 4 -3 2.86 0.61
-1 4 -3 1.69 0.55
-1 4 -3 2.55 0.71
1 -3 3 130.86 7.37
1 -3 3 129.63 7.09
1 -3 3 128.14 7.37
-1 3 -3 108.47 6.92
-1 3 -3 109.06 7.08
-1 3 -3 112.92 7.37
-1 3 -3 111.72 6.83
-1 3 -3 111.53 6.93
1 -2 3 23.08 1.45
1 -2 3 22.31 1.59
1 -2 3 21.17 1.41
1 -2 3 22.11 1.58
-1 2 -3 20.29 1.45
-1 2 -3 19.6 1.56
-1 2 -3 20.64 1.47
-1 2 -3 21.19 1.5
-1 2 -3 21.36 1.44
1 -1 3 163.69 9.48
1 -1 3 159.98 9.47
1 -1 3 158.39 10.06
1 -1 3 162.24 9.79
1 -1 3 171.36 10.07
-1 1 -3 165.21 9.48
-1 1 -3 168.14 9.8
-1 1 -3 155.41 9.47
-1 1 -3 164.73 10.06
1 0 3 71.22 4.04
1 0 3 70.17 4.3
1 0 3 68.75 4.29
1 0 3 67.41 4.03
-1 0 -3 68.6 4.19
-1 0 -3 67.97 4.28
-1 0 -3 66.27 4.03
-1 0 -3 67.14 3.85
-1 0 -3 67.02 4.03
1 1 3 159.18 9.65
1 1 3 154.47 9.45
1 1 3 157.56 9.09
1 1 3 155.68 9.08
1 1 3 155.42 9.08
1 1 3 151.18 9.64
-1 -1 -3 157.4 9.64
-1 -1 -3 158.21 9.64
-1 -1 -3 162.45 9.46
-1 -1 -3 161.17 9.06
1 2 3 20.01 1.29
1 2 3 20.51 1.39
1 2 3 19.55 1.42
1 2 3 19.82 1.38
-1 -2 -3 21.35 1.36
-1 -2 -3 21.46 1.44
-1 -2 -3 21.15 1.36
1 3 3 108.73 6.62
1 3 3 106.26 6.54
1 3 3 108.76 6.15
1 4 3 2.76 0.44
1 4 3 2.64 0.61
1 5 3 106.41 6.25
1 6 3 56.24 3.66
-2 8 -3 7.97 1.22
-2 7 -3 1.35 0.82
2 -6 3 5.63 0.8
-2 6 -3 6.9 1
-2 6 -3 7.22 0.98
2 -5 3 62.54 3.85
2 -5 3 59.62 3.83
-2 5 -3 55.56 3.69
-2 5 -3 55.22 3.67
2 -4 3 85.45 4.95
2 -4 3 81.61 4.64
2 -4 3 83.55 4.94
-2 4 -3 74.65 4.7
-2 4 -3 71.51 4.64
-2 4 -3 68.01 4.63
-2 4 -3 70.12 4.94
2 -3 3 148.13 8.69
2 -3 3 147.35 9
2 -3 3 145.94 9.01
-2 3 -3 144.54 8.49
-2 3 -3 139.13 8.3
-2 3 -3 144.54 8.49
-2 3 -3 141.33 9.01
2 -2 3 40.2 2.87
2 -2 3 37.57 2.84
2 -2 3 38.1 2.64
2 -2 3 37.62 2.71
2 -2 3 38.73 2.64
-2 2 -3 49.4 2.73
-2 2 -3 49.69 2.9
-2 2 -3 48.09 2.7
-2 2 -3 47.78 2.7
2 -1 3 124.6 7.91
2 -1 3 123.13 7.43
2 -1 3 125.26 7.91
2 -1 3 129.87 7.7
2 -1 3 126.53 7.2
2 -1 3 132.63 7.45
-2 1 -3 130.15 7.46
-2 1 -3 123.07 7.9
-2 1 -3 126.81 7.91
-2 1 -3 128.39 7.45
-2 1 -3 128.26 7.21
-2 1 -3 128.1 7.69
2 0 3 325.4 18.87
2 0 3 332.19 20.01
2 0 3 322.81 18.86
2 0 3 323.71 18.18
-2 0 -3 325.09 19.53
-2 0 -3 334.37 20.01
-2 0 -3 323.67 18.86
-2 0 -3 324.4 18.18
-2 0 -3 333.81 20.01
-2 0 -3 329.33 18.86
2 1 3 121.97 6.9
2 1 3 123.41 7.21
2 1 3 125.39 7.53
2 1 3 125.64 7.67
2 1 3 119.45 7.21
2 1 3 120.43 7.66
-2 -1 -3 127.96 7.67
-2 -1 -3 126.53 7.53
-2 -1 -3 126.41 7.66
-2 -1 -3 124.64 7.18
2 2 3 48.34 2.84
2 2 3 46.26 2.61
2 2 3 47.59 2.86
2 2 3 46.93 2.62
2 2 3 47.58 2.84
-2 -2 -3 38.01 2.8
-2 -2 -3 36.54 2.82
2 3 3 133.39 8.17
2 3 3 136.77 8.27
2 4 3 68.97 4.25
2 4 3 68.33 4.08
2 5 3 54.21 3.42
2 5 3 56.64 3.47
2 6 3 5.19 1.02
-3 8 -3 20.55 1.97
3 -7 3 1.22 0.57
-3 7 -3 1.27 0.9
3 -6 3 3.84 0.79
-3 6 -3 1.84 0.84
3 -5 3 28.24 2.17
-3 5 -3 28.48 2.09
-3 5 -3 29.77 2.18
3 -4 3 59.09 3.77
3 -4 3 60.09 3.51
3 -4 3 58.64 3.76
-3 4 -3 52.44 3.56
-3 4 -3 52.74 3.53
-3 4 -3 55.34 3.55
-3 4 -3 53.57 3.76
3 -3 3 1.78 0.48
3 -3 3 2.17 0.49
3 -3 3 2.42 0.65
3 -3 3 1.68 0.62
-3 3 -3 3.36 0.62
-3 3 -3 3.45 0.73
-3 3 -3 3.33 0.7
-3 3 -3 3.58 0.62
3 -2 3 89.75 5.08
3 -2 3 94.16 5.56
3 -2 3 98.22 5.36
3 -2 3 93.1 5.18
3 -2 3 90.1 5.53
-3 2 -3 77.47 5.19
-3 2 -3 78.18 5.06
-3 2 -3 80.44 5.53
-3 2 -3 79.71 5.19
3 -1 3 47.53 2.98
3 -1 3 51 2.92
3 -1 3 49.1 2.91
3 -1 3 48.83 2.82
3 -1 3 53.42 3.16
-3 1 -3 43.43 3.1
-3 1 -3 41.61 2.87
-3 1 -3 43.36 2.9
-3 1 -3 41.52 2.78
3 0 3 417.69 24.18
3 0 3 437.21 25.64
3 0 3 406.8 24.17
3 0 3 408.37 23.31
3 0 3 417.67 25.63
-3 0 -3 413 24.17
-3 0 -3 426.93 24.17
-3 0 -3 410.34 23.31
-3 0 -3 428.16 25.64
-3 0 -3 431.42 25.64
3 1 3 41.3 2.85
3 1 3 39.99 2.82
3 1 3 41.89 2.66
3 1 3 41.97 2.5
3 1 3 42.54 2.85
3 1 3 39.6 2.65
-3 -1 -3 48.9 2.87
-3 -1 -3 47.68 2.63
-3 -1 -3 47.83 2.85
3 2 3 74.47 4.71
3 2 3 75.54 4.98
3 2 3 78.55 5.04
3 2 3 75.34 4.7
-3 -2 -3 89.4 5.02
-3 -2 -3 89.73 5.02
3 3 3 3.56 0.46
3 3 3 2.76 0.57
3 4 3 50.23 3.21
3 5 3 30.79 2.16
3 5 3 29.7 2.04
3 6 3 1.13 0.81
4 -7 3 15.75 1.47
-4 7 -3 12.15 1.64
4 -6 3 10.12 1.24
-4 6 -3 9.95 1.28
4 -5 3 121.77 7.53
4 -5 3 113.71 7.89
-4 5 -3 126.77 7.54
-4 5 -3 137.77 7.58
4 -4 3 37.77 2.52
4 -4 3 37.61 2.77
4 -4 3 39.66 2.78
-4 4 -3 39.07 2.68
-4 4 -3 39.21 2.79
-4 4 -3 39.92 2.62
-4 4 -3 36.71 2.59
-4 3 -3 39.07 2.6
-4 3 -3 39.15 2.6
-4 3 -3 39.39 2.78
-4 3 -3 38.78 2.58
4 -2 3 10.2 1.05
4 -2 3 10.88 1.02
4 -2 3 9.87 1.17
4 -2 3 10.3 1.13
-4 2 -3 9.56 1.09
-4 2 -3 9.88 1.06
-4 2 -3 10.39 1
-4 2 -3 10.08 1.18
4 -1 3 13.05 1.25
4 -1 3 12.82 1.26
4 -1 3 12.6 1.13
4 -1 3 11.82 1.03
4 -1 3 11.71 1.05
4 0 3 0.26 0.44
4 0 3 -0.37 0.47
4 0 3 0.06 0.38
4 0 3 -0.26 0.42
-4 0 -3 0.07 0.44
-4 0 -3 0.16 0.43
-4 0 -3 0.21 0.37
-4 0 -3 -0.14 0.45
-4 0 -3 -0.09 0.53
4 1 3 4.12 0.67
4 1 3 4.01 0.64
4 1 3 4.25 0.58
4 1 3 4.62 0.54
4 1 3 4.12 0.57
4 2 3 9.96 0.93
4 2 3 9.14 0.98
4 2 3 8.8 0.84
4 2 3 9.79 0.82
-4 -2 -3 8.93 0.91
-4 -2 -3 9.52 0.93
4 3 3 36.91 2.5
4 3 3 37.57 2.43
4 3 3 34.29 2.23
4 3 3 37.92 2.24
4 4 3 37.65 2.42
4 4 3 37.56 2.55
4 5 3 128.74 7.87
5 -7 3 1.13 0.82
-5 7 -3 1.93 1.02
5 -6 3 0.9 0.81
-5 6 -3 2.24 0.94
5 -5 3 19.68 1.78
-5 5 -3 17.86 1.72
5 -4 3 24.67 1.89
5 -4 3 24.12 1.83
5 -4 3 24.48 1.59
-5 4 -3 17.36 1.66
-5 4 -3 18.28 1.69
-5 4 -3 15.89 1.74
-5 4 -3 16.32 1.79
5 -3 3 10.76 1.12
5 -3 3 9.94 1.31
5 -3 3 10.61 1.31
5 -3 3 10.54 1.1
-5 3 -3 13.31 1.23
-5 3 -3 11.99 1.36
-5 3 -3 13.51 1.22
-5 3 -3 13.37 1.26
5 -2 3 200.71 11.53
5 -2 3 202.29 11.87
5 -2 3 205.59 12.28
5 -2 3 197.95 12.62
-5 2 -3 195.63 11.89
-5 2 -3 200.89 11.52
-5 2 -3 209.8 12.65
-5 2 -3 209.59 11.91
5 -1 3 30.99 2.01
5 -1 3 28.71 1.98
5 -1 3 28.46 2.03
5 -1 3 29.69 2.13
5 -1 3 27.92 1.89
-5 1 -3 25.48 1.84
-5 1 -3 27.28 2
-5 1 -3 28.21 2.16
-5 1 -3 25.95 1.96
5 0 3 26.05 1.79
5 0 3 27.7 1.94
5 0 3 28.58 1.93
5 0 3 29.48 2.08
-5 0 -3 28.93 1.95
-5 0 -3 28.05 1.83
-5 0 -3 29.1 2.09
-5 0 -3 28.86 2.13
-5 0 -3 26.56 1.92
5 1 3 23.9 1.9
5 1 3 25.37 1.95
5 1 3 25.37 1.8
5 1 3 26.16 1.67
5 1 3 24.57 1.78
-5 -1 -3 27.2 1.95
-5 -1 -3 29.54 1.79
-5 -1 -3 27.75 1.98
5 2 3 196.51 12.21
5 2 3 197.71 11.5
5 2 3 199.84 11.11
5 2 3 193.42 11.99
5 2 3 198.67 11.51
-5 -2 -3 193.77 12.19
-5 -2 -3 204.61 12.21
5 3 3 11.72 1.13
5 3 3 12.66 1.05
5 3 3 12.43 0.95
5 3 3 11.87 0.94
-5 -3 -3 9.37 0.96
-5 -3 -3 8.92 0.96
5 4 3 14.61 1.39
5 4 3 15.56 1.12
5 4 3 16.02 1.23
5 4 3 15.19 1.13
5 5 3 18.31 1.5
5 5 3 15.44 1.17
5 5 3 17.59 1.17
6 -7 3 0.85 0.89
-6 7 -3 0.38 1.03
6 -6 3 5.92 1.14
-6 6 -3 6.53 1.21
6 -5 3 40.6 3
-6 5 -3 38.46 2.87
6 -4 3 40.58 2.87
6 -4 3 43.97 2.7
-6 4 -3 34.23 2.89
-6 4 -3 36.27 2.71
-6 4 -3 34.77 2.71
6 -3 3 22.14 1.79
6 -3 3 20.14 1.96
6 -3 3 22.1 1.84
6 -3 3 21.39 1.88
-6 3 -3 28.72 2.14
-6 3 -3 29.67 2
-6 3 -3 28.32 1.96
-6 3 -3 28.34 1.95
6 -2 3 91.98 5.73
6 -2 3 99.39 6.1
6 -2 3 96.49 5.89
6 -2 3 96.3 6.3
-6 2 -3 103.98 5.96
-6 2 -3 94.78 5.73
-6 2 -3 95.68 6.29
-6 2 -3 99.21 5.93
6 -1 3 247.91 13.62
6 -1 3 240.11 13.61
6 -1 3 239.37 14.44
6 -1 3 232.15 13.14
6 -1 3 236.1 14.08
-6 1 -3 229.18 13.6
-6 1 -3 223.06 13.58
-6 1 -3 223.89 13.12
-6 1 -3 220.38 14.42
6 0 3 152.49 10.22
6 0 3 161.29 9.63
6 0 3 168.65 9.65
6 0 3 159.84 9.27
-6 0 -3 167.61 9.63
-6 0 -3 165.46 10.23
-6 0 -3 169.29 9.29
6 1 3 215.45 13.26
6 1 3 212.05 13.78
6 1 3 218.05 12.78
6 1 3 226.12 14.09
6 1 3 215.71 13.27
-6 -1 -3 246.99 13.25
-6 -1 -3 239.63 14.09
-6 -1 -3 246.73 14.12
6 2 3 93.26 5.75
6 2 3 98.91 5.74
6 2 3 93.62 6.04
6 2 3 95.44 5.53
6 2 3 95.99 6.12
-6 -2 -3 95.33 6.09
-6 -2 -3 97.55 6.1
-6 -2 -3 98.41 6.11
6 3 3 29.29 1.77
6 3 3 26.82 1.76
6 3 3 28.77 1.91
6 3 3 27.35 1.97
-6 -3 -3 20.81 1.8
-6 -3 -3 20.73 1.8
6 4 3 32.05 2.17
6 4 3 33.49 2.16
6 4 3 35.31 2.47
6 5 3 38.87 2.74
6 5 3 36.71 2.44
6 5 3 39.89 2.45
6 6 3 5.1 0.66
6 6 3 5.08 0.67
6 7 3 0.14 0.5
7 -7 3 10.68 1.41
-7 7 -3 8.16 1.53
7 -6 3 2.38 1
-7 6 -3 1.94 1.1
7 -5 3 51.83 3.83
-7 5 -3 55.58 3.69
7 -4 3 11.76 1.61
7 -4 3 13.42 1.39
7 -4 3 14.75 1.64
-7 4 -3 13.34 1.68
-7 4 -3 12.49 1.53
7 -3 3 29.35 2.2
7 -3 3 27.52 1.96
7 -3 3 26.5 1.96
7 -3 3 28.76 2.06
-7 3 -3 22.37 1.99
-7 3 -3 21.35 1.95
-7 3 -3 22.87 2.03
-7 3 -3 20.61 2.05
7 -2 3 24.36 1.81
7 -2 3 23.69 1.74
7 -2 3 23.92 2.04
7 -2 3 23.39 1.75
-7 2 -3 22.24 1.88
-7 2 -3 22.79 2.02
-7 2 -3 21.71 1.83
-7 2 -3 20.47 1.72
-7 1 -3 5.68 0.8
-7 1 -3 5.27 0.98
-7 1 -3 5.24 0.84
-7 1 -3 6.94 0.91
7 0 3 0.28 0.58
7 0 3 0.45 0.49
7 0 3 0.46 0.61
7 0 3 0.16 0.67
-7 0 -3 0.69 0.55
-7 0 -3 0.22 0.67
-7 0 -3 0.37 0.5
7 1 3 5.32 0.9
7 1 3 5.26 0.8
7 1 3 6.1 0.73
7 1 3 6.24 0.81
7 2 3 21.57 1.65
7 2 3 20.28 1.73
7 2 3 21.62 1.53
7 2 3 19.55 1.61
7 2 3 21.26 1.75
-7 -2 -3 22.33 1.73
-7 -2 -3 22.97 1.74
-7 -2 -3 23.3 1.77
7 3 3 20.91 1.72
7 3 3 22.41 1.73
7 3 3 22.63 1.83
7 3 3 20.18 1.92
-7 -3 -3 26.7 1.84
-7 -3 -3 27.42 1.82
7 4 3 11.39 1.15
7 4 3 13.05 1.15
7 4 3 13.16 1.36
-7 -4 -3 11.82 1.06
-7 -4 -3 11.91 1.08
7 5 3 53.37 3.29
7 5 3 51.52 3.28
7 6 3 2.02 0.65
7 6 3 2.66 0.66
7 7 3 7.42 0.89
8 -7 3 12.74 1.64
-8 7 -3 11.7 1.77
8 -6 3 0.56 1.02
-8 6 -3 1.71 1.1
8 -5 3 9.73 1.41
-8 5 -3 8.64 1.38
8 -4 3 25.67 2.19
8 -4 3 26.18 1.91
8 -4 3 24.28 2.13
-8 4 -3 17.16 2.14
-8 4 -3 17.3 1.94
8 -3 3 43.24 3.25
8 -3 3 44.27 3.06
8 -3 3 43.28 2.95
8 -3 3 42.01 2.99
-8 3 -3 41.65 3.04
-8 3 -3 44.29 3.04
-8 3 -3 46.37 3.12
-8 3 -3 40.42 3.21
8 -2 3 73.43 5.06
8 -2 3 79.85 5.43
8 -2 3 83.27 5.65
8 -2 3 76.04 5.22
-8 2 -3 91.07 5.17
-8 2 -3 89.19 5.31
-8 2 -3 90.61 5.66
-8 2 -3 93.04 5.36
8 -1 3 45.88 3.13
8 -1 3 50.46 3.44
8 -1 3 46.53 3.02
-8 1 -3 48.6 3.16
-8 1 -3 44.8 3
-8 1 -3 46.95 3.42
8 0 3 1.27 0.7
8 0 3 0.77 0.66
8 0 3 1.76 0.74
8 0 3 1.6 0.59
-8 0 -3 1.08 0.7
-8 0 -3 1.34 0.65
-8 0 -3 2.12 0.64
8 1 3 48.81 3.14
8 1 3 46.52 2.96
8 1 3 46.64 3.35
8 1 3 49.24 3.13
-8 -1 -3 47.12 3.05
-8 -1 -3 45.79 3.32
8 2 3 93.03 5.21
8 2 3 87.88 4.97
8 2 3 83.22 5.44
8 2 3 88.9 5.53
8 2 3 82.98 5.17
-8 -2 -3 77.45 5.45
-8 -2 -3 76.15 5.44
-8 -2 -3 84.42 5.53
8 3 3 42.7 2.69
8 3 3 39.13 2.75
8 3 3 41.61 3
8 3 3 41.6 2.95
8 3 3 41.85 2.76
-8 -3 -3 42.11 2.89
-8 -3 -3 41.73 2.95
8 4 3 14.82 1.37
8 4 3 16.12 1.41
8 4 3 16.02 1.61
8 5 3 7.66 0.96
8 5 3 7.85 0.98
8 6 3 1.93 0.71
8 7 3 10.4 1.19
9 -6 3 6.2 1.4
-9 6 -3 7.48 1.46
9 -5 3 32.26 2.77
-9 5 -3 30.47 2.62
9 -4 3 9.08 1.21
9 -4 3 8.83 1.4
-9 4 -3 7.34 1.34
-9 4 -3 6.29 1.26
9 -3 3 33.39 2.67
9 -3 3 37.98 2.83
9 -3 3 34.74 2.98
-9 3 -3 39.98 2.84
-9 3 -3 43.03 3.05
9 -2 3 60.3 4.05
9 -2 3 55.83 3.83
9 -2 3 61.13 4.26
9 -2 3 58.41 3.93
-9 2 -3 61.97 3.88
-9 2 -3 58.25 4.21
-9 2 -3 61.87 3.96
9 -1 3 99.22 6.54
9 -1 3 105.75 6.17
9 -1 3 104.72 5.94
-9 1 -3 94.19 6.51
-9 1 -3 92.17 5.88
9 0 3 60.77 3.95
9 0 3 58.73 4.18
9 0 3 59.89 3.74
9 0 3 62.37 3.96
-9 0 -3 60.79 3.9
-9 0 -3 61.15 3.77
-9 0 -3 58.84 4.16
9 1 3 95.07 6.11
9 1 3 95.33 5.83
9 1 3 101.71 6.12
9 1 3 93.34 6.48
-9 -1 -3 103.3 6.51
-9 -1 -3 103.67 6.03
-9 -1 -3 102.83 6.5
9 2 3 60.24 4.07
9 2 3 55.11 3.83
9 2 3 61.98 3.86
9 2 3 60.76 3.68
9 2 3 60.52 4.1
-9 -2 -3 56.66 4.06
-9 -2 -3 61.69 4.16
9 3 3 42.46 2.79
9 3 3 39.91 2.77
9 3 3 42.52 3.02
9 3 3 42.59 2.65
-9 -3 -3 33.55 2.84
9 4 3 6.38 0.98
9 4 3 5.52 0.93
9 4 3 5.1 1.11
-9 -4 -3 8.11 1.05
9 5 3 27.84 2.09
9 6 3 6.95 1.04
10 -6 3 1.52 1.16
-10 6 -3 2.2 1.29
10 -5 3 18.89 2.07
-10 5 -3 17.08 2.04
10 -4 3 15.91 1.96
10 -4 3 15.67 1.73
-10 4 -3 17.53 1.89
-10 4 -3 17.41 2.17
10 -3 3 0.77 0.87
10 -3 3 0.14 0.87
10 -3 3 0.83 0.91
-10 3 -3 -0.44 0.92
-10 3 -3 0.06 0.84
10 -2 3 18.63 1.85
10 -2 3 17.85 1.68
10 -2 3 18.02 1.99
10 -2 3 18.79 1.8
-10 2 -3 19.26 1.87
-10 2 -3 17.82 1.94
10 -1 3 123.93 6.87
10 -1 3 121.06 7.12
10 -1 3 121.03 7.59
-10 1 -3 105.83 7.04
-10 1 -3 108.27 6.84
-10 1 -3 110.06 7.56
10 0 3 6.26 0.95
10 0 3 6.51 1.08
10 0 3 6.37 1.12
10 0 3 5.72 1.02
-10 0 -3 5.6 1.11
-10 0 -3 5.87 0.98
-10 0 -3 6.19 1.04
10 1 3 104.92 6.52
10 1 3 106.22 6.82
10 1 3 106.59 7.26
-10 -1 -3 122.25 6.78
-10 -1 -3 111.05 7.23
-10 -1 -3 114.61 7.24
10 2 3 17.8 1.7
10 2 3 18.3 1.6
10 2 3 20.78 1.93
10 2 3 18.07 1.89
-10 -2 -3 17.82 1.79
10 3 3 0.23 0.73
10 3 3 0.05 0.67
-10 -3 -3 0 0.78
10 4 3 16.1 1.64
10 4 3 16.76 1.61
-10 -4 -3 16.55 1.61
10 5 3 19 1.74
10 6 3 2.4 0.9
11 -6 3 1.89 1.32
-11 6 -3 3.73 1.48
11 -5 3 1.86 1.21
-11 5 -3 2.85 1.31
11 -4 3 15.4 1.98
-11 4 -3 14.5 1.86
-11 4 -3 14.91 2.05
11 -3 3 3.32 1.21
-11 3 -3 2.31 1.26
-11 3 -3 2.35 1.12
11 -2 3 16.66 1.8
11 -2 3 17.19 2.03
-11 2 -3 24.89 2.33
-11 2 -3 25.08 2.06
11 -1 3 44.8 3.09
11 -1 3 41.45 3.45
11 -1 3 43.57 3.26
-11 1 -3 51.59 3.62
-11 1 -3 48.13 3.29
11 0 3 8.61 1.38
11 0 3 8.16 1.12
11 0 3 7.6 1.19
-11 0 -3 7.33 1.16
-11 0 -3 9.17 1.41
-11 0 -3 8.07 1.39
11 1 3 47.62 3.23
11 1 3 50.19 3.09
11 1 3 50.3 3.46
-11 -1 -3 41.23 3.39
-11 -1 -3 39.03 3.38
11 2 3 26.1 2.15
11 2 3 25.14 2.29
11 2 3 24.99 1.97
11 3 3 3.17 0.93
11 3 3 2.71 0.85
-11 -3 -3 3.11 0.98
11 4 3 14.58 1.64
-11 -4 -3 16.13 1.64
11 5 3 1.56 0.91
-11 -5 -3 3.14 0.8
11 6 3 3.37 1
12 -5 3 6.76 1.6
-12 5 -3 10.05 1.74
12 -4 3 6.84 1.55
-12 4 -3 10.27 1.87
-12 4 -3 10.76 1.69
-12 4 -3 9.5 1.85
12 -3 3 4.53 1.37
-12 3 -3 5.44 1.44
-12 3 -3 5.08 1.43
12 -2 3 2.35 1.2
-12 2 -3 1.76 1.18
-12 2 -3 1.48 1.15
12 -1 3 87.87 5.5
12 -1 3 90.55 5.31
12 -1 3 84.32 5.87
-12 1 -3 77.74 5.82
-12 1 -3 79.33 5.85
12 0 3 19.67 1.99
12 0 3 19.16 1.82
12 0 3 20.4 2.08
-12 0 -3 20.39 2.07
-12 0 -3 20.13 2.06
12 1 3 75.2 5.56
12 1 3 82.66 5
12 1 3 80.66 5.26
-12 -1 -3 83.15 5.53
12 2 3 1.91 0.89
12 2 3 1.26 0.98
-12 -2 -3 2.21 1.06
12 3 3 5.28 1.04
12 3 3 5.14 1.18
-12 -3 -3 5.06 1.18
12 4 3 10.03 1.39
-12 -4 -3 8.14 1.3
12 5 3 7.24 1.3
-12 -5 -3 7.8 1.1
13 -5 3 9.22 1.8
13 -4 3 18.79 2.36
13 -3 3 1.01 1.23
-13 3 -3 0.63 1.24
-13 3 -3 0.17 1.25
13 -2 3 23.93 2.5
-13 2 -3 21.2 2.53
-13 2 -3 22.04 2.54
13 -1 3 0.74 1.06
-13 1 -3 -0.06 1.13
-13 1 -3 0.65 1.13
13 0 3 38.36 3.01
13 0 3 39.38 3.16
13 0 3 40.81 2.84
-13 0 -3 33.18 3.08
-13 0 -3 36.8 3.12
13 1 3 1.16 1.11
13 1 3 0.89 1.04
13 1 3 1.47 0.93
-13 -1 -3 1.5 1.14
13 2 3 22.19 2.14
13 2 3 21.93 2.06
-13 -2 -3 23.88 2.37
13 3 3 0.56 0.96
-13 -3 -3 -0.06 1.03
13 4 3 15 1.85
-13 -4 -3 16.27 1.88
13 5 3 6.37 1.31
-13 -5 -3 7.28 1.2
14 -4 3 18.28 2.47
14 -3 3 7.59 1.61
-14 3 -3 6.76 1.71
-14 3 -3 6.89 1.73
14 -2 3 1.94 1.23
-14 2 -3 2.05 1.48
-14 2 -3 2.26 1.47
14 -1 3 9.59 1.72
-14 1 -3 13.19 1.9
-14 1 -3 12.33 1.89
14 0 3 2.57 1.21
-14 0 -3 2.85 1.35
14 1 3 15.08 1.84
-14 -1 -3 8.76 1.69
14 2 3 2.37 1.14
-14 -2 -3 0.38 1.22
14 3 3 6.83 1.45
-14 -3 -3 7.66 1.45
14 4 3 14.9 1.91
-14 -4 -3 19.44 2.1
15 -3 3 9.22 1.87
-15 3 -3 11.89 2.19
15 -2 3 18.02 2.41
-15 2 -3 14.86 2.31
15 -1 3 1.86 1.4
-15 1 -3 1.15 1.34
15 0 3 66.13 4.91
-15 0 -3 60.73 4.84
15 1 3 2.09 1.27
-15 -1 -3 1.7 1.32
15 2 3 15.36 2.04
-15 -2 -3 16.97 2.25
15 3 3 13.34 1.8
-15 -3 -3 7.45 1.62
16 -2 3 42.52 3.8
-16 2 -3 43.59 3.89
16 -1 3 1.76 1.4
-16 1 -3 3.7 1.7
16 0 3 1.91 1.47
-16 0 -3 1.78 1.53
-16 -1 -3 1.44 1.45
16 2 3 46.58 3.66
-16 -2 -3 43.3 3.8
-17 -1 4 7.62 1.86
-17 0 4 0.92 1.54
17 0 -4 -0.15 1.41
-17 1 4 5.67 1.9
17 -1 -4 6.51 1.83
-16 -3 4 5.78 1.65
16 3 -4 8.1 1.67
-16 -2 4 11.04 1.87
-16 -1 4 9.39 1.78
-16 0 4 35.49 3.33
16 0 -4 33.57 3.31
-16 1 4 7.7 1.92
16 -1 -4 8.73 1.84
-16 2 4 13.27 2.2
16 -2 -4 11.16 2.03
-16 3 4 8.46 2.1
16 -3 -4 8.7 1.87
-15 -4 4 8.9 1.65
15 4 -4 6.5 1.57
-15 -3 4 2.9 1.33
15 3 -4 2.49 1.27
-15 -2 4 3.15 1.44
15 2 -4 7.19 1.47
-15 -1 4 10.59 1.85
15 1 -4 12.29 1.88
-15 0 4 10.22 1.86
15 0 -4 10.55 1.81
-15 1 4 13.43 2
15 -1 -4 10.7 1.83
-15 2 4 6.22 1.75
15 -2 -4 3.54 1.42
-15 3 4 3.85 1.71
15 -3 -4 3.91 1.43
15 -4 -4 8.93 1.81
-14 -4 4 0.69 1.17
14 4 -4 0.35 1.1
-14 -3 4 1.41 1.16
14 3 -4 0.82 1.13
-14 -2 4 2.65 1.24
14 2 -4 1.2 1.1
-14 -1 4 8.33 1.59
14 1 -4 7.05 1.5
14 1 -4 6.07 1.31
-14 0 4 5.03 1.38
14 0 -4 3.9 1.36
-14 1 4 6.92 1.56
14 -1 -4 8.5 1.64
-14 2 4 0.6 1.37
14 -2 -4 3.65 1.4
-14 3 4 2.79 1.42
14 -3 -4 1.23 1.33
14 -4 -4 0.73 1.27
-13 -5 4 16.86 2.01
13 5 -4 17.7 1.97
-13 -4 4 12.07 1.64
13 4 -4 10.9 1.59
-13 -3 4 4.83 1.23
13 3 -4 4 1.17
-13 -2 4 20.81 2.12
13 2 -4 17.54 1.98
-13 -1 4 37.74 3.19
13 1 -4 39.04 3.23
13 1 -4 39.19 3.04
-13 0 4 -0.52 1.11
13 0 -4 0 0.97
13 0 -4 -0.04 0.98
13 -1 -4 36.35 3.08
-13 2 4 19.2 2.35
13 -2 -4 21.27 2.22
-13 3 4 4.17 1.49
13 -3 -4 4.4 1.39
-13 4 4 12.36 1.83
13 -4 -4 12.59 1.85
-13 5 4 19.15 2.38
13 -5 -4 16.55 2.29
-12 -5 4 9.14 1.36
12 5 -4 6.8 1.31
-12 -4 4 10.08 1.44
12 4 -4 7.8 1.36
-12 -3 4 8.98 1.44
12 3 -4 11.69 1.47
-12 -2 4 5.74 1.25
12 2 -4 5.07 1.15
12 2 -4 6.3 1.19
12 2 -4 5.93 1.26
-12 -1 4 0.54 0.94
12 1 -4 -0.09 0.84
12 1 -4 0.76 0.93
12 1 -4 0.15 0.87
-12 0 4 4.29 1.26
12 0 -4 4.55 1.03
12 0 -4 4.87 1.14
12 0 -4 4.04 1.2
-12 1 4 0.62 1
12 -1 -4 1.43 0.91
12 -1 -4 1.24 1
-12 2 4 5.28 1.25
-12 2 4 6.28 1.36
12 -2 -4 6.34 1.37
-12 3 4 11.24 1.58
-12 3 4 11.3 1.8
12 -3 -4 10.7 1.67
-12 4 4 8.69 1.53
12 -4 -4 8.37 1.52
-12 5 4 8.24 1.65
12 -5 -4 9.38 1.65
11 6 -4 18.44 1.92
-11 -5 4 43.8 3.15
11 5 -4 40.68 3.05
-11 -4 4 9.42 1.4
11 4 -4 10.24 1.36
-11 -3 4 5.04 1.19
11 3 -4 5.18 1.13
-11 -2 4 16.69 1.89
11 2 -4 20.38 1.76
11 2 -4 18.98 1.97
11 2 -4 19.7 1.82
11 1 -4 15.21 1.72
11 1 -4 16.75 1.71
11 1 -4 16.75 1.58
-11 0 4 19.56 1.83
-11 0 4 18.23 1.92
11 0 -4 18.2 1.74
11 0 -4 18.7 1.83
11 0 -4 18.16 1.89
-11 1 4 17.51 2.04
11 -1 -4 27.58 2.37
11 -1 -4 25.91 2.05
11 -1 -4 26.98 2.15
-11 2 4 20.31 2.01
-11 2 4 19.02 1.9
11 -2 -4 18.1 2.03
11 -2 -4 17.19 1.71
-11 3 4 5.52 1.22
-11 3 4 6.32 1.4
11 -3 -4 4.46 1.24
-11 4 4 8.45 1.43
11 -4 -4 7.75 1.41
-11 5 4 44.94 3.43
11 -5 -4 41.5 3.41
-11 6 4 20.81 2.26
11 -6 -4 17.04 2.14
10 6 -4 7.47 1.21
-10 -5 4 16.04 1.62
10 5 -4 15.36 1.62
-10 -4 4 21.6 1.84
10 4 -4 16.12 1.74
-10 -3 4 -0.68 0.76
10 3 -4 -0.4 0.79
10 3 -4 -0.14 0.76
-10 -2 4 103.57 6.85
10 2 -4 106.97 6.89
10 2 -4 104.66 6.49
10 2 -4 103.97 6.35
-10 -1 4 20.07 1.79
-10 -1 4 19.28 1.69
10 1 -4 18.85 1.77
10 1 -4 16.37 1.68
10 1 -4 16.79 1.63
10 1 -4 16.7 1.82
-10 0 4 3.36 0.87
-10 0 4 1.89 0.9
10 0 -4 2.72 0.78
10 0 -4 1.9 0.85
10 0 -4 2.04 0.84
-10 1 4 17.75 1.95
-10 1 4 16.09 1.75
10 -1 -4 21.46 1.99
10 -1 -4 21.18 1.8
-10 2 4 103.53 7.14
-10 2 4 106.49 6.72
10 -2 -4 109.47 6.56
10 -2 -4 111.09 7.18
10 -2 -4 111.3 6.7
-10 3 4 0.56 0.9
-10 3 4 -0.33 0.99
10 -3 -4 0.11 0.78
10 -3 -4 0.12 0.92
-10 4 4 15.46 1.82
-10 4 4 13.63 1.84
10 -4 -4 19.95 1.91
-10 5 4 16.74 2
10 -5 -4 16.01 1.86
-10 6 4 6.25 1.44
10 -6 -4 6.79 1.37
9 7 -4 3.87 1.06
9 6 -4 1.35 0.88
-9 -5 4 15.49 1.47
9 5 -4 11.34 1.41
-9 -4 4 44.6 3.12
9 4 -4 43.04 3.01
-9 -3 4 10.39 1.42
9 3 -4 11.12 1.29
9 3 -4 12.18 1.42
9 3 -4 10.81 1.37
9 2 -4 15.58 1.52
9 2 -4 16.8 1.65
9 2 -4 16.46 1.62
-9 -1 4 6.49 1.06
-9 -1 4 6.85 0.95
9 1 -4 4.9 0.94
9 1 -4 4.54 0.86
9 1 -4 4.64 0.84
9 1 -4 5.93 0.93
-9 0 4 0.43 0.73
-9 0 4 1.06 0.73
9 0 -4 0.79 0.73
9 0 -4 1.25 0.7
9 0 -4 1.39 0.74
-9 1 4 5.39 1.09
-9 1 4 5.03 0.96
9 -1 -4 7.59 1.02
9 -1 -4 5.91 1.09
-9 2 4 17.14 1.61
-9 2 4 15.32 1.69
-9 2 4 14.49 1.49
-9 2 4 15.39 1.49
9 -2 -4 11.38 1.39
9 -2 -4 10.35 1.35
9 -2 -4 10.05 1.45
-9 3 4 12.29 1.43
-9 3 4 10.09 1.43
9 -3 -4 9.41 1.37
9 -3 -4 7.84 1.24
-9 4 4 43.74 3.41
-9 4 4 42.39 3.15
9 -4 -4 42.6 3.28
9 -4 -4 47.59 3.22
-9 5 4 13.9 1.84
9 -5 -4 16.14 1.8
-9 6 4 1.53 1.12
9 -6 -4 -0.2 0.93
-9 7 4 5.23 1.44
8 7 -4 3.72 0.98
8 6 -4 0.56 0.79
-8 -5 4 35.7 2.63
8 5 -4 38.77 2.62
-8 -4 4 17.29 1.63
8 4 -4 18.52 1.6
8 4 -4 16.47 1.55
8 3 -4 19.87 1.66
8 3 -4 20.22 1.67
8 3 -4 20.99 1.78
-8 -2 4 27.57 2.26
-8 -2 4 29.12 2.3
-8 -2 4 28.04 2.07
8 2 -4 31.11 2.18
8 2 -4 30.03 2.15
8 2 -4 29.73 2.29
-8 -1 4 24.44 1.95
-8 -1 4 24.25 2.15
8 1 -4 29.2 2.19
8 1 -4 26.94 2.02
8 1 -4 28.31 2.03
8 1 -4 27.9 1.99
-8 0 4 1.3 0.68
-8 0 4 2.36 0.84
8 0 -4 1.51 0.71
8 0 -4 1.93 0.7
8 0 -4 1.59 0.63
-8 1 4 29.42 2.05
-8 1 4 26.94 1.99
-8 1 4 26.08 2.17
8 -1 -4 24.86 2.08
8 -1 -4 21.32 1.91
-8 2 4 30.33 2.13
-8 2 4 31.33 2.24
-8 2 4 28.25 2.29
-8 2 4 29.41 2.1
8 -2 -4 26.1 2.25
8 -2 -4 27.53 2.07
8 -2 -4 26.7 2.08
-8 3 4 20.63 2.03
-8 3 4 21.05 1.85
-8 3 4 24.71 1.95
-8 3 4 20.83 1.85
-8 4 4 15.84 1.69
-8 4 4 18.12 1.88
8 -4 -4 18.5 1.77
8 -4 -4 17.33 1.74
8 -5 -4 32.37 2.61
-8 6 4 0.65 1.01
8 -6 -4 0.9 0.92
-8 7 4 5.08 1.37
8 -7 -4 6.56 1.15
7 7 -4 0.75 0.83
7 6 -4 6.05 0.96
-7 -5 4 34.13 2.41
7 5 -4 34.15 2.41
7 5 -4 36.18 2.47
-7 -4 4 29.68 2.24
7 4 -4 30.19 2.14
7 4 -4 30.8 2.17
-7 -3 4 74.02 5.01
-7 -3 4 77.49 5.03
7 3 -4 76.37 5.02
7 3 -4 81.69 4.77
7 3 -4 75.03 4.73
-7 -2 4 159 10.39
-7 -2 4 174.35 9.76
-7 -2 4 166.54 9.75
-7 -2 4 163.53 10.4
7 2 -4 167.32 9.81
7 2 -4 161.59 10.41
7 2 -4 169.7 9.83
-7 -1 4 159.82 9.16
-7 -1 4 152.52 9.73
7 1 -4 152.46 9.19
7 1 -4 151.61 9.76
7 1 -4 158.84 9.19
-7 0 4 0.95 0.59
-7 0 4 0.17 0.61
7 0 -4 0.07 0.57
7 0 -4 0 0.11
7 0 -4 0.31 0.59
7 0 -4 0.93 0.59
-7 1 4 149.25 9.59
-7 1 4 152.77 9.03
-7 1 4 149.57 8.77
-7 1 4 145.98 9.01
7 -1 -4 154.07 8.78
7 -1 -4 157.49 9.62
7 -1 -4 155.51 9.02
-7 2 4 159.11 9.62
-7 2 4 165.82 9.37
-7 2 4 162.1 10.23
-7 2 4 166.56 9.65
7 -2 -4 160.15 9.35
7 -2 -4 158.07 9.59
7 -2 -4 164.2 10.24
-7 3 4 79.37 4.77
-7 3 4 77.2 5.18
-7 3 4 81.71 4.9
-7 3 4 75.8 4.85
7 -3 -4 73.77 4.72
7 -3 -4 73.94 5.12
7 -3 -4 80.78 4.78
-7 4 4 33.09 2.42
-7 4 4 32.47 2.4
-7 4 4 31.84 2.57
-7 4 4 33.81 2.46
7 -4 -4 30.13 2.51
7 -4 -4 33 2.38
-7 5 4 33.91 2.57
7 -5 -4 33.91 2.61
7 -5 -4 33.48 2.68
-7 6 4 5.17 1.15
7 -6 -4 4.91 1
-7 7 4 0.88 1.07
7 -7 -4 0.48 0.8
6 7 -4 0.4 0.73
6 6 -4 3.22 0.8
-6 -5 4 38.94 2.41
6 5 -4 33.21 2.4
6 5 -4 34.11 2.47
6 5 -4 33.59 2.41
-6 -4 4 41.94 2.58
-6 -4 4 42 2.58
6 4 -4 31.23 2.42
6 4 -4 34.56 2.44
6 4 -4 33.06 2.58
6 3 -4 16.23 1.36
6 3 -4 15.4 1.43
6 3 -4 16.75 1.36
-6 -2 4 80.83 5.14
-6 -2 4 78.9 5.13
-6 -2 4 82.19 4.78
6 2 -4 78.69 5.14
6 2 -4 77.12 4.83
6 2 -4 78.68 4.83
-6 -1 4 260.72 14.95
-6 -1 4 247.9 14.93
-6 -1 4 253.29 14.06
6 1 -4 229.28 14.06
6 1 -4 231.21 14.93
6 1 -4 225.67 14.06
-6 0 4 0.93 0.6
-6 0 4 0.7 0.64
-6 0 4 0.92 0.53
6 0 -4 0.68 0.56
6 0 -4 0.85 0.47
6 0 -4 1.1 0.51
6 0 -4 1.42 0.61
-6 1 4 218.82 13.81
-6 1 4 226.53 13.39
-6 1 4 234.92 13.84
-6 1 4 221.4 14.66
6 -1 -4 244.64 13.82
6 -1 -4 259.35 13.84
6 -1 -4 245.14 14.68
6 -1 -4 243.9 13.4
-6 2 4 73.36 4.78
-6 2 4 81.61 4.82
-6 2 4 73.03 5.1
-6 2 4 74.89 4.66
6 -2 -4 78.46 5.08
6 -2 -4 84.32 4.77
6 -2 -4 80.59 4.68
-6 3 4 15.93 1.43
-6 3 4 16.51 1.55
-6 3 4 15.8 1.44
-6 3 4 15.99 1.44
-6 4 4 32.21 2.57
-6 4 4 33.49 2.62
-6 4 4 34.34 2.73
-6 4 4 33.62 2.6
6 -4 -4 41.11 2.75
6 -4 -4 41.85 2.59
6 -4 -4 43.46 2.67
-6 5 4 30.77 2.62
6 -5 -4 40.42 2.62
6 -5 -4 39.35 2.79
6 -5 -4 41.36 2.86
-6 6 4 3.67 1.01
6 -6 -4 1.98 0.79
-6 7 4 0.94 1
6 -7 -4 -0.08 0.65
5 7 -4 10.64 1.24
5 6 -4 14.18 1.33
5 6 -4 12.48 1.33
5 6 -4 12.19 1.27
-5 -5 4 65.82 4.16
-5 -5 4 63.02 4.15
5 5 -4 62.7 4.05
5 5 -4 66.22 4.18
5 5 -4 68.6 4.09
5 5 -4 67.58 4.09
-5 -4 4 14.98 1.4
-5 -4 4 14.76 1.39
5 4 -4 17.79 1.38
5 4 -4 18.91 1.49
5 4 -4 18.05 1.37
-5 -3 4 24.36 1.73
-5 -3 4 24.07 1.74
5 3 -4 21.25 1.63
5 3 -4 22.79 1.75
5 3 -4 20.43 1.6
-5 -2 4 105.79 6.5
-5 -2 4 105.76 6.49
5 2 -4 97.57 6.47
5 2 -4 100.06 6.11
5 2 -4 103.21 6.11
-5 -1 4 68.43 4.08
-5 -1 4 63.89 4.05
-5 -1 4 63.23 3.78
5 1 -4 58.93 3.78
5 1 -4 57.74 3.77
5 1 -4 57.92 4.02
-5 0 4 0.84 0.55
-5 0 4 0.9 0.53
-5 0 4 0.96 0.62
5 0 -4 1.3 0.53
5 0 -4 1.39 0.6
5 0 -4 1.04 0.51
-5 1 4 56.58 3.64
-5 1 4 58.89 3.74
-5 1 4 60.25 3.78
-5 1 4 58.26 4
5 -1 -4 64.91 3.78
5 -1 -4 62.88 4.03
5 -1 -4 62.43 3.76
5 -1 -4 62.7 3.67
-5 2 4 101.08 6.65
-5 2 4 101.8 6.25
-5 2 4 103.45 6.28
-5 2 4 101.16 6.07
5 -2 -4 102.68 6.65
5 -2 -4 104.56 6.08
5 -2 -4 110.84 6.67
5 -2 -4 104.31 6.22
5 -2 -4 111.61 6.68
-5 3 4 21.88 1.85
-5 3 4 21.72 1.7
-5 3 4 21.42 1.71
-5 3 4 22.99 1.75
5 -3 -4 23.48 1.73
5 -3 -4 24.59 1.89
5 -3 -4 24.71 1.82
-5 4 4 18.42 1.43
-5 4 4 18.93 1.57
-5 4 4 18.4 1.48
-5 4 4 19.55 1.57
5 -4 -4 13.91 1.43
5 -4 -4 14.07 1.48
5 -4 -4 12.72 1.41
5 -4 -4 13.05 1.3
-5 5 4 66 4.17
-5 5 4 68.83 4.23
-5 5 4 61.59 4.13
5 -5 -4 66.05 4.24
5 -5 -4 66.09 4.15
5 -5 -4 64.2 4.3
-5 6 4 11.14 1.39
5 -6 -4 12.87 1.28
-5 7 4 11.39 1.5
4 7 -4 0.22 0.67
4 6 -4 7.08 0.94
4 6 -4 7.41 0.89
-4 -5 4 10.46 1.03
-4 -5 4 12.21 1.06
4 5 -4 12.69 1.15
4 5 -4 14.11 1.22
4 5 -4 13.44 1.11
-4 -4 4 30.4 1.96
-4 -4 4 29.07 1.94
4 4 -4 25.25 1.86
4 4 -4 26.19 1.86
4 4 -4 25.26 1.99
4 4 -4 26.74 1.91
-4 -3 4 13.61 1.19
-4 -3 4 14.79 1.16
4 3 -4 11.67 1.16
4 3 -4 12.32 1.1
4 3 -4 11.38 1.07
4 3 -4 12.24 1.12
-4 -2 4 122.35 6.79
-4 -2 4 120.61 7.25
-4 -2 4 110.51 7.23
4 2 -4 116.37 7.25
4 2 -4 115.28 6.83
4 2 -4 108.47 6.81
-4 -1 4 13.61 1.26
-4 -1 4 15.37 1.21
-4 -1 4 15.01 1.32
-4 -1 4 15.56 1.18
4 1 -4 15.82 1.31
4 1 -4 14.16 1.15
4 1 -4 15 1.21
-4 0 4 204.31 12.17
-4 0 4 204.87 12.92
-4 0 4 214.79 12.19
-4 0 4 218.14 12.94
4 0 -4 207.22 12.92
4 0 -4 212.93 12.18
4 0 -4 203.29 12.17
-4 1 4 14.8 1.23
-4 1 4 15.88 1.16
-4 1 4 15.07 1.27
-4 1 4 15.35 1.3
4 -1 -4 14.57 1.22
4 -1 -4 14.71 1.24
4 -1 -4 16.39 1.32
4 -1 -4 15.49 1.36
-4 2 4 121.72 7.48
-4 2 4 120.32 7.03
-4 2 4 117.9 6.82
-4 2 4 119.23 7.02
4 -2 -4 119.31 7.46
4 -2 -4 119.31 6.99
4 -2 -4 115 7.45
4 -2 -4 120.52 7.46
4 -2 -4 115.61 6.82
-4 3 4 11.36 1.2
-4 3 4 11.51 1.12
-4 3 4 12.86 1.19
-4 3 4 11.39 1.18
4 -3 -4 14.16 1.21
4 -3 -4 14.11 1.19
4 -3 -4 13.99 1.24
4 -3 -4 14.31 1.14
-4 4 4 27.04 2.13
-4 4 4 28.09 2.07
-4 4 4 25.3 2.01
-4 4 4 26.37 1.99
4 -4 -4 29.98 2.11
4 -4 -4 30.11 2
4 -4 -4 30.22 2.07
4 -4 -4 31.76 2.14
-4 5 4 13.4 1.28
-4 5 4 15 1.37
-4 5 4 14.6 1.49
4 -5 -4 14.43 1.18
4 -5 -4 12.39 1.27
4 -5 -4 12.45 1.47
-4 6 4 7.97 1
4 -6 -4 4.89 0.69
-4 7 4 -0.03 0.78
3 8 -4 7.99 1.14
3 7 -4 0.02 0.68
3 6 -4 32.15 2.18
3 6 -4 29.4 2.11
-3 -5 4 71.95 4.34
-3 -5 4 70.31 4.34
3 5 -4 63.62 4.19
3 5 -4 67.8 4.25
3 5 -4 70.85 4.25
-3 -4 4 12.99 1.17
-3 -4 4 13.65 1.14
3 4 -4 13.25 1.2
3 4 -4 12.84 1.13
3 4 -4 13.6 1.15
3 4 -4 12.94 1.08
-3 -3 4 67.59 4.03
-3 -3 4 64.14 4.02
3 3 -4 60.93 3.91
3 3 -4 60.51 3.77
3 3 -4 60.39 4.02
3 3 -4 60.56 3.79
-3 -2 4 14.12 1.31
-3 -2 4 14.57 1.27
3 2 -4 16.41 1.24
3 2 -4 15.69 1.22
3 2 -4 15.72 1.29
3 2 -4 15.84 1.22
3 2 -4 15.25 1.2
-3 -1 4 49.75 3.34
-3 -1 4 47.36 3.11
-3 -1 4 49.2 3.11
-3 -1 4 49.7 3.11
-3 -1 4 50.01 3.33
3 1 -4 54.35 3.13
3 1 -4 53.13 3.34
3 1 -4 53.37 3.13
-3 0 4 694.74 39.93
-3 0 4 705.69 42.33
-3 0 4 717.06 42.33
-3 0 4 682.24 39.93
3 0 -4 696.79 39.94
3 0 -4 734.16 39.95
3 0 -4 654.99 42.31
3 0 -4 674.97 42.32
-3 1 4 56.48 3.16
-3 1 4 54.44 3.03
-3 1 4 53.16 3.13
-3 1 4 51.24 3.32
3 -1 -4 47.08 3.3
3 -1 -4 49.5 3.12
3 -1 -4 49.85 3.11
3 -1 -4 51.21 3.34
3 -1 -4 50.68 3.02
3 -1 -4 45.85 3.22
-3 2 4 15.74 1.15
-3 2 4 15.37 1.18
-3 2 4 15.93 1.28
-3 2 4 15.11 1.17
3 -2 -4 14.09 1.25
3 -2 -4 13.75 1.19
3 -2 -4 13.98 1.11
3 -2 -4 15.1 1.3
-3 3 4 61.06 4.09
-3 3 4 60.07 3.83
-3 3 4 61.71 3.85
-3 3 4 62.23 3.79
3 -3 -4 63.45 3.79
3 -3 -4 65.53 3.97
3 -3 -4 66.15 4.08
3 -3 -4 65.76 4.08
-3 4 4 13.69 1.25
-3 4 4 12.86 1.14
-3 4 4 14.21 1.26
-3 4 4 13.05 1.15
3 -4 -4 14.07 1.18
3 -4 -4 12.27 1.25
3 -4 -4 13.59 1.17
3 -4 -4 12.52 1.09
-3 5 4 71.31 4.43
-3 5 4 69.97 4.38
-3 5 4 64.33 4.34
3 -5 -4 72.37 4.52
3 -5 -4 76.57 4.54
3 -5 -4 73.46 4.4
-3 6 4 27.82 2.08
-3 6 4 31.61 2.15
-3 7 4 -0.2 0.72
-3 8 4 8.61 1.2
2 8 -4 1.38 0.84
2 7 -4 12.82 1.34
2 6 -4 1.86 0.66
2 6 -4 1.8 0.68
-2 -5 4 21.24 1.52
-2 -5 4 20.25 1.5
2 5 -4 21.12 1.36
2 5 -4 19.69 1.51
-2 -4 4 27.13 2.15
-2 -4 4 27.35 2.16
2 4 -4 33.66 2.08
2 4 -4 34.79 2.06
2 4 -4 34.31 2.23
-2 -3 4 1.83 0.54
-2 -3 4 1.86 0.56
2 3 -4 3.77 0.54
2 3 -4 3.75 0.55
2 3 -4 3.56 0.51
2 3 -4 3.62 0.59
-2 -2 4 25.34 1.81
-2 -2 4 25.3 1.81
-2 -2 4 26.56 1.64
2 2 -4 24.41 1.68
2 2 -4 23.29 1.66
2 2 -4 24.7 1.7
2 2 -4 25.33 1.82
-2 -1 4 124.71 6.79
-2 -1 4 116.47 6.37
-2 -1 4 121.21 6.38
2 1 -4 100.3 6.75
2 1 -4 103.07 6.37
2 1 -4 97.84 6.57
2 1 -4 99.03 6.36
2 1 -4 103.96 6.37
-2 0 4 74.96 4.57
-2 0 4 78.43 4.58
2 0 -4 77.82 4.57
2 0 -4 78.16 4.86
2 0 -4 74.62 4.73
2 0 -4 76.93 4.56
-2 1 4 103.03 6.35
-2 1 4 98.71 6.97
-2 1 4 97.18 6.56
-2 1 4 101.3 6.58
2 -1 -4 120.75 6.58
2 -1 -4 119.34 7
2 -1 -4 121.49 6.37
2 -1 -4 125.49 7.01
2 -1 -4 115.15 6.83
2 -1 -4 120.22 6.58
-2 2 4 24.55 1.79
-2 2 4 23.43 1.62
-2 2 4 23.3 1.66
-2 2 4 23.25 1.64
2 -2 -4 26.74 1.79
2 -2 -4 25.61 1.78
2 -2 -4 26.06 1.74
2 -2 -4 26.16 1.58
2 -2 -4 26.48 1.63
-2 3 4 3.76 0.58
-2 3 4 3.78 0.58
-2 3 4 3.92 0.51
2 -3 -4 1.94 0.5
2 -3 -4 2 0.49
2 -3 -4 1.93 0.5
2 -3 -4 1.52 0.46
-2 4 4 36.8 2.15
-2 4 4 33.49 2
-2 4 4 32.13 1.99
-2 4 4 32.6 2.14
2 -4 -4 27.72 2.06
2 -4 -4 27.23 2.02
2 -4 -4 27.96 2.05
-2 5 4 20.38 1.55
-2 5 4 21.05 1.54
-2 5 4 21.35 1.74
2 -5 -4 22.88 1.48
-2 6 4 1.65 0.64
-2 6 4 1.4 0.87
-2 6 4 1.48 0.63
-2 7 4 11.85 1.23
-2 8 4 1.8 0.8
1 8 -4 6.17 1.06
1 7 -4 10.57 1.22
1 6 -4 14.15 1.31
1 6 -4 14.25 1.36
-1 -5 4 17.01 1.52
-1 -5 4 18.84 1.55
1 5 -4 24.36 1.62
1 5 -4 24.36 1.59
-1 -4 4 63.5 3.7
-1 -4 4 63.38 3.7
1 4 -4 54.37 3.72
1 4 -4 53.94 3.49
1 4 -4 51.34 3.47
1 4 -4 54.6 3.49
-1 -3 4 69.3 4.57
-1 -3 4 74.48 4.59
1 3 -4 72.58 4.32
1 3 -4 71.99 4.6
1 3 -4 70.35 4.32
1 3 -4 72.65 4.42
-1 -2 4 371.19 22.62
-1 -2 4 357.79 22.04
-1 -2 4 351.67 22.61
-1 -2 4 361.78 21.3
1 2 -4 377.88 21.34
1 2 -4 375.29 21.34
1 2 -4 382.33 22.63
1 2 -4 383.68 22.06
-1 -1 4 498.39 32.24
-1 -1 4 533.1 32.25
-1 -1 4 518.35 30.42
-1 -1 4 498.28 31.45
1 1 -4 546.82 31.46
1 1 -4 545.29 30.43
1 1 -4 535.45 32.25
1 1 -4 558.43 30.43
-1 0 4 115.12 7.52
-1 0 4 124.51 7.1
-1 0 4 128.7 7.55
-1 0 4 124.6 7.1
-1 0 4 122.46 7.1
1 0 -4 122.2 7.35
1 0 -4 120.14 7.53
1 0 -4 116.08 7.52
1 0 -4 121.67 7.09
1 0 -4 117.95 7.08
-1 1 4 536.94 29.77
-1 1 4 548.37 30.82
-1 1 4 554.83 29.79
-1 1 4 547.46 31.57
1 -1 -4 508.35 29.75
1 -1 -4 507.75 31.55
1 -1 -4 489.36 30.8
1 -1 -4 496.67 28.73
1 -1 -4 498.15 31.55
1 -1 -4 494.79 29.76
-1 2 4 363.64 21.54
-1 2 4 366.83 20.79
-1 2 4 387.27 22.06
-1 2 4 372.67 20.1
-1 2 4 368.65 20.78
1 -2 -4 340.4 20.09
1 -2 -4 351.25 22.03
1 -2 -4 353.89 22.03
1 -2 -4 347.11 21.53
-1 3 4 72.14 4.36
-1 3 4 68.75 4.15
-1 3 4 70.45 4.16
-1 3 4 69.68 4.44
-1 3 4 72.12 4.12
1 -3 -4 70.01 4.4
1 -3 -4 71.69 4.41
1 -3 -4 68.85 4.35
-1 4 4 55.71 3.4
-1 4 4 54.96 3.57
-1 4 4 51.79 3.33
-1 4 4 51.67 3.33
1 -4 -4 65.32 3.51
-1 5 4 23.79 1.61
-1 5 4 23.73 1.58
-1 5 4 24.78 1.87
-1 6 4 14.81 1.59
-1 6 4 13.83 1.14
-1 6 4 14.7 1.19
-1 7 4 11.6 1.16
-1 7 4 10.78 1.1
-1 8 4 6.49 0.93
0 8 -4 3.46 0.97
0 7 -4 8.93 1.12
0 -6 4 36.74 2.22
0 6 -4 28.5 2.27
0 6 -4 32.27 2.36
0 -5 4 89.75 5.47
0 -5 4 86.51 5.45
0 5 -4 83.81 5.22
0 5 -4 82.92 5.21
0 5 -4 87.19 5.36
0 -4 4 29.02 2.24
0 -4 4 30.67 2.26
0 4 -4 33.62 2.16
0 4 -4 34.14 2.32
0 4 -4 33.44 2.06
0 4 -4 33.49 2.16
0 -3 4 47.2 3.49
0 -3 4 47.13 3.49
0 -3 4 47.15 3.32
0 3 -4 57.71 3.31
0 3 -4 59.18 3.54
0 3 -4 59.63 3.35
0 3 -4 58.41 3.32
0 -2 4 2.98 0.47
0 -2 4 2.49 0.58
0 -2 4 2.69 0.54
0 -2 4 2.31 0.47
0 2 -4 1.68 0.46
0 2 -4 2.31 0.47
0 2 -4 2.01 0.44
0 2 -4 1.75 0.52
0 -1 4 284.14 15.45
0 -1 4 290.46 15.45
0 -1 4 293.48 15.98
0 -1 4 294.68 16.4
0 1 -4 247.67 15.44
0 1 -4 250.28 16.38
0 1 -4 242.15 15.96
0 1 -4 234.97 15.43
0 0 4 264.4 15.96
0 0 4 247.9 15.04
0 0 4 254.85 15.04
0 0 4 270.63 15.96
0 0 -4 263.86 15.04
0 0 -4 258.64 15.04
0 0 -4 254.11 15.04
0 0 -4 265.5 15.96
0 0 -4 265.66 15.58
0 1 4 232.92 15.17
0 1 4 237.9 16.1
0 1 4 239.96 15.18
0 1 4 232.28 15.73
0 -1 -4 283.14 15.75
0 -1 -4 273.63 16.1
0 -1 -4 293.03 16.12
0 -1 -4 289.2 14.61
0 -1 -4 286.68 15.17
0 2 4 1.65 0.34
0 2 4 1.68 0.37
0 2 4 1.9 0.45
0 2 4 1.25 0.47
0 2 4 1.83 0.34
0 -2 -4 2.58 0.41
0 -2 -4 2.26 0.48
0 -2 -4 2.51 0.43
0 -2 -4 2.64 0.36
0 3 4 56.89 3.3
0 3 4 56.54 3.1
0 3 4 57.02 3.33
0 3 4 56.81 3.09
0 3 4 56.23 3.09
0 -3 -4 44.91 3.26
0 -3 -4 45.49 3.25
0 -3 -4 45.72 3.28
0 4 4 33.6 2.16
0 4 4 32.25 1.97
0 4 4 35.17 2.17
0 4 4 34.13 2.16
0 -4 -4 29.81 2.15
0 5 4 79.14 4.89
0 5 4 89.98 5.05
0 6 4 29.51 1.97
0 6 4 31.2 1.99
0 6 4 35.55 2.39
0 7 4 10.69 1
0 7 4 9.85 0.97
0 8 4 3.59 0.71
-1 8 -4 3.42 1.03
-1 7 -4 11.99 1.4
1 -6 4 91.55 5.6
-1 6 -4 82.17 5.42
-1 6 -4 91.33 5.46
1 -5 4 7.88 1.07
1 -5 4 8.22 1.05
-1 5 -4 7.7 0.95
-1 5 -4 8.31 1.01
1 -4 4 8.04 1.04
1 -4 4 8.8 0.98
1 -4 4 8.57 0.74
-1 4 -4 7.17 0.97
-1 4 -4 9.26 0.98
-1 4 -4 8.23 1.05
-1 4 -4 9.43 1.18
1 -3 4 67.01 4.34
1 -3 4 66.21 4.14
1 -3 4 65.75 4.35
-1 3 -4 68.41 4.1
-1 3 -4 69.85 4.11
-1 3 -4 68.26 4.15
-1 3 -4 65.38 4.35
-1 3 -4 67.7 4.08
1 -2 4 180.77 11.52
1 -2 4 182.52 11.2
1 -2 4 176.72 10.82
1 -2 4 190.62 11.53
-1 2 -4 191.52 11.2
-1 2 -4 190.45 11.53
-1 2 -4 189.35 10.87
-1 2 -4 189.08 10.87
1 -1 4 0.43 0.41
1 -1 4 -0.01 0.41
1 -1 4 0.36 0.49
1 -1 4 0.58 0.49
1 -1 4 0.69 0.43
-1 1 -4 -0.08 0.4
-1 1 -4 -0.09 0.41
-1 1 -4 -0.24 0.39
-1 1 -4 0.05 0.43
1 0 4 327.04 19.33
1 0 4 342.11 20.5
1 0 4 348.02 20.5
-1 0 -4 331.13 19.32
-1 0 -4 335.59 20.49
-1 0 -4 329.45 19.32
-1 0 -4 331.67 20.49
1 1 4 0.35 0.41
1 1 4 0.33 0.41
1 1 4 -0.03 0.43
1 1 4 -0.02 0.35
1 1 4 -0.1 0.34
-1 -1 -4 0.25 0.37
-1 -1 -4 0.19 0.39
-1 -1 -4 0.38 0.29
-1 -1 -4 0.13 0.38
1 2 4 182.32 10.78
1 2 4 178.17 10.33
1 2 4 175.23 10.33
1 2 4 183.52 9.97
1 2 4 187.4 10.99
-1 -2 -4 170.38 10.96
-1 -2 -4 179.13 10.78
-1 -2 -4 175.01 10.96
1 3 4 68.62 3.88
1 3 4 65.96 4.19
1 3 4 65.78 4.16
-1 -3 -4 67.56 4.18
1 4 4 7.72 0.82
1 4 4 8.67 0.9
1 4 4 7.82 0.69
1 5 4 7.62 1
1 5 4 8.56 0.8
1 6 4 93.63 5.66
-2 8 -4 12.22 1.61
-2 7 -4 5.86 1.05
2 -6 4 10.58 1.2
-2 6 -4 10.12 1.23
2 -5 4 4.35 0.83
-2 5 -4 5.32 0.86
-2 5 -4 4.49 0.82
2 -4 4 89.91 5.49
2 -4 4 84.87 5.47
2 -4 4 85.44 5.18
-2 4 -4 82.53 5.16
-2 4 -4 82.57 5.49
-2 4 -4 81.11 5.15
-2 4 -4 87.93 5.19
2 -3 4 68.56 4.1
2 -3 4 64.48 3.72
2 -3 4 62.58 4.06
2 -3 4 63.33 3.85
-2 3 -4 58.73 4.04
-2 3 -4 59.74 3.83
-2 3 -4 58.34 3.78
-2 3 -4 58.67 3.81
-2 3 -4 60.47 3.82
2 -2 4 8.74 1.03
2 -2 4 7.4 0.96
2 -2 4 8.1 0.85
2 -2 4 7.79 0.79
-2 2 -4 7.17 0.89
-2 2 -4 6.43 0.81
-2 2 -4 5.95 0.78
-2 2 -4 6.63 0.78
-2 2 -4 6.06 0.75
2 -1 4 115.88 7.36
2 -1 4 125.37 7.38
2 -1 4 125.47 7.86
2 -1 4 127.25 7.86
2 -1 4 120.27 7.62
-2 1 -4 130.87 7.64
-2 1 -4 126.68 7.13
-2 1 -4 126.88 7.38
-2 1 -4 131.24 7.86
-2 1 -4 126.68 7.38
2 0 4 233.96 15.03
2 0 4 248.53 15.04
2 0 4 253.23 14.19
2 0 4 240.34 14.18
-2 0 -4 233.3 15.03
-2 0 -4 248.35 15.05
-2 0 -4 248.16 14.69
-2 0 -4 252.22 14.18
-2 0 -4 246.13 13.64
2 1 4 123.26 7.16
2 1 4 125.62 7.17
2 1 4 126.27 7.61
2 1 4 126.88 7.48
-2 -1 -4 121.47 7.61
-2 -1 -4 118.39 7.46
-2 -1 -4 118.96 7.13
-2 -1 -4 120.46 7.6
2 2 4 6.29 0.86
2 2 4 5.96 0.65
2 2 4 7.04 0.78
2 2 4 6.69 0.67
2 2 4 6.93 0.68
2 2 4 6.56 0.58
-2 -2 -4 8.37 0.84
-2 -2 -4 8.9 0.77
-2 -2 -4 8.82 0.76
2 3 4 57.47 3.43
2 3 4 57.76 3.73
2 3 4 56.8 3.7
2 3 4 60.25 3.43
-2 -3 -4 62.94 3.75
2 4 4 79.83 4.94
2 4 4 79.3 4.66
2 5 4 5.18 0.66
2 5 4 5.85 0.84
2 6 4 11.49 1.32
-3 8 -4 2.07 1.07
3 -7 4 9.32 1.17
-3 7 -4 11.32 1.46
3 -6 4 32.05 2.3
-3 6 -4 27.19 2.27
3 -5 4 5.72 0.94
3 -5 4 5.7 0.66
-3 5 -4 5.62 0.93
-3 5 -4 6.44 0.98
3 -4 4 179.17 11.26
3 -4 4 174.51 11.67
3 -4 4 183.24 11.69
-3 4 -4 194.01 11.05
-3 4 -4 193.55 11.73
-3 4 -4 190.3 11.05
-3 4 -4 198.21 10.84
3 -3 4 35.39 2.57
3 -3 4 40.36 2.63
3 -3 4 38.65 2.4
3 -3 4 38.86 2.36
-3 3 -4 33.17 2.58
-3 3 -4 34.6 2.44
-3 3 -4 34.32 2.42
-3 3 -4 33.89 2.41
3 -2 4 89.82 4.72
3 -2 4 89.17 5.07
-3 2 -4 72.43 4.72
-3 2 -4 69.47 4.7
-3 2 -4 73.61 4.6
-3 2 -4 73.23 5.03
3 -1 4 34.7 2.01
3 -1 4 35.14 2.03
3 -1 4 34.31 2.17
3 -1 4 32.68 1.95
3 -1 4 34.56 2.16
-3 1 -4 26.86 2.05
-3 1 -4 24.52 2.1
-3 1 -4 26.2 1.96
-3 1 -4 25.96 1.97
-3 1 -4 25.93 1.88
3 0 4 200.43 11.63
3 0 4 196.99 11.18
3 0 4 199.78 11.63
3 0 4 198.83 12.34
-3 0 -4 201.68 11.18
-3 0 -4 208.63 12.07
-3 0 -4 205.15 11.63
-3 0 -4 192.8 11.61
-3 0 -4 198.08 12.34
-3 0 -4 196.8 12.34
3 1 4 24.11 1.77
3 1 4 24.73 1.64
3 1 4 23.48 1.63
3 1 4 24.66 1.45
3 1 4 24.97 1.77
3 2 4 67.61 4.48
3 2 4 67.61 4.51
3 2 4 68.46 4.22
3 2 4 67.74 4.22
-3 -2 -4 86.74 4.53
3 3 4 31.36 2.07
3 3 4 32.2 2.32
3 3 4 33.48 2.27
3 3 4 31.78 2.07
-3 -3 -4 35.81 2.17
-3 -3 -4 36.12 2.17
-3 -3 -4 37.5 2.18
3 4 4 187.63 10.6
3 4 4 184.88 11.35
3 4 4 190.41 11.47
3 5 4 5.41 0.73
3 5 4 5.29 0.83
4 -7 4 -0.28 0.73
-4 7 -4 0.88 0.95
4 -6 4 28.45 2.25
-4 6 -4 25.94 2.19
4 -5 4 15.61 1.57
4 -5 4 16.84 1.25
-4 5 -4 13.48 1.47
4 -4 4 1.35 0.7
4 -4 4 1.1 0.74
-4 4 -4 1.33 0.79
-4 4 -4 2.03 0.76
-4 4 -4 1.69 0.7
-4 4 -4 2.63 0.81
4 -3 4 48.97 3.29
4 -3 4 54.06 3.34
4 -3 4 49.91 3.09
4 -3 4 49.49 3.01
-4 3 -4 43.76 3.03
-4 3 -4 46.58 3.09
-4 3 -4 41.34 3.27
-4 3 -4 44.06 3.07
4 -2 4 160.85 10.09
4 -2 4 160.1 10.39
4 -2 4 163.23 9.77
4 -2 4 161.51 10.38
4 -2 4 152.53 9.46
-4 2 -4 177.04 9.81
-4 2 -4 174.62 9.81
-4 2 -4 171.36 9.5
-4 2 -4 175.1 10.43
4 -1 4 34.39 2.22
4 -1 4 31.75 2.18
4 -1 4 33.04 2.12
4 -1 4 33.83 2.36
4 -1 4 33.2 2.27
-4 1 -4 31.23 2.21
-4 1 -4 32.18 2.18
-4 1 -4 31.87 2.1
-4 1 -4 34.11 2.41
4 0 4 49.68 3.08
4 0 4 46.83 3.26
4 0 4 48.39 2.89
4 0 4 47.73 3.05
-4 0 -4 49.37 3.06
-4 0 -4 46.98 3.04
-4 0 -4 49.33 3.28
-4 0 -4 49.02 3.27
-4 0 -4 51.05 2.9
4 1 4 31.28 2.24
4 1 4 31.41 2.07
4 1 4 31.47 2.09
4 1 4 30.08 2.2
4 1 4 31.23 1.9
-4 -1 -4 33.6 2.25
-4 -1 -4 32.49 2.24
-4 -1 -4 33.38 2.05
4 2 4 166.23 10.06
4 2 4 167.5 9.62
4 2 4 165.79 9.62
4 2 4 168.9 9.24
4 2 4 170.74 10.23
-4 -2 -4 156.13 10.19
-4 -2 -4 160.79 10.2
4 3 4 41.89 2.67
4 3 4 41.98 2.91
4 3 4 41 2.66
4 3 4 40.72 2.87
-4 -3 -4 46.1 2.81
-4 -3 -4 46.55 2.81
-4 -3 -4 47.18 2.81
4 4 4 1.7 0.37
4 4 4 2.2 0.45
4 4 4 1.7 0.61
4 4 4 1.35 0.38
4 5 4 12.63 1.24
4 5 4 12.12 1.21
5 -7 4 12.61 1.62
-5 7 -4 15.23 1.74
5 -6 4 1.06 0.84
-5 6 -4 1.67 0.98
-5 5 -4 5.14 1.06
5 -4 4 24.35 2.07
5 -4 4 25.47 2.09
5 -4 4 24.86 1.82
-5 4 -4 21.4 1.88
-5 4 -4 24.67 1.95
-5 4 -4 22.72 2.07
-5 4 -4 23.22 2.01
5 -3 4 154.19 10.14
5 -3 4 151.88 9.3
5 -3 4 150.45 9.8
5 -3 4 156.4 9.49
-5 3 -4 171.84 9.35
-5 3 -4 172.95 9.6
-5 3 -4 167.07 9.58
-5 3 -4 164.01 10.17
5 -2 4 7.5 0.99
5 -2 4 7.67 1.05
5 -2 4 8.61 0.99
5 -2 4 8.07 0.95
-5 2 -4 6.71 0.93
-5 2 -4 7.57 1.04
-5 2 -4 7.87 1.03
-5 2 -4 7.22 0.91
5 -1 4 138.87 8.03
5 -1 4 145.24 8.89
5 -1 4 144.28 8.33
5 -1 4 149.51 8.35
5 -1 4 139.15 8.62
-5 1 -4 133.15 8.85
-5 1 -4 135.85 8.33
-5 1 -4 136.76 8.03
-5 1 -4 143.2 8.34
5 0 4 28.25 1.84
5 0 4 27.06 1.99
5 0 4 30.26 2
5 0 4 29.01 2.13
-5 0 -4 29.38 1.86
-5 0 -4 28.5 1.96
-5 0 -4 27.53 2.15
-5 0 -4 27.26 1.98
5 1 4 128.79 8.42
5 1 4 135.27 7.74
5 1 4 137.16 8.09
5 1 4 134.68 8.09
5 1 4 139.43 8.6
-5 -1 -4 138.11 8.59
-5 -1 -4 143.67 8.61
-5 -1 -4 139.81 8.04
5 2 4 6.62 0.84
5 2 4 6.63 0.9
5 2 4 7.1 0.97
5 2 4 5.93 0.74
5 2 4 7.4 0.69
-5 -2 -4 8.77 0.94
-5 -2 -4 8.04 0.93
5 3 4 163.73 9.63
5 3 4 155.03 9.5
5 3 4 159.49 9.06
5 3 4 159.44 9.05
-5 -3 -4 144.35 9.55
-5 -3 -4 148.4 9.56
5 4 4 22.15 1.61
5 4 4 21.08 1.48
5 4 4 20.69 1.48
5 4 4 22.26 1.76
5 5 4 4.35 0.81
5 5 4 3.99 0.54
5 5 4 4.12 0.55
6 -7 4 -0.03 0.93
-6 7 -4 -0.53 1.02
6 -6 4 15.18 1.74
-6 6 -4 13.24 1.73
6 -5 4 3.55 1.01
-6 5 -4 4.9 1.04
6 -4 4 68.23 4.52
6 -4 4 68.87 4.79
-6 4 -4 71.61 4.84
-6 4 -4 73.18 4.56
6 -3 4 17.83 1.43
6 -3 4 16.53 1.48
6 -3 4 16.88 1.68
6 -3 4 17.62 1.66
-6 3 -4 15.32 1.45
-6 3 -4 14.66 1.67
-6 3 -4 14.12 1.56
-6 3 -4 17.1 1.5
6 -2 4 12.43 1.42
6 -2 4 12.45 1.21
6 -2 4 12.05 1.23
6 -2 4 13.02 1.23
-6 2 -4 10.28 1.14
-6 2 -4 11.51 1.32
-6 2 -4 10.45 1.31
-6 2 -4 11.58 1.19
6 -1 4 9.99 1
6 -1 4 9.31 1.05
6 -1 4 10.65 1.08
6 -1 4 10.11 1.21
6 -1 4 9.42 1.06
-6 1 -4 9.55 1.13
-6 1 -4 9.13 1.01
-6 1 -4 8.76 1.16
-6 1 -4 7.86 1.09
6 0 4 178.24 10.45
6 0 4 185.54 10.88
6 0 4 186.15 10.89
6 0 4 187.23 11.57
-6 0 -4 186.17 10.47
-6 0 -4 184.11 11.55
-6 0 -4 187 10.86
6 1 4 9.27 1.04
6 1 4 9.22 0.92
6 1 4 9.78 1.07
6 1 4 9.47 1.18
6 1 4 9.77 1.09
-6 -1 -4 10.46 1.23
-6 -1 -4 11.31 1.04
-6 -1 -4 11.03 1.2
6 2 4 11.49 0.96
6 2 4 10.2 1.09
6 2 4 10.26 1.11
6 2 4 11.3 1.22
6 2 4 11.43 1.24
-6 -2 -4 12.76 1.23
-6 -2 -4 13.36 1.2
6 3 4 15.49 1.36
6 3 4 14.92 1.45
6 3 4 14.8 1.26
6 3 4 14.11 1.26
-6 -3 -4 16.93 1.3
-6 -3 -4 16.85 1.35
6 4 4 69.89 4.5
6 4 4 67.55 4.16
6 4 4 68.3 4.16
6 5 4 5.28 0.95
6 5 4 4.25 0.67
6 5 4 4.48 0.66
6 6 4 12.63 1.09
6 6 4 11.79 1.08
6 7 4 -0.13 0.49
6 7 4 -0.13 0.52
7 -7 4 10.81 1.53
-7 7 -4 11.63 1.66
7 -6 4 21.46 2.14
-7 6 -4 23.54 2.14
7 -5 4 2.59 1.03
-7 5 -4 0.41 0.98
7 -4 4 48.25 3.48
7 -4 4 46.41 3.69
7 -4 4 48.74 3.48
-7 4 -4 57.61 3.86
-7 4 -4 57.48 3.57
7 -3 4 136.33 8.49
7 -3 4 133.22 8.31
7 -3 4 134.54 9.08
7 -3 4 141.74 8.8
-7 3 -4 145.21 9.12
-7 3 -4 143.32 8.58
-7 3 -4 153.24 8.63
-7 3 -4 149.17 8.38
7 -2 4 23.26 1.93
7 -2 4 24.01 1.98
7 -2 4 22.84 1.97
7 -2 4 24.26 2.2
-7 2 -4 31.08 2.08
-7 2 -4 26.71 2.23
-7 2 -4 29.6 2.01
-7 2 -4 28.83 2.06
7 -1 4 186.05 11.15
7 -1 4 179.89 12.26
7 -1 4 186.6 11.97
7 -1 4 195.44 11.58
7 -1 4 195.22 11.58
-7 1 -4 204.19 11.58
-7 1 -4 209.64 12.33
-7 1 -4 210.75 11.18
7 0 4 0.68 0.5
7 0 4 1.28 0.6
7 0 4 1.06 0.73
7 0 4 0.87 0.63
-7 0 -4 0.75 0.66
-7 0 -4 0.7 0.58
-7 0 -4 1.14 0.56
7 1 4 211.82 12.68
7 1 4 208.45 11.93
7 1 4 203.42 11.46
7 1 4 210.72 11.94
7 1 4 196.03 12.4
-7 -1 -4 206.14 12.67
-7 -1 -4 188.31 12.63
-7 -1 -4 198.62 11.87
7 2 4 26.82 2.13
7 2 4 28.72 2.11
7 2 4 27.41 1.94
7 2 4 28.51 1.81
7 2 4 27.65 1.94
-7 -2 -4 25.27 2.07
-7 -2 -4 24.37 2.06
7 3 4 139.73 8.66
7 3 4 141.11 8.16
7 3 4 131.16 8.15
7 3 4 138.7 8.58
7 3 4 138.27 7.85
-7 -3 -4 134.02 8.61
-7 -3 -4 139.88 8.62
7 4 4 55.11 3.26
7 4 4 56.45 3.56
7 4 4 51.58 3.23
-7 -4 -4 48.05 3.3
-7 -4 -4 46.05 3.29
7 5 4 0.36 0.59
7 5 4 1.14 0.61
7 6 4 21.21 1.59
7 6 4 20.07 1.59
7 7 4 10.33 1.13
8 -7 4 7.09 1.43
-8 7 -4 8.8 1.66
8 -6 4 -0.04 0.99
-8 6 -4 0.82 1.09
8 -5 4 4.98 1.18
-8 5 -4 4.32 1.16
8 -4 4 1.08 0.93
8 -4 4 1.33 0.81
8 -4 4 -0.38 0.89
-8 4 -4 0.68 1
-8 4 -4 0.93 0.94
8 -3 4 27.22 2.33
8 -3 4 25.52 2.45
8 -3 4 26.9 2.3
-8 3 -4 32.93 2.36
-8 3 -4 33.36 2.59
8 -2 4 2.85 0.78
8 -2 4 2.77 0.76
8 -2 4 3.32 1
8 -2 4 2.68 0.81
-8 2 -4 2.8 0.99
-8 2 -4 3.16 0.85
-8 2 -4 3.64 0.86
-8 2 -4 2.9 0.82
8 -1 4 74.9 4.56
8 -1 4 72.12 4.72
8 -1 4 73.72 4.94
8 -1 4 75.18 5.08
-8 1 -4 76.77 5.07
-8 1 -4 77.91 4.58
-8 1 -4 75.76 4.74
8 0 4 7.21 1
8 0 4 7.52 1.12
8 0 4 8.01 1.04
8 0 4 9.11 1.03
-8 0 -4 7.34 1.14
-8 0 -4 8.5 0.98
-8 0 -4 7.55 0.98
8 1 4 80.85 5.17
8 1 4 77.8 4.82
8 1 4 75.22 5.07
8 1 4 77.01 4.82
8 1 4 80.18 4.59
-8 -1 -4 75.97 4.76
-8 -1 -4 73.5 5.1
8 2 4 2.77 0.87
8 2 4 3.47 0.64
8 2 4 2.37 0.72
8 2 4 3.26 0.82
8 2 4 3.26 0.74
-8 -2 -4 2.38 0.77
-8 -2 -4 3.28 0.79
-8 -2 -4 2.55 0.82
8 3 4 32.89 2.23
8 3 4 31.35 2.36
8 3 4 29.18 2.19
8 3 4 30.2 2.38
8 3 4 34.05 2.09
-8 -3 -4 26.41 2.28
8 4 4 0.93 0.67
8 4 4 1.13 0.66
8 4 4 0.92 0.68
8 4 4 0.43 0.82
-8 -4 -4 0.48 0.6
8 5 4 3.41 0.79
8 5 4 3.32 0.76
8 6 4 0.19 0.68
8 7 4 8.23 1.03
9 -6 4 10.18 1.55
-9 6 -4 8.49 1.59
9 -5 4 4.13 1.22
-9 5 -4 6.27 1.35
9 -4 4 24.94 2.17
9 -4 4 23.01 2.3
-9 4 -4 25.41 2.25
-9 4 -4 24.63 2.47
9 -3 4 5.7 1.17
9 -3 4 6.59 1.11
9 -3 4 5.92 1.09
-9 3 -4 5.8 1.16
-9 3 -4 6.92 1.35
9 -2 4 20.26 1.82
9 -2 4 19.35 2.03
9 -2 4 20.97 1.72
9 -2 4 19.36 1.8
9 -1 4 14.01 1.54
9 -1 4 14.51 1.31
9 -1 4 13.94 1.49
9 -1 4 14.27 1.61
-9 1 -4 13.05 1.7
-9 1 -4 11.99 1.48
-9 1 -4 12.95 1.36
9 0 4 149.23 9.45
9 0 4 144.52 8.85
9 0 4 143.97 8.49
9 0 4 153.56 8.88
-9 0 -4 145.5 9.41
-9 0 -4 144.6 8.51
-9 0 -4 147.35 8.81
9 1 4 14.13 1.46
9 1 4 13.16 1.56
9 1 4 12.65 1.25
9 1 4 12.19 1.45
9 1 4 14.06 1.45
-9 -1 -4 13.3 1.4
-9 -1 -4 13.36 1.55
9 2 4 10.28 1.33
9 2 4 11.02 1.14
9 2 4 10.33 1.38
9 2 4 10.53 1.41
9 2 4 11.1 1.3
9 3 4 6.83 0.91
9 3 4 6.25 0.97
9 3 4 6.42 1.18
9 3 4 7.13 1.03
-9 -3 -4 5.76 0.99
9 4 4 24.55 2.17
9 4 4 25.61 1.88
9 4 4 24.7 1.94
-9 -4 -4 22.15 1.9
9 5 4 5.2 0.95
9 6 4 8.5 1.11
10 -6 4 2.84 1.24
-10 6 -4 2.25 1.34
10 -5 4 5.09 1.36
-10 5 -4 8.27 1.53
10 -4 4 3.5 1.18
-10 4 -4 6.78 1.33
-10 4 -4 7.43 1.5
10 -3 4 17.33 2.1
10 -3 4 21.01 2
10 -3 4 21.6 2.12
-10 3 -4 21.81 2.04
-10 3 -4 20.49 2.27
10 -2 4 -0.02 0.75
10 -2 4 0.34 0.97
10 -2 4 -0.06 0.77
10 -2 4 -0.32 0.76
-10 2 -4 0.43 0.87
-10 2 -4 0.27 1.01
10 -1 4 43.33 3.33
10 -1 4 41.68 3.14
10 -1 4 41.93 3.45
10 -1 4 43.42 3.57
-10 1 -4 56.68 3.7
-10 1 -4 53.38 3.37
-10 1 -4 54.35 3.24
10 0 4 8.41 1.24
10 0 4 8.82 1.1
10 0 4 9.92 1.4
-10 0 -4 9.03 1.35
-10 0 -4 8.56 1.12
-10 0 -4 8.55 1.18
10 1 4 51.98 3.29
10 1 4 54.11 3.13
10 1 4 53.77 3.58
-10 -1 -4 38.42 3.42
-10 -1 -4 39.99 3.43
10 2 4 0.41 0.65
10 2 4 0 0.8
10 2 4 0.03 0.78
-10 -2 -4 -0.05 0.85
-10 -2 -4 0.35 0.86
10 3 4 21.42 1.67
10 3 4 18.86 1.72
-10 -3 -4 17.69 1.81
10 4 4 6.36 1.06
-10 -4 -4 5 0.98
10 5 4 6.76 1.1
10 6 4 1.77 0.87
11 -6 4 5.15 1.49
-11 6 -4 6.42 1.59
11 -5 4 1.89 1.22
-11 5 -4 -0.3 1.19
11 -4 4 5.56 1.4
-11 4 -4 2.5 1.28
-11 4 -4 2.8 1.24
11 -3 4 46.89 3.69
-11 3 -4 44.9 3.72
-11 3 -4 46.51 3.44
11 -2 4 33.92 2.94
11 -2 4 34.87 2.62
-11 2 -4 36.29 2.76
-11 2 -4 30.73 2.95
11 -1 4 25.45 2.16
11 -1 4 25.59 2.48
11 -1 4 27.69 2.33
-11 1 -4 28.28 2.45
11 0 4 30.27 2.69
11 0 4 31.76 2.53
11 0 4 31.65 2.32
-11 0 -4 29.39 2.68
-11 0 -4 32.18 2.38
11 1 4 30.63 2.38
11 1 4 30.69 2.18
11 1 4 32.17 2.57
-11 -1 -4 24.79 2.36
-11 -1 -4 24.3 2.36
11 2 4 30.24 2.52
11 2 4 33.54 2.37
11 2 4 33.39 2.72
-11 -2 -4 33.41 2.71
11 3 4 40.87 3.07
11 3 4 44.99 2.95
-11 -3 -4 44.06 3.25
11 4 4 1.7 0.94
-11 -4 -4 5.27 1.04
11 5 4 1.04 0.86
-11 -5 -4 1.13 0.72
11 6 4 6.36 1.18
12 -5 4 15.85 2.15
12 -4 4 21.44 2.4
-12 4 -4 28.65 2.87
12 -3 4 3.05 1.31
-12 3 -4 5.81 1.55
12 -2 4 28.9 2.61
-12 2 -4 21.07 2.56
12 -1 4 52.39 3.41
12 -1 4 51.96 3.57
12 -1 4 50.27 3.77
-12 1 -4 40.27 3.67
12 0 4 66.1 4.76
12 0 4 65.14 4.41
12 0 4 66.87 4.24
-12 0 -4 65.17 4.74
-12 0 -4 62.59 4.72
12 1 4 43.34 3.02
12 1 4 39.85 3.42
12 1 4 39.78 3.2
-12 -1 -4 45.37 3.43
-12 -1 -4 48.54 3.46
12 2 4 22.14 2.01
12 2 4 22.03 2.14
-12 -2 -4 28.97 2.41
12 3 4 4.53 1.12
-12 -3 -4 2.94 1.12
12 4 4 24.71 2.18
-12 -4 -4 22.98 2.21
12 5 4 15.57 1.81
-12 -5 -4 17.77 1.67
13 -5 4 -0.21 1.3
13 -4 4 4.94 1.52
13 -3 4 29.62 2.83
-13 3 -4 28.83 3.08
-13 3 -4 31.52 3.09
13 -2 4 19.54 2.34
-13 2 -4 18.87 2.29
-13 2 -4 19.49 2.31
13 -1 4 26.43 3.01
-13 1 -4 40.16 3.23
-13 1 -4 39.43 3.21
13 0 4 -0.14 0.86
13 0 4 -0.05 0.93
13 0 4 0.42 1.04
-13 0 -4 -0.34 1.13
-13 0 -4 -0.08 1.12
13 1 4 38.17 2.86
13 1 4 38.09 3.06
13 1 4 39.96 2.76
-13 -1 -4 27.92 2.96
13 2 4 18.47 2.01
13 2 4 19.68 1.8
-13 -2 -4 18.08 2.08
13 3 4 29.07 2.6
-13 -3 -4 30.84 2.67
13 4 4 4.69 1.26
-13 -4 -4 4.79 1.22
13 5 4 1.16 1.05
-13 -5 -4 0.39 0.9
14 -4 4 2.12 1.48
14 -3 4 6.66 1.68
-14 3 -4 7.85 1.77
-14 3 -4 5.88 1.73
14 -2 4 7.85 1.71
-14 2 -4 6.76 1.79
-14 2 -4 7.79 1.77
14 -1 4 1.23 1.31
-14 1 -4 0.29 1.33
-14 1 -4 0.4 1.31
14 0 4 1.28 1.26
-14 0 -4 0.96 1.29
-14 0 -4 2.99 1.39
14 1 4 1.33 1.02
14 1 4 1.2 1.13
-14 -1 -4 0.55 1.2
14 2 4 6.18 1.39
-14 -2 -4 7.48 1.56
14 3 4 7.42 1.43
-14 -3 -4 6.51 1.46
14 4 4 1.83 1.21
-14 -4 -4 3.04 1.23
15 -3 4 -0.23 1.37
-15 3 -4 -0.03 1.43
-15 3 -4 0.01 1.47
15 -2 4 1.31 1.42
-15 2 -4 1.04 1.59
-15 2 -4 1.06 1.56
15 -1 4 24.46 2.62
-15 1 -4 16.9 2.35
-15 1 -4 18.21 2.4
15 0 4 7.48 1.72
-15 0 -4 8.36 1.79
15 1 4 19.22 2.18
-15 -1 -4 22.48 2.49
15 2 4 0.99 1.21
-15 -2 -4 1.8 1.32
15 3 4 -0.02 1.22
-15 -3 -4 0 1.24
16 -2 4 8.69 1.97
-16 2 -4 10.47 2.16
16 -1 4 9.86 1.99
-16 1 -4 9.63 1.94
-16 0 -4 3.5 1.62
-16 -1 -4 9.11 1.89
16 2 4 11.12 1.82
-16 -2 -4 6.92 1.8
-17 -1 5 7.22 1.88
-17 0 5 12.88 2.23
17 0 -5 11.23 2.12
-17 1 5 4.58 1.87
17 -1 -5 8.21 1.94
-16 -2 5 6.9 1.69
-16 -1 5 12.62 1.98
-16 0 5 4.14 1.66
16 0 -5 3.6 1.55
-16 1 5 16.38 2.39
16 -1 -5 17.3 2.29
-16 2 5 5.32 1.75
16 -2 -5 7.15 1.69
-15 -3 5 -0.8 1.2
15 3 -5 1.33 1.26
-15 -2 5 2.67 1.37
15 2 -5 3.88 1.36
-15 -1 5 1.77 1.4
15 1 -5 2.25 1.36
-15 0 5 12.19 1.95
15 0 -5 15.94 2.12
-15 1 5 0.89 1.45
15 -1 -5 3.4 1.44
-15 2 5 5.69 1.66
15 -2 -5 4.26 1.53
-15 3 5 3.23 1.72
15 -3 -5 0.72 1.34
-14 -4 5 0.57 1.22
14 4 -5 4.82 1.29
-14 -3 5 6.46 1.51
14 3 -5 5.59 1.36
-14 -2 5 10.92 1.73
14 2 -5 13.05 1.72
-14 -1 5 0.57 1.13
14 1 -5 0.95 1.18
14 1 -5 0.67 1.1
-14 0 5 6.95 1.61
14 0 -5 7.96 1.58
-14 1 5 0.28 1.2
14 -1 -5 -0.07 1.16
-14 2 5 11.3 1.98
14 -2 -5 12.71 1.91
-14 3 5 4.13 1.66
14 -3 -5 6.45 1.56
14 -4 -5 2.55 1.39
-13 -5 5 4.99 1.28
13 5 -5 4.68 1.28
-13 -4 5 11.68 1.7
13 4 -5 12.26 1.65
-13 -3 5 19.14 2.18
13 3 -5 18.4 1.99
-13 -2 5 2.7 1.18
13 2 -5 4.16 1.19
-13 -1 5 29.74 2.93
13 1 -5 34.59 2.79
13 1 -5 37.23 2.95
-13 0 5 11.63 1.68
13 0 -5 12.82 1.62
13 0 -5 11.35 1.71
-13 1 5 34.55 3.01
13 -1 -5 30.19 2.91
-13 2 5 3.58 1.35
13 -2 -5 3.18 1.28
-13 3 5 15.91 2.26
13 -3 -5 21.16 2.26
-13 4 5 13.36 1.87
13 -4 -5 11.53 1.83
-13 5 5 4.53 1.56
13 -5 -5 2.89 1.36
-12 -5 5 12.94 1.77
12 5 -5 11.52 1.57
-12 -4 5 48.55 3.61
12 4 -5 46.86 3.41
-12 -3 5 12.42 1.7
12 3 -5 13.36 1.64
-12 -2 5 0.86 0.99
12 2 -5 -0.26 0.95
12 2 -5 -0.05 0.93
-12 -1 5 6.06 1.3
12 1 -5 1.85 1.02
12 1 -5 2.3 0.99
12 1 -5 2.5 1.02
-12 0 5 17.22 2.07
12 0 -5 17.97 1.8
12 0 -5 18.61 2.05
12 0 -5 17.19 1.86
-12 1 5 1.53 1.11
12 -1 -5 5.3 1.19
-12 2 5 0.19 1.06
-12 2 5 0.43 1.04
12 -2 -5 0.06 0.93
-12 3 5 12.65 1.67
-12 3 5 15.7 1.96
12 -3 -5 13.59 1.89
-12 4 5 45.18 3.45
12 -4 -5 43.6 3.56
-12 5 5 11.19 1.82
12 -5 -5 13.7 1.86
11 6 -5 26.12 2.32
-11 -5 5 17.06 1.88
11 5 -5 18 1.85
-11 -4 5 8.33 1.36
11 4 -5 13.31 1.55
-11 -3 5 7.49 1.27
11 3 -5 5.9 1.15
-11 -2 5 29.42 2.52
11 2 -5 28.79 2.56
11 2 -5 29.86 2.35
11 2 -5 29.55 2.38
-11 -1 5 0.93 0.99
11 1 -5 1.05 0.83
11 1 -5 -0.05 0.88
11 1 -5 1.49 0.91
-11 0 5 16.62 2
-11 0 5 17.53 1.79
11 0 -5 19.31 1.98
11 0 -5 17.76 1.72
11 0 -5 18.17 1.8
-11 1 5 0.28 1.04
-11 1 5 0.36 0.89
11 -1 -5 0.34 0.75
11 -1 -5 0.54 0.95
11 -1 -5 0.73 0.85
-11 2 5 29.52 2.42
-11 2 5 30.09 2.66
11 -2 -5 29.86 2.38
11 -2 -5 32.95 2.7
-11 3 5 6.26 1.21
-11 3 5 5.85 1.43
11 -3 -5 8.3 1.39
-11 4 5 14.42 1.73
11 -4 -5 8.22 1.52
-11 5 5 17.03 2.04
11 -5 -5 17.4 2.03
-11 6 5 24.34 2.47
11 -6 -5 24.03 2.45
10 6 -5 4.56 1.08
-10 -5 5 4.44 0.98
10 5 -5 2.13 0.93
-10 -4 5 0.31 0.83
10 4 -5 -0.39 0.8
-10 -3 5 53.52 3.86
10 3 -5 53.68 3.86
10 3 -5 54.25 3.66
-10 -2 5 17.62 1.74
10 2 -5 18.74 1.88
10 2 -5 17.24 1.7
-10 -1 5 48.66 3.64
-10 -1 5 46.87 3.86
10 1 -5 56.79 3.62
10 1 -5 61.03 3.98
10 1 -5 58.91 3.75
10 1 -5 62.48 3.8
-10 0 5 19.66 1.79
-10 0 5 18.93 1.89
10 0 -5 19.9 1.96
10 0 -5 18.94 1.79
-10 1 5 59 3.98
-10 1 5 58.2 3.67
10 -1 -5 48.23 3.54
10 -1 -5 50.34 3.83
-10 2 5 18.95 1.89
-10 2 5 18.33 1.98
10 -2 -5 20.32 1.95
10 -2 -5 22.48 1.9
-10 3 5 52.13 3.88
-10 3 5 52.11 3.65
10 -3 -5 53.75 3.63
10 -3 -5 52.86 3.88
-10 4 5 -1.14 1.03
-10 4 5 0.36 0.96
10 -4 -5 0.8 0.96
-10 5 5 1.55 1.12
10 -5 -5 4.47 1.18
-10 6 5 2.9 1.34
10 -6 -5 4.67 1.25
9 6 -5 3.41 0.99
-9 -5 5 4.59 0.95
9 5 -5 3.7 0.95
-9 -4 5 33.78 2.7
9 4 -5 38.76 2.64
-9 -3 5 19.07 1.91
9 3 -5 23.54 1.9
9 3 -5 23.92 1.98
-9 -2 5 40.69 2.77
-9 -2 5 40.63 2.52
9 2 -5 31.11 2.52
9 2 -5 33.34 2.56
9 2 -5 32.15 2.72
-9 -1 5 5.78 0.91
-9 -1 5 4.12 0.97
9 1 -5 2.69 0.89
9 1 -5 2.56 0.79
9 1 -5 1.97 0.79
-9 0 5 92.29 6.16
-9 0 5 92.31 5.76
9 0 -5 91.21 5.77
9 0 -5 97.56 5.79
9 0 -5 92.19 6.17
-9 1 5 1.67 0.94
-9 1 5 1.09 0.73
9 -1 -5 4.72 1
-9 2 5 30.9 2.79
-9 2 5 30.18 2.44
-9 2 5 31.61 2.5
-9 2 5 31.98 2.63
9 -2 -5 41.65 2.58
9 -2 -5 39.69 2.82
9 -2 -5 40.07 2.57
-9 3 5 22.07 1.95
-9 3 5 22.88 2.16
9 -3 -5 20.5 2.04
9 -3 -5 21.66 1.94
-9 4 5 41.42 3.07
-9 4 5 39.83 2.82
9 -4 -5 33.69 2.78
9 -4 -5 34.28 2.89
-9 5 5 2.95 1.16
9 -5 -5 3.51 1.1
-9 6 5 3.36 1.27
9 -6 -5 5.6 1.19
8 7 -5 5.16 1.1
8 6 -5 10.17 1.27
-8 -5 5 8.05 1.11
8 5 -5 12.09 1.35
-8 -4 5 1.83 0.79
8 4 -5 2.35 0.79
-8 -3 5 19.97 2.08
8 3 -5 28.18 2
8 3 -5 27.74 2.1
8 3 -5 26.3 2
-8 -2 5 58.22 3.49
-8 -2 5 52.39 3.74
-8 -2 5 58.64 3.51
8 2 -5 51.42 3.5
8 2 -5 53.24 3.52
8 2 -5 50.68 3.71
-8 -1 5 4.21 0.91
-8 -1 5 5.04 0.84
8 1 -5 7.08 1
8 1 -5 7.53 0.97
8 1 -5 7.12 0.94
-8 0 5 59.21 3.71
-8 0 5 54.75 3.94
8 0 -5 60.89 3.73
8 0 -5 56.79 3.95
8 0 -5 55.84 3.7
-8 1 5 7.78 1.03
-8 1 5 7.33 0.99
-8 1 5 7.04 1.07
8 -1 -5 5.47 0.9
8 -1 -5 5.65 0.91
8 -1 -5 5.22 0.98
-8 2 5 50.55 3.72
-8 2 5 52.66 3.49
-8 2 5 53.5 3.4
-8 2 5 49.23 3.43
8 -2 -5 53.63 3.67
8 -2 -5 52.41 3.39
8 -2 -5 52.14 3.39
-8 3 5 25.76 2.18
-8 3 5 25.35 1.92
-8 3 5 28.37 2.06
-8 3 5 24.4 1.96
8 -3 -5 22.04 1.86
8 -3 -5 19.81 1.89
8 -3 -5 19.96 1.96
-8 4 5 3.01 0.94
-8 4 5 3.14 1.04
8 -4 -5 2.31 0.95
8 -4 -5 2.56 0.89
-8 5 5 9.03 1.35
8 -5 -5 7.58 1.25
-8 6 5 10.57 1.52
8 -6 -5 9.77 1.38
-8 7 5 4.75 1.34
8 -7 -5 4.4 1.06
7 7 -5 8.55 1.17
7 6 -5 10.06 1.28
-7 -5 5 7.58 0.93
7 5 -5 5.8 0.97
7 5 -5 4.43 0.91
-7 -4 5 39.66 2.84
7 4 -5 37.54 2.7
7 4 -5 41.46 2.76
-7 -3 5 123.43 7.82
-7 -3 5 120.42 7.81
7 3 -5 122.52 7.83
7 3 -5 130.53 7.4
7 3 -5 117.7 7.35
-7 -2 5 28.28 2.01
-7 -2 5 29.78 2.22
-7 -2 5 27.54 2.19
-7 -2 5 29.58 2.01
7 2 -5 27.37 2.18
7 2 -5 28.85 2.06
7 2 -5 26.02 2.03
-7 -1 5 129.43 7.82
-7 -1 5 128.07 8.32
7 1 -5 133.64 8.36
7 1 -5 131.43 7.85
7 1 -5 134.15 7.86
-7 0 5 -0.51 0.57
-7 0 5 0.19 0.64
7 0 -5 0.07 0.51
7 0 -5 0.06 0.52
7 0 -5 0.02 0.65
7 0 -5 0.65 0.52
-7 1 5 129.19 7.72
-7 1 5 129.12 7.72
-7 1 5 128.99 8.21
7 -1 -5 126 7.49
7 -1 -5 128.26 8.2
7 -1 -5 130.95 7.71
-7 2 5 27.75 1.98
-7 2 5 26.33 2.04
-7 2 5 26.15 2.18
-7 2 5 28.38 2.09
7 -2 -5 27.89 2.2
7 -2 -5 26.48 1.97
7 -2 -5 28.38 2.05
-7 3 5 126.46 7.33
-7 3 5 129.83 7.54
-7 3 5 121.5 7.5
-7 3 5 128.16 8.01
7 -3 -5 124.7 7.33
7 -3 -5 114.72 7.94
7 -3 -5 124.8 7.43
-7 4 5 41.39 2.83
-7 4 5 40.7 2.83
-7 4 5 41.37 3.07
7 -4 -5 40.12 2.82
7 -4 -5 37.15 2.77
7 -4 -5 37.32 2.9
-7 5 5 4.9 1.1
7 -5 -5 6.61 1.25
7 -5 -5 7.74 1.14
-7 6 5 10 1.38
7 -6 -5 7.78 1.2
-7 7 5 9.38 1.43
7 -7 -5 7.68 1.14
6 7 -5 5 1.01
6 6 -5 1.91 0.79
-6 -5 5 32.44 2.26
6 5 -5 30.91 2.29
6 5 -5 30.13 2.24
6 5 -5 31.38 2.28
-6 -4 5 52.56 3.52
-6 -4 5 54.12 3.52
6 4 -5 51.33 3.56
6 4 -5 49.03 3.31
6 4 -5 52.07 3.37
-6 -3 5 12.64 1.33
-6 -3 5 13.67 1.32
6 3 -5 12.21 1.23
6 3 -5 13.22 1.22
6 3 -5 12.03 1.27
-6 -2 5 7 0.97
-6 -2 5 7.84 1.13
-6 -2 5 7.89 1.12
6 2 -5 11.23 1.12
6 2 -5 10.9 1.06
6 2 -5 11.14 1.06
-6 -1 5 120.1 7.3
-6 -1 5 120.18 7.77
6 1 -5 126.77 7.34
6 1 -5 120.21 7.31
6 1 -5 127.34 7.81
-6 0 5 344.45 19.73
-6 0 5 341.56 19.72
-6 0 5 339.39 20.92
6 0 -5 344.19 19.73
6 0 -5 344.09 20.94
6 0 -5 324.47 19.08
6 0 -5 340.64 19.72
-6 1 5 117.63 7.35
-6 1 5 126.28 7.86
-6 1 5 131.04 7.41
6 -1 -5 119.59 7.14
6 -1 -5 121.77 7.36
6 -1 -5 124.74 7.86
-6 2 5 11.45 1.17
-6 2 5 11.03 1.26
-6 2 5 10.92 1.12
-6 2 5 10.64 1.11
6 -2 -5 8.46 1.07
6 -2 -5 8.06 1.01
6 -2 -5 7.74 1.08
-6 3 5 12.73 1.29
-6 3 5 12.64 1.3
-6 3 5 13.38 1.34
-6 3 5 13.77 1.45
6 -3 -5 13.61 1.31
6 -3 -5 14.32 1.4
6 -3 -5 14.08 1.43
-6 4 5 55.79 3.52
-6 4 5 52.19 3.72
-6 4 5 54.96 3.56
-6 4 5 51.67 3.49
6 -4 -5 53.18 3.55
6 -4 -5 54.99 3.5
6 -4 -5 52.88 3.7
-6 5 5 30.17 2.37
6 -5 -5 31.47 2.28
6 -5 -5 30.96 2.39
6 -5 -5 34.44 2.52
-6 6 5 0.56 0.89
6 -6 -5 2.92 0.83
-6 7 5 5.84 1.24
5 7 -5 4.09 0.91
5 6 -5 14.67 1.38
-5 -5 5 1 0.59
5 5 -5 3.17 0.76
5 5 -5 3.04 0.67
5 5 -5 2.64 0.73
5 5 -5 2.63 0.74
-5 -4 5 14.61 1.43
-5 -4 5 13.17 1.44
5 4 -5 19.05 1.42
5 4 -5 17.78 1.44
5 4 -5 19.44 1.44
5 4 -5 17.66 1.51
-5 -3 5 44.36 3.14
-5 -3 5 45.86 3.14
5 3 -5 48.7 2.99
5 3 -5 45.93 3.15
5 3 -5 45.91 2.96
-5 -2 5 15.54 1.45
-5 -2 5 15.29 1.46
5 2 -5 17.27 1.37
5 2 -5 17.59 1.37
5 2 -5 18.52 1.48
-5 -1 5 189.34 12.29
-5 -1 5 186 11.55
-5 -1 5 201.69 12.31
5 1 -5 210.41 11.6
5 1 -5 202.24 12.3
5 1 -5 198.62 11.58
-5 0 5 60.52 4.06
-5 0 5 61.67 3.79
-5 0 5 62.71 3.81
5 0 -5 63.21 3.71
5 0 -5 61.77 3.79
5 0 -5 56.86 3.77
5 0 -5 61.6 4.04
-5 1 5 207.11 11.39
-5 1 5 203.66 11.38
-5 1 5 199.27 12.07
5 -1 -5 188.13 12.06
5 -1 -5 184.24 10.99
5 -1 -5 186.92 11.35
5 -1 -5 189.04 11.36
-5 2 5 19.62 1.45
-5 2 5 18.45 1.4
-5 2 5 17.58 1.47
-5 2 5 17.55 1.33
5 -2 -5 16 1.35
5 -2 -5 15.85 1.35
5 -2 -5 15.51 1.42
5 -2 -5 14.31 1.47
-5 3 5 44.64 2.95
-5 3 5 46.11 3.17
-5 3 5 46.88 2.93
-5 3 5 48.03 3.02
5 -3 -5 48.05 3.17
5 -3 -5 44.97 3.16
5 -3 -5 42.89 3.01
5 -3 -5 43.52 2.9
-5 4 5 17.75 1.54
-5 4 5 18.59 1.48
-5 4 5 19.08 1.61
-5 4 5 18.91 1.51
5 -4 -5 14.21 1.35
5 -4 -5 13.8 1.49
5 -4 -5 15.54 1.54
5 -4 -5 13.23 1.42
-5 5 5 3.87 0.97
-5 5 5 2.49 0.86
-5 5 5 3.19 0.83
5 -5 -5 0.28 0.79
-5 6 5 15.61 1.6
5 -6 -5 15.72 1.46
-5 7 5 4.22 1.07
4 7 -5 18.24 1.63
4 6 -5 7.06 0.96
-4 -5 5 1.62 0.58
4 5 -5 0.33 0.63
4 5 -5 0.05 0.58
4 5 -5 0.45 0.52
-4 -4 5 13.08 1.19
-4 -4 5 12.11 1.2
4 4 -5 10.91 1.13
4 4 -5 11.24 1.22
4 4 -5 11.09 1.08
4 4 -5 11.35 1.17
-4 -3 5 46.87 3.32
-4 -3 5 46.1 3.3
4 3 -5 51.17 3.15
4 3 -5 48.54 3.32
4 3 -5 52.65 3.15
4 3 -5 50.38 3.15
4 3 -5 51.67 3.25
-4 -2 5 119.89 7.99
-4 -2 5 123.88 7.49
-4 -2 5 122.21 7.99
4 2 -5 134.9 7.56
4 2 -5 129.49 7.54
4 2 -5 134.83 8.02
-4 -1 5 56.16 3.62
-4 -1 5 54.25 3.37
-4 -1 5 52.72 3.36
-4 -1 5 56.69 3.63
-4 -1 5 55.19 3.38
4 1 -5 51.86 3.59
4 1 -5 52.96 3.38
4 1 -5 54.35 3.38
-4 0 5 34.56 2.35
-4 0 5 35.89 2.53
-4 0 5 36.8 2.38
4 0 -5 36.69 2.36
4 0 -5 36.98 2.39
4 0 -5 36.41 2.55
-4 1 5 52.58 3.39
-4 1 5 54.66 3.39
-4 1 5 52 3.59
4 -1 -5 54.91 3.61
4 -1 -5 57.11 3.63
4 -1 -5 53.46 3.26
4 -1 -5 54.23 3.38
4 -1 -5 55.52 3.37
-4 2 5 133.18 7.35
-4 2 5 127.19 7.1
-4 2 5 131.93 7.81
-4 2 5 128.65 7.33
4 -2 -5 118.99 7.1
4 -2 -5 116.68 7.58
4 -2 -5 120.04 7.77
4 -2 -5 115.33 7.76
4 -2 -5 122.06 7.28
-4 3 5 51.7 3.12
-4 3 5 50.8 3.05
-4 3 5 52.73 3.32
-4 3 5 50.94 3.1
4 -3 -5 44.14 3.02
4 -3 -5 50.09 3.31
4 -3 -5 45.57 3.17
4 -3 -5 44.18 3.24
4 -3 -5 49.7 3.3
-4 4 5 11.2 1.25
-4 4 5 12.03 1.29
-4 4 5 11.93 1.19
-4 4 5 11.73 1.27
4 -4 -5 12.12 1.27
4 -4 -5 13.16 1.16
4 -4 -5 14.47 1.31
4 -4 -5 13.05 1.24
-4 5 5 -0.04 0.68
-4 5 5 0.61 0.64
-4 5 5 0.57 0.83
4 -5 -5 2.38 0.67
4 -5 -5 1.62 0.59
4 -5 -5 2.44 0.81
-4 6 5 6.76 1.05
4 -6 -5 7.5 0.89
-4 7 5 19.08 1.77
3 7 -5 4.88 0.92
3 6 -5 19.74 1.65
3 6 -5 22.18 1.75
-3 -5 5 3.96 0.69
-3 -5 5 4.58 0.69
3 5 -5 2.82 0.69
3 5 -5 2.66 0.72
3 5 -5 3.47 0.59
-3 -4 5 68.74 4.84
-3 -4 5 68.44 4.85
3 4 -5 78.82 4.61
3 4 -5 81.02 4.63
3 4 -5 79.62 4.73
3 4 -5 77.88 4.89
-3 -3 5 39.62 2.75
-3 -3 5 40.38 2.76
3 3 -5 39.17 2.75
3 3 -5 41.18 2.66
3 3 -5 41.57 2.61
3 3 -5 39.95 2.6
3 2 -5 25.08 1.85
3 2 -5 23.82 1.76
3 2 -5 25.69 1.75
3 2 -5 24.67 1.71
3 2 -5 24.35 1.77
-3 -1 5 130.87 7.56
-3 -1 5 123.61 7.09
-3 -1 5 126.04 7.09
-3 -1 5 122.2 7.54
3 1 -5 118.58 7.1
3 1 -5 111.69 7.34
3 1 -5 112.9 7.09
3 1 -5 116.42 7.53
-3 0 5 144.63 8.2
-3 0 5 130.29 8.68
-3 0 5 142.67 8.19
3 0 -5 144.58 8.71
3 0 -5 138.3 8.19
3 0 -5 136.54 8.69
3 0 -5 141.05 8.19
3 0 -5 138.04 8.49
-3 1 5 110.93 7.67
-3 1 5 110.53 7.22
-3 1 5 116.69 7.24
3 -1 -5 127.92 7.69
3 -1 -5 130.24 7.23
3 -1 -5 127.31 6.99
3 -1 -5 126.96 7.69
3 -1 -5 126.12 7.23
3 -1 -5 128.37 7.52
3 -2 -5 14.09 1.26
3 -2 -5 14.64 1.23
3 -2 -5 14.11 1.08
3 -2 -5 13.6 1.18
-3 3 5 42.75 2.57
-3 3 5 40.55 2.58
-3 3 5 43.29 2.75
-3 3 5 42.53 2.6
3 -3 -5 40.53 2.73
3 -3 -5 39.16 2.54
3 -3 -5 39.59 2.73
3 -3 -5 37.22 2.71
3 -3 -5 38.03 2.66
-3 4 5 79.88 4.59
-3 4 5 76.83 4.85
-3 4 5 84.27 4.56
-3 4 5 79.3 4.58
3 -4 -5 68.59 4.5
3 -4 -5 69.24 4.69
3 -4 -5 71.08 4.8
3 -4 -5 73.48 4.81
-3 5 5 3.3 0.71
-3 5 5 2.78 0.86
-3 5 5 2.2 0.71
3 -5 -5 4.34 0.63
3 -5 -5 5.11 0.67
3 -5 -5 4.96 0.65
-3 6 5 24.74 2.06
-3 6 5 21.12 1.75
-3 6 5 23.05 1.79
-3 7 5 5.8 1
2 8 -5 5.12 1.06
2 7 -5 9.72 1.27
2 6 -5 2.42 0.75
2 6 -5 2.94 0.78
2 5 -5 32.16 2.08
2 5 -5 30.21 2.17
2 5 -5 32.91 2.23
-2 -4 5 4.72 0.73
-2 -4 5 3.83 0.69
2 4 -5 4.07 0.66
2 4 -5 4.62 0.62
2 4 -5 4.43 0.73
2 4 -5 4.81 0.73
-2 -3 5 48.43 2.99
-2 -3 5 49.47 2.99
2 3 -5 41.08 2.78
2 3 -5 42.43 2.8
2 3 -5 41.39 2.97
2 3 -5 42 2.84
-2 -2 5 13.58 1.07
-2 -2 5 13.04 1.23
-2 -2 5 13.61 1.23
2 2 -5 13.22 1.1
2 2 -5 14.2 1.17
2 2 -5 13.12 1.2
2 2 -5 12.36 1.12
-2 -1 5 175.36 9.84
-2 -1 5 157.57 9.8
-2 -1 5 161.64 9.23
-2 -1 5 169.08 9.24
2 1 -5 148.48 9.23
2 1 -5 153.33 9.56
2 1 -5 155.72 9.24
2 1 -5 148.89 9.23
2 1 -5 152.97 9.8
-2 0 5 116.59 7.19
-2 0 5 123.8 7.64
-2 0 5 124.79 7.21
2 0 -5 122.8 7.2
2 0 -5 118.96 7.64
2 0 -5 120.91 7.19
2 0 -5 130.56 7.67
2 0 -5 120.54 7.46
-2 1 5 150.75 9.74
-2 1 5 150.96 9.97
-2 1 5 154.85 9.4
-2 1 5 153.15 9.39
2 -1 -5 165.65 9.97
2 -1 -5 165.72 9.38
2 -1 -5 164.32 9.75
2 -1 -5 166.15 9.38
2 -1 -5 168.44 9.06
2 -1 -5 170.7 9.98
-2 2 5 13.06 1.1
-2 2 5 12.89 1.21
-2 2 5 13.34 1.02
-2 2 5 13.48 1.08
2 -2 -5 13.49 1.19
2 -2 -5 13.72 0.99
2 -2 -5 12.98 1.16
2 -2 -5 13.09 1.01
2 -2 -5 13.61 1.18
-2 3 5 41.53 2.77
-2 3 5 41.44 3.01
-2 3 5 41.1 2.8
-2 3 5 42.35 2.83
2 -3 -5 51.51 3.01
2 -3 -5 51.24 3.01
2 -3 -5 49.8 2.96
-2 4 5 4.38 0.63
-2 4 5 4.35 0.74
-2 4 5 4.25 0.71
-2 4 5 4.35 0.65
2 -4 -5 4.61 0.61
2 -4 -5 4.17 0.71
2 -4 -5 4.9 0.65
2 -4 -5 4.43 0.61
-2 5 5 31.06 2.13
-2 5 5 33.23 2.3
-2 5 5 32.57 2.15
-2 6 5 3.86 0.99
-2 6 5 2.74 0.69
-2 6 5 2.73 0.71
-2 7 5 9.1 1.15
-2 8 5 4.11 0.93
1 8 -5 4.89 1.06
1 7 -5 5.42 0.99
-1 -6 5 52.63 3.44
1 6 -5 50.66 3.42
1 6 -5 55.52 3.46
-1 -5 5 22.23 1.75
-1 -5 5 23.17 1.75
1 5 -5 20.99 1.69
1 5 -5 22.8 1.73
1 5 -5 22.41 1.49
-1 -4 5 69.54 4.25
-1 -4 5 65.87 4.23
1 4 -5 66.89 4.02
1 4 -5 62.11 4
1 4 -5 62.5 4.25
1 4 -5 63.32 4.03
-1 -3 5 96.03 6.24
-1 -3 5 100.94 6.25
1 3 -5 96.77 5.88
1 3 -5 97.62 6.03
1 3 -5 101.92 6.27
-1 -2 5 51.91 3.64
-1 -2 5 50.62 3.49
-1 -2 5 54.53 3.65
-1 -2 5 52.19 3.38
1 2 -5 58.55 3.43
1 2 -5 61.01 3.44
1 2 -5 58.11 3.51
1 2 -5 58.1 3.64
-1 -1 5 91.45 5.71
-1 -1 5 89.74 6.07
-1 -1 5 98.89 6.11
-1 -1 5 90.43 5.91
1 1 -5 100.1 5.73
1 1 -5 99.81 6.09
1 1 -5 101.08 5.93
1 1 -5 101 5.74
-1 0 5 19.32 1.46
-1 0 5 18.35 1.33
-1 0 5 18.71 1.38
-1 0 5 19.39 1.51
-1 0 5 18.12 1.34
1 0 -5 19.52 1.34
1 0 -5 18.28 1.36
1 0 -5 19.94 1.53
1 0 -5 18.39 1.42
1 0 -5 17.42 1.42
-1 1 5 97.64 5.54
-1 1 5 93.94 5.88
-1 1 5 94.42 5.76
-1 1 5 94.07 5.53
1 -1 -5 92.08 5.29
1 -1 -5 91.42 5.51
1 -1 -5 90.16 5.87
1 -1 -5 91.76 5.75
1 -1 -5 97.15 5.89
1 -1 -5 93.41 5.52
-1 2 5 60.32 3.33
-1 2 5 57.86 3.54
-1 2 5 57.9 3.17
-1 2 5 58.41 3.49
-1 2 5 57.83 3.3
1 -2 -5 49.02 3.16
1 -2 -5 50.42 3.51
1 -2 -5 49.29 3.45
1 -2 -5 50.76 3.5
-1 3 5 92.57 5.55
-1 3 5 93.1 5.56
-1 3 5 96.91 5.93
-1 3 5 95.82 5.42
-1 3 5 95.87 5.82
1 -3 -5 96.43 5.81
1 -3 -5 98.6 5.89
1 -3 -5 87.07 5.39
1 -3 -5 93.43 5.88
-1 4 5 61.43 3.83
-1 4 5 59.78 3.81
-1 4 5 63.1 4.09
-1 4 5 63.28 3.83
1 -4 -5 64.61 3.99
1 -4 -5 67.02 3.99
1 -4 -5 67.21 4.02
-1 5 5 22.48 1.55
-1 5 5 19.29 1.51
-1 5 5 22.01 1.73
1 -5 -5 24.54 1.61
-1 6 5 55.34 3.43
-1 6 5 48.97 3.19
-1 6 5 51.82 3.21
-1 7 5 5.57 0.84
-1 7 5 5.07 0.81
-1 8 5 4.7 0.87
0 8 -5 2.14 0.99
0 7 -5 2.19 0.84
0 -6 5 13.22 1.19
0 6 -5 8.08 1.13
0 -5 5 89.22 5.54
0 5 -5 81.63 5.26
0 5 -5 88.04 5.29
0 -4 5 19.52 1.86
0 -4 5 20.96 1.87
0 4 -5 26.17 1.87
0 4 -5 27.21 1.8
0 4 -5 26.65 1.8
0 4 -5 26.02 1.67
0 -3 5 3.75 0.67
0 -3 5 3.43 0.56
0 -3 5 2.56 0.65
0 3 -5 4.59 0.68
0 3 -5 4.86 0.72
0 3 -5 4.8 0.6
0 3 -5 5 0.68
0 -2 5 46.63 2.85
0 -2 5 45.33 2.63
0 -2 5 45.76 2.71
0 -2 5 45.53 2.86
0 2 -5 33.68 2.64
0 2 -5 33.8 2.8
0 -1 5 299.86 17.98
0 -1 5 323.82 18
0 -1 5 298.17 16.95
0 -1 5 302.85 17.53
0 1 -5 261.38 16.93
0 1 -5 284.18 17.97
0 1 -5 288.79 16.96
0 1 -5 285.9 17.53
0 0 5 68.91 4.24
0 0 5 64.53 3.95
0 0 5 63.06 3.95
0 0 5 66.31 4.22
0 0 -5 67.66 4.12
0 0 -5 65.69 3.96
0 0 -5 64.7 4.22
0 0 -5 65.12 3.96
0 0 -5 66.23 4.21
0 0 -5 65.95 3.96
0 1 5 283.24 16.8
0 1 5 270.94 17.8
0 1 5 263.72 16.78
0 1 5 267.71 17.4
0 -1 -5 300.64 16.78
0 -1 -5 299.03 17.81
0 -1 -5 306.15 17.82
0 -1 -5 308.87 16.78
0 -1 -5 303.41 17.42
0 -1 -5 305.33 16.15
0 2 5 31.52 2.17
0 2 5 33.03 2.34
0 2 5 30.69 2.31
0 2 5 31.93 2.03
0 2 5 32.98 2.19
0 -2 -5 43.06 2.36
0 -2 -5 41.02 2.05
0 3 5 4.8 0.58
0 3 5 4.25 0.48
0 3 5 4.7 0.59
0 3 5 4.07 0.61
0 3 5 4.3 0.52
0 -3 -5 2.62 0.57
0 -3 -5 2.65 0.47
0 -3 -5 3.29 0.47
0 4 5 25.73 1.8
0 4 5 26.43 1.76
0 4 5 26.23 1.66
0 4 5 24.87 1.64
0 4 5 26.51 1.83
0 5 5 84.93 4.9
0 5 5 81.05 4.84
0 5 5 80.6 4.83
0 6 5 9.66 1.21
0 6 5 8.42 0.85
0 6 5 8.86 0.88
0 7 5 1.37 0.57
0 7 5 1.16 0.56
0 8 5 1.63 0.65
-1 8 -5 10.2 1.38
-1 7 -5 4.97 1.03
1 -6 5 12.12 1.31
-1 6 -5 14.28 1.41
-1 5 -5 6.94 0.97
-1 5 -5 6.92 0.92
1 -4 5 34.05 2.32
1 -4 5 34.54 2.3
1 -4 5 33.43 2.07
-1 4 -5 29.37 2.05
-1 4 -5 29.14 2.28
-1 4 -5 29.31 2.17
-1 4 -5 29.57 2.33
-1 4 -5 28.24 2.14
1 -3 5 145.14 8.79
1 -3 5 136.77 8.48
1 -3 5 134.88 8.77
-1 3 -5 140.04 8.48
-1 3 -5 137.74 8.78
-1 3 -5 142.52 8.1
-1 3 -5 138.64 8.27
-1 3 -5 145.34 8.29
1 -2 5 59.43 4.04
1 -2 5 60.28 3.78
1 -2 5 64.36 4.09
1 -2 5 63.51 3.91
-1 2 -5 61.94 3.92
-1 2 -5 63.22 3.83
-1 2 -5 63.58 4.09
-1 2 -5 61.54 3.82
1 -1 5 155.97 10.25
1 -1 5 150.43 9.9
1 -1 5 152.49 10.52
1 -1 5 166.24 10.55
1 -1 5 156.07 9.92
-1 1 -5 185.38 9.95
-1 1 -5 183.67 10.55
-1 1 -5 192.09 9.95
-1 1 -5 188.43 10.29
1 0 5 32.63 2.15
-1 0 -5 34.21 2.32
-1 0 -5 33.88 2.34
-1 0 -5 32.77 2.14
-1 0 -5 32.26 2.24
1 1 5 184.62 9.69
1 1 5 181.01 10.08
1 1 5 179.61 10.28
1 1 5 174.89 9.67
-1 -1 -5 153.3 10.25
-1 -1 -5 160.45 10.26
-1 -1 -5 153.47 9.63
-1 -1 -5 154.84 9.64
-1 -1 -5 154.51 10.05
1 2 5 60.4 3.4
1 2 5 58.22 3.61
1 2 5 59.98 3.83
1 2 5 60.28 3.62
1 2 5 60.37 3.86
-1 -2 -5 58.79 3.85
-1 -2 -5 63.33 3.85
-1 -2 -5 61.86 3.85
1 3 5 137.42 7.88
1 3 5 133.23 8.25
1 3 5 130.99 7.86
1 3 5 135.67 7.63
1 3 5 138.81 8.38
-1 -3 -5 137.72 8.27
-1 -3 -5 134.29 8.33
-1 -3 -5 137 8.33
1 4 5 29.16 1.84
1 4 5 28.12 1.94
1 4 5 27.92 1.72
1 4 5 27.42 1.89
1 4 5 27.62 1.73
1 5 5 7.36 0.91
1 5 5 6.68 0.85
1 6 5 14.36 1.04
1 7 5 5.98 0.75
2 -7 5 11.56 1.24
-2 7 -5 12.01 1.48
2 -6 5 7.67 1.03
-2 6 -5 7.08 1.08
2 -5 5 10.58 1.26
-2 5 -5 10.99 1.37
-2 5 -5 10.81 1.24
2 -4 5 45.95 2.67
2 -4 5 44.71 2.94
2 -4 5 45.98 2.91
-2 4 -5 39.19 2.8
-2 4 -5 38.41 2.75
-2 4 -5 36.12 2.9
-2 4 -5 35.7 2.72
2 -3 5 12.47 1.32
2 -3 5 13.42 1.25
2 -3 5 8.84 0.94
2 -3 5 12.55 1.07
-2 3 -5 11.1 1.3
-2 3 -5 11.48 1.02
-2 3 -5 11.11 1.15
-2 3 -5 11.55 1.22
-2 3 -5 11.62 1.19
2 -2 5 187.83 11.01
2 -2 5 185.4 10.33
2 -2 5 180.58 10.99
-2 2 -5 171.1 10.35
-2 2 -5 181.23 10.36
-2 2 -5 165.87 10.97
-2 2 -5 170.7 10.02
-2 2 -5 169.73 10.66
2 -1 5 55.84 3.49
2 -1 5 48.92 3.2
2 -1 5 52.63 3.25
-2 1 -5 49.63 3.43
-2 1 -5 55.09 3.25
-2 1 -5 51.29 3.24
-2 1 -5 49.79 3.1
-2 1 -5 51.21 3.33
2 0 5 16.79 1.41
2 0 5 16.6 1.28
2 0 5 16.04 1.22
-2 0 -5 16.88 1.34
-2 0 -5 17.18 1.28
-2 0 -5 16.25 1.09
-2 0 -5 16.17 1.25
-2 0 -5 15.18 1.31
-2 0 -5 16.63 1.36
2 1 5 52.09 3.34
2 1 5 52.97 3.13
2 1 5 47.98 3.27
2 1 5 49.39 3.11
-2 -1 -5 51.99 3.33
-2 -1 -5 49.12 3.28
-2 -1 -5 50.16 3.08
-2 -1 -5 51.58 3.08
-2 -1 -5 50.52 3.32
-2 -1 -5 50.56 3.08
2 2 5 161.8 9.83
2 2 5 158.19 9.82
2 2 5 161.68 10.26
2 2 5 165.18 10.45
-2 -2 -5 176.32 10.44
-2 -2 -5 179.47 10.44
-2 -2 -5 183.12 10.29
2 3 5 11.57 0.85
2 3 5 11.21 0.99
2 3 5 10.54 0.87
2 3 5 11.59 1.1
2 3 5 10.88 0.86
-2 -3 -5 12.06 0.91
-2 -3 -5 11.31 1.1
-2 -3 -5 11.83 0.91
2 4 5 33.4 2.09
2 4 5 35.07 2.35
2 4 5 32.87 2.27
2 4 5 34.64 2.08
2 4 5 37.5 2.19
2 5 5 9.95 1.01
2 5 5 10.38 1.11
3 -7 5 0.13 0.72
-3 7 -5 0.57 0.92
3 -6 5 20.92 1.82
-3 6 -5 19.68 1.8
3 -5 5 89.65 5.24
3 -5 5 89.44 5.61
-3 5 -5 78.61 5.29
-3 5 -5 82.42 5.33
3 -4 5 15.79 1.65
3 -4 5 17.19 1.66
-3 4 -5 19.1 1.54
-3 4 -5 18.34 1.56
-3 4 -5 18.44 1.62
-3 4 -5 18.39 1.66
3 -3 5 44.99 3.49
3 -3 5 43.76 3.19
3 -3 5 43.76 3.46
-3 3 -5 58.15 3.32
-3 3 -5 56.43 3.34
-3 3 -5 56.57 3.32
-3 3 -5 57.42 3.55
3 -2 5 24.11 2.02
3 -2 5 25.28 2.09
3 -2 5 23.18 1.87
3 -2 5 24.76 1.91
-3 2 -5 29.67 1.94
-3 2 -5 28.75 2.05
-3 2 -5 28.6 1.87
-3 2 -5 29.04 1.91
-3 2 -5 30.42 1.92
3 -1 5 127.57 7.1
3 -1 5 123.7 6.64
3 -1 5 124.32 6.65
-3 1 -5 104.82 6.62
-3 1 -5 100.4 6.84
-3 1 -5 103.05 6.61
-3 1 -5 101.9 6.36
-3 1 -5 105.81 7.04
3 0 5 105.7 6.07
3 0 5 108.21 6.79
3 0 5 105.19 6.36
3 0 5 110.13 6.38
-3 0 -5 105.9 6.77
-3 0 -5 107.98 6.07
-3 0 -5 100.61 6.34
-3 0 -5 111.1 6.63
-3 0 -5 110.19 6.78
3 1 5 97.06 6.54
3 1 5 101.62 6.56
3 1 5 100.25 6.84
3 1 5 102.6 6.97
3 1 5 100.36 6.2
-3 -1 -5 120.24 6.99
-3 -1 -5 126.03 7
-3 -1 -5 125.64 6.9
-3 -1 -5 128.31 6.55
3 2 5 28.42 1.77
3 2 5 28.87 1.92
3 2 5 28.45 1.93
3 2 5 28.19 1.76
-3 -2 -5 23.19 1.86
-3 -2 -5 24.23 1.92
-3 -2 -5 25.14 1.9
3 3 5 52.28 3.3
3 3 5 53.38 3.04
3 3 5 54.14 3.27
3 3 5 54.62 2.93
3 3 5 52.91 3.04
-3 -3 -5 42.22 3.18
-3 -3 -5 42.8 3.18
3 4 5 18.63 1.32
3 4 5 17.45 1.29
3 4 5 16.75 1.45
3 4 5 16.52 1.16
3 4 5 16.95 1.16
3 5 5 82.76 4.74
3 5 5 76.95 5.01
4 -7 5 5.05 0.99
-4 7 -5 2.76 1.09
4 -6 5 11.39 1.53
-4 6 -5 15.46 1.6
4 -5 5 15.49 1.73
-4 5 -5 20.9 1.75
4 -4 5 52.86 3.44
4 -4 5 57.8 3.49
4 -4 5 55.74 3.2
-4 4 -5 43.4 3.41
-4 4 -5 42.33 3.18
-4 4 -5 41.28 3.19
-4 4 -5 43.2 3.18
-4 3 -5 7.34 0.96
-4 3 -5 8.04 1.03
-4 3 -5 6.86 1.06
-4 3 -5 7.27 0.95
4 -2 5 154.31 9.32
4 -2 5 152.49 9.93
4 -2 5 153.76 9.64
-4 2 -5 161.11 9.37
-4 2 -5 162.07 9.96
-4 2 -5 162.43 9.36
-4 2 -5 160.87 9.07
4 -1 5 123.58 7.94
4 -1 5 125.12 8.47
4 -1 5 122.03 7.65
4 -1 5 122.94 7.95
4 -1 5 121.17 8.22
-4 1 -5 149.85 7.99
-4 1 -5 143.53 7.98
-4 1 -5 147.24 7.69
-4 1 -5 141.37 8.26
-4 1 -5 147.68 8.51
4 0 5 37.52 2.34
4 0 5 38.61 2.52
4 0 5 39.03 2.53
4 0 5 39.86 2.73
-4 0 -5 36.54 2.6
-4 0 -5 39.65 2.68
-4 0 -5 38.1 2.49
-4 0 -5 38.13 2.67
-4 0 -5 36.89 2.32
-4 0 -5 39.26 2.51
4 1 5 141.66 7.89
4 1 5 136.47 8.21
4 1 5 141.14 7.49
4 1 5 144.08 7.89
4 1 5 144.33 8.39
-4 -1 -5 125.62 8.35
-4 -1 -5 125.68 8.36
-4 -1 -5 123.21 7.82
-4 -1 -5 119.6 8.18
4 2 5 155.72 8.88
4 2 5 145.69 9.27
4 2 5 160.73 9.45
4 2 5 152.11 8.87
4 2 5 151.52 8.46
-4 -2 -5 149.53 9.4
-4 -2 -5 145.49 9.4
4 3 5 6.59 0.78
4 3 5 7.23 0.96
4 3 5 7.78 0.78
4 3 5 6.63 0.9
4 4 5 39.74 2.46
4 4 5 40.18 2.65
4 4 5 38.72 2.46
4 4 5 38.32 2.72
4 4 5 40.99 2.47
4 5 5 18.99 1.34
4 5 5 21.31 1.61
4 5 5 19.46 1.64
5 -7 5 12.31 1.58
-5 7 -5 11.13 1.59
5 -6 5 5.09 1.08
-5 6 -5 4.45 1.1
5 -5 5 39.02 3.11
-5 5 -5 43.78 3
5 -4 5 125.12 8.33
5 -4 5 130.2 8.02
-5 4 -5 127.29 8.37
-5 4 -5 130.12 7.88
-5 4 -5 137.5 7.92
5 -3 5 47.14 3.16
5 -3 5 46.73 2.97
5 -3 5 48.89 2.91
-5 3 -5 39.35 3.14
-5 3 -5 40.6 2.89
-5 3 -5 39.91 2.93
-5 3 -5 39.4 2.9
5 -2 5 86.57 4.78
5 -2 5 84.04 5.25
5 -2 5 83.91 4.88
5 -2 5 85.08 5.05
-5 2 -5 72.72 4.88
-5 2 -5 74.53 4.88
-5 2 -5 72.99 4.73
-5 2 -5 73.64 5.22
5 -1 5 10.6 1.04
5 -1 5 10.62 1.21
5 -1 5 10.25 1.09
5 -1 5 9.56 1.14
5 -1 5 9.88 1.18
5 0 5 220.46 12.76
5 0 5 214.19 12.24
5 0 5 216.43 12.75
5 0 5 211.65 13.53
-5 0 -5 220.85 12.74
-5 0 -5 224.34 13.56
-5 0 -5 218.36 12.25
5 1 5 17.2 1.5
5 1 5 16.3 1.41
5 1 5 17.41 1.51
5 1 5 16.37 1.16
5 1 5 16.16 1.35
5 2 5 69.64 4.17
5 2 5 66.15 4.67
5 2 5 68.59 4.72
5 2 5 69.76 4.44
5 2 5 69.13 4.44
-5 -2 -5 85.22 4.76
-5 -2 -5 83.84 4.74
5 3 5 38.01 2.49
5 3 5 35.36 2.71
5 3 5 36.52 2.68
5 3 5 34.01 2.48
-5 -3 -5 44.28 2.64
-5 -3 -5 45.37 2.65
5 4 5 128.73 7.66
5 4 5 116 7.2
5 4 5 123.74 7.21
5 5 5 42.07 2.86
5 5 5 42.2 2.56
5 5 5 37.92 2.54
5 6 5 4.32 0.63
5 6 5 5.56 0.66
6 -7 5 11.89 1.51
-6 7 -5 9.62 1.59
6 -6 5 8.68 1.35
-6 6 -5 6.71 1.3
6 -5 5 49.44 3.56
-6 5 -5 46.05 3.39
6 -4 5 24.66 2.27
6 -4 5 26.54 2.08
-6 4 -5 27.58 2.36
-6 4 -5 27.08 2.16
6 -3 5 15.99 1.49
6 -3 5 17.31 1.66
6 -3 5 16.96 1.68
6 -3 5 17.2 1.5
6 -2 5 24.38 1.83
6 -2 5 23.09 1.85
6 -2 5 21.92 1.81
6 -2 5 24.49 1.98
-6 2 -5 23.58 1.8
-6 2 -5 22.83 1.82
-6 2 -5 20.79 1.77
-6 2 -5 22.25 2.01
6 -1 5 77.6 4.79
6 -1 5 79.94 5.13
6 -1 5 78.77 4.81
6 -1 5 74.99 4.95
6 -1 5 76.66 4.59
-6 1 -5 79.28 4.81
-6 1 -5 74.69 4.78
-6 1 -5 74.43 5.1
-6 1 -5 78.66 4.6
6 0 5 33.25 2.16
6 0 5 33.65 2.57
6 0 5 34.51 2.38
6 0 5 35.02 2.39
-6 0 -5 34.19 2.17
-6 0 -5 34.04 2.29
-6 0 -5 33.62 2.51
6 1 5 73.28 4.43
6 1 5 77.15 4.72
6 1 5 74.23 5.02
6 1 5 74.16 4.93
6 1 5 75.07 4.72
-6 -1 -5 81.98 5.05
-6 -1 -5 78.81 4.66
-6 -1 -5 78.38 5.02
6 2 5 20.53 1.43
6 2 5 20.18 1.75
6 2 5 20.82 1.75
6 2 5 20.1 1.63
6 2 5 22.99 1.65
-6 -2 -5 24.44 1.75
-6 -2 -5 21.6 1.71
6 3 5 25.09 1.83
6 3 5 27.16 1.85
6 3 5 23.68 2.01
6 3 5 26.44 1.69
6 3 5 25.62 1.96
6 4 5 24.75 1.8
6 4 5 25.03 2.04
6 4 5 26.59 1.81
-6 -4 -5 24.63 1.74
-6 -4 -5 25.81 1.75
6 5 5 47.07 3.21
6 5 5 46.21 2.9
6 5 5 43.53 2.88
6 6 5 6.94 0.83
6 6 5 7.3 0.93
6 7 5 7.49 0.95
6 7 5 7.08 0.83
7 -7 5 0.66 1.05
-7 7 -5 -0.04 1.17
7 -6 5 15.01 1.88
-7 6 -5 17.71 1.98
7 -5 5 4.19 1.15
-7 5 -5 4.24 1.14
7 -4 5 4.01 0.9
7 -4 5 3.77 1.08
-7 4 -5 4.01 1.02
-7 4 -5 3.45 1.13
7 -3 5 1.73 0.92
7 -3 5 1.51 0.77
7 -3 5 1.34 0.82
7 -3 5 1.35 0.78
-7 3 -5 1.26 0.83
-7 3 -5 2.27 0.87
-7 3 -5 2.6 0.9
-7 3 -5 1.88 0.89
7 -2 5 147.65 9.19
7 -2 5 138.87 8.31
7 -2 5 142.22 8.89
7 -2 5 149.29 8.61
-7 2 -5 139 9.15
-7 2 -5 144.05 8.31
-7 2 -5 135.79 8.58
-7 2 -5 147.32 8.64
7 -1 5 4.33 0.87
7 -1 5 4.58 0.78
7 -1 5 5.08 0.88
7 -1 5 4.61 0.85
7 -1 5 5.22 1.03
-7 1 -5 6.32 1.01
-7 1 -5 6.88 0.87
-7 1 -5 6.14 0.9
7 0 5 1.09 0.67
7 0 5 1.3 0.7
7 0 5 0.93 0.55
7 0 5 0.52 0.57
-7 0 -5 0.97 0.52
-7 0 -5 1.04 0.61
-7 0 -5 1.12 0.73
7 1 5 6.92 0.89
7 1 5 5.69 0.89
7 1 5 5.91 0.97
7 1 5 6.23 0.73
7 1 5 5.79 0.94
-7 -1 -5 4.35 0.9
-7 -1 -5 5.19 0.94
-7 -1 -5 5.63 0.78
7 2 5 146.19 8.83
7 2 5 134.79 8.66
7 2 5 139.28 7.9
7 2 5 139.84 8.28
7 2 5 135.7 8.28
-7 -2 -5 137.84 8.78
-7 -2 -5 139.77 8.78
7 3 5 1.28 0.69
7 3 5 1.6 0.65
7 3 5 2.15 0.54
7 3 5 1.4 0.81
7 3 5 1.45 0.64
-7 -3 -5 1.25 0.65
-7 -3 -5 1.51 0.67
-7 -3 -5 1.95 0.66
7 4 5 4.74 0.71
7 4 5 4.24 0.96
7 4 5 3.63 0.75
7 4 5 3.43 0.74
-7 -4 -5 2.79 0.63
7 5 5 6.08 0.88
7 5 5 5.68 0.85
7 6 5 14.63 1.35
7 6 5 15.51 1.4
7 7 5 1.06 0.63
8 -6 5 8.18 1.48
-8 6 -5 9.13 1.55
8 -5 5 21.14 2.18
-8 5 -5 24.09 2.18
8 -4 5 47.65 3.56
8 -4 5 48.91 3.36
8 -4 5 50.84 3.37
-8 4 -5 42.34 3.33
-8 4 -5 44.12 3.62
8 -3 5 5.1 1
8 -3 5 4.68 1.08
8 -3 5 5.41 1
-8 3 -5 1.71 1
-8 3 -5 3.4 1
8 -2 5 -0.6 0.7
8 -2 5 0.26 0.65
8 -2 5 0.24 0.72
8 -2 5 -0.54 0.77
-8 2 -5 0.99 0.82
-8 2 -5 -0.49 0.86
-8 2 -5 0.99 0.75
8 -1 5 31.33 1.96
8 -1 5 32.4 2.16
8 -1 5 28.34 2.23
8 -1 5 29.3 2.13
-8 1 -5 20.83 1.88
-8 1 -5 21.56 2.15
-8 1 -5 19.39 1.97
8 0 5 32.22 2.51
8 0 5 32.35 2.38
8 0 5 30.71 2.35
8 0 5 31.8 2.15
-8 0 -5 33.16 2.21
-8 0 -5 31.7 2.56
-8 0 -5 32.06 2.32
8 1 5 19.48 1.8
8 1 5 22.32 1.9
8 1 5 19.25 1.72
8 1 5 20.66 1.74
8 1 5 21.09 1.53
8 2 5 -0.18 0.63
8 2 5 0.7 0.73
8 2 5 -0.52 0.49
8 2 5 0 0.65
8 2 5 0.16 0.69
-8 -2 -5 0.28 0.66
-8 -2 -5 0.25 0.68
8 3 5 2.25 0.93
8 3 5 3.42 0.79
8 3 5 2.8 0.79
8 3 5 2.83 0.65
-8 -3 -5 4.73 0.84
-8 -3 -5 5.55 0.87
8 4 5 40.24 3.16
8 4 5 44.92 2.95
8 4 5 41.31 2.92
-8 -4 -5 47.37 2.99
8 5 5 21.79 1.76
8 6 5 9.84 1.19
9 -6 5 3.22 1.28
-9 6 -5 1.25 1.26
9 -5 5 25.87 2.55
-9 5 -5 26.59 2.54
9 -4 5 5.34 1.32
9 -4 5 8.1 1.23
-9 4 -5 8.2 1.41
-9 4 -5 9.44 1.58
9 -3 5 21.28 2.13
9 -3 5 22.88 1.94
9 -3 5 24.92 2.1
-9 3 -5 14.66 2.09
-9 3 -5 16.18 1.91
9 -2 5 27.42 2.45
9 -2 5 26.13 2.38
9 -2 5 26.87 2.55
9 -2 5 29.09 2.31
-9 2 -5 33.65 2.31
-9 2 -5 35.18 2.73
-9 2 -5 37.07 2.44
9 -1 5 54.41 3.58
9 -1 5 55.94 3.79
9 -1 5 51.9 3.91
9 -1 5 55.16 4.09
-9 1 -5 59.19 4.05
-9 1 -5 60.17 3.78
-9 1 -5 57.1 3.59
9 0 5 17.71 1.53
9 0 5 18.36 1.76
9 0 5 17.49 1.72
9 0 5 19.11 1.83
-9 0 -5 18.58 1.53
-9 0 -5 15.8 1.85
-9 0 -5 17.56 1.62
9 1 5 62.13 4.09
9 1 5 58.83 3.53
9 1 5 56.15 3.76
9 1 5 59.67 4.02
9 1 5 59.81 3.79
-9 -1 -5 49.37 3.95
-9 -1 -5 54.03 3.69
9 2 5 35.25 2.48
9 2 5 37.03 2.3
9 2 5 33.76 2.7
9 2 5 36.62 2.74
9 2 5 33.73 2.49
-9 -2 -5 26.48 2.53
9 3 5 15.5 1.75
9 3 5 16.12 1.36
9 3 5 15.9 1.54
9 4 5 7.1 1.05
-9 -4 -5 7.7 1.02
9 5 5 23.86 1.93
9 6 5 2.68 0.84
10 -6 5 4.4 1.42
-10 6 -5 5.15 1.53
10 -5 5 1.29 1.18
-10 5 -5 1.41 1.23
10 -4 5 21.5 2.2
-10 4 -5 17.26 2.32
-10 4 -5 19.32 2.11
10 -3 5 2.3 1.05
10 -3 5 2.79 1.1
-10 3 -5 2.76 1.02
-10 3 -5 1.64 1.1
10 -2 5 43.51 3.59
10 -2 5 46.29 3.19
-10 2 -5 46.56 3.65
-10 2 -5 49.97 3.38
10 -1 5 10.69 1.6
10 -1 5 12.45 1.4
10 -1 5 12.6 1.5
-10 1 -5 11.71 1.53
-10 1 -5 12.39 1.62
-10 1 -5 11.69 1.37
10 0 5 0.73 0.96
10 0 5 0.61 0.8
10 0 5 1.01 0.7
-10 0 -5 1.67 0.78
-10 0 -5 0.56 0.93
10 1 5 11.83 1.61
10 1 5 10.67 1.24
10 1 5 11.88 1.46
-10 -1 -5 9.47 1.39
10 2 5 46.77 3.28
10 2 5 49.62 3.02
10 2 5 47.71 3.48
-10 -2 -5 45.06 3.44
-10 -2 -5 43.41 3.42
10 3 5 2.35 0.9
10 3 5 1.76 0.74
-10 -3 -5 2.15 0.9
10 4 5 17.29 1.76
-10 -4 -5 22.09 1.82
10 5 5 0.74 0.85
10 6 5 5.52 1.09
11 -5 5 16.62 2.13
-11 5 -5 15.05 2.02
11 -4 5 5.43 1.44
-11 4 -5 4.46 1.38
-11 4 -5 4.49 1.5
11 -3 5 12.13 1.76
-11 3 -5 9.89 1.76
-11 3 -5 10.45 1.58
11 -2 5 3.8 1.06
11 -2 5 3.48 1.25
-11 2 -5 4.05 1.26
11 -1 5 28.43 2.5
11 -1 5 28.77 2.41
11 -1 5 30.11 2.23
-11 1 -5 21.12 2.38
11 0 5 15.58 1.85
11 0 5 16.24 1.82
11 0 5 16.14 1.57
-11 0 -5 16.08 1.95
-11 0 -5 16.31 1.68
11 1 5 22.91 2.1
11 1 5 20.87 2.24
11 1 5 20.8 1.86
-11 -1 -5 27.72 2.29
11 2 5 4.24 1.06
11 2 5 4.08 0.86
-11 -2 -5 3.13 1.05
-11 -2 -5 2.43 1.03
11 3 5 8.9 1.39
-11 -3 -5 13.23 1.59
11 4 5 4.74 1.11
-11 -4 -5 4.98 1.06
11 5 5 16.94 1.86
-11 -5 -5 20.08 1.66
12 -5 5 3.49 1.43
12 -4 5 8.98 1.75
-12 4 -5 9.77 1.9
12 -3 5 0.2 1.09
-12 3 -5 0.22 1.3
12 -2 5 6.5 1.43
-12 2 -5 7.38 1.5
12 -1 5 11.56 1.65
12 -1 5 11.76 1.45
-12 1 -5 8.76 1.65
12 0 5 20.82 2.29
12 0 5 22.36 1.9
12 0 5 22.02 2.16
-12 0 -5 18.86 2.13
12 1 5 8.63 1.42
12 1 5 8.52 1.24
12 1 5 9 1.52
-12 -1 -5 10.94 1.59
-12 -1 -5 10.56 1.57
12 2 5 6.99 1.31
12 2 5 8.19 1.12
-12 -2 -5 6.82 1.35
12 3 5 -0.35 0.9
-12 -3 -5 -0.55 0.97
12 4 5 10.18 1.45
-12 -4 -5 9.54 1.37
12 5 5 4.27 1.19
-12 -5 -5 4.76 0.98
13 -4 5 4.37 1.52
13 -3 5 20.36 2.33
-13 3 -5 18.8 2.41
13 -2 5 32.47 3.21
-13 2 -5 39.19 3.26
13 -1 5 12.27 1.79
-13 1 -5 9.76 1.77
13 0 5 0.18 1.06
13 0 5 -0.29 0.86
13 0 5 -0.44 1.13
-13 0 -5 0.86 1.2
-13 0 -5 0.51 1.2
13 1 5 12 1.42
13 1 5 10.22 1.6
13 1 5 10.2 1.68
-13 -1 -5 12.14 1.67
-13 -1 -5 9.4 1.57
13 2 5 36.52 2.85
-13 -2 -5 32.04 2.9
13 3 5 17.9 2.01
-13 -3 -5 20.88 2.18
13 4 5 1.45 1.08
-13 -4 -5 3.25 1.15
14 -4 5 1.35 1.46
14 -3 5 2.29 1.36
-14 3 -5 5.97 1.83
-14 3 -5 4.38 1.75
14 -2 5 5.06 1.56
-14 2 -5 2.24 1.51
-14 2 -5 1.66 1.52
14 -1 5 24.67 2.52
-14 1 -5 16.81 2.25
-14 1 -5 15.91 2.25
14 0 5 0.07 1.13
-14 0 -5 0.05 1.27
-14 0 -5 0.27 1.3
14 1 5 17.81 2.19
-14 -1 -5 22.46 2.39
14 2 5 2.39 1.3
-14 -2 -5 2.26 1.28
14 3 5 3.8 1.29
-14 -3 -5 2.53 1.29
14 4 5 1.26 1.2
-14 -4 -5 1.73 1.21
15 -3 5 0.69 1.48
-15 3 -5 -0.55 1.57
-15 3 -5 0.03 1.58
15 -2 5 2.38 1.43
-15 2 -5 3.91 1.69
-15 2 -5 4.37 1.63
15 -1 5 1.7 1.45
-15 1 -5 1.59 1.52
-15 1 -5 1.06 1.48
15 0 5 19.13 2.52
-15 0 -5 21.75 2.57
-15 0 -5 20.26 2.54
-15 -1 -5 2.57 1.43
15 2 5 2.67 1.33
-15 -2 -5 2.2 1.38
15 3 5 0.06 1.2
-15 -3 -5 -0.22 1.25
16 -1 5 11.3 2.05
-16 1 -5 15.71 2.35
-16 0 -5 3.22 1.62
-16 -1 -5 9.22 1.9
-17 0 6 21.51 2.65
17 0 -6 21.14 2.82
-16 -2 6 10.55 1.91
-16 -1 6 -0.75 1.34
-16 0 6 0.61 1.51
16 0 -6 1.09 1.32
-16 1 6 1.19 1.45
16 -1 -6 -0.22 1.23
-16 2 6 13.37 2.31
16 -2 -6 13.82 2.13
-15 -3 6 7.72 1.67
15 3 -6 10.19 1.66
-15 -2 6 -0.59 1.21
15 2 -6 1.57 1.2
-15 -1 6 13.63 1.98
15 1 -6 15.97 2.12
-15 0 6 3.37 1.53
15 0 -6 4.51 1.45
-15 1 6 13.18 2.14
15 -1 -6 15.33 2.09
-15 2 6 0.61 1.48
15 -2 -6 1.06 1.25
-15 3 6 9.94 2.05
15 -3 -6 9.13 1.86
-14 -4 6 5.87 1.49
14 4 -6 5.16 1.35
-14 -3 6 13.02 1.93
14 3 -6 15.25 1.89
-14 -2 6 13.47 1.88
14 2 -6 13.66 1.79
-14 -1 6 10.71 1.83
14 1 -6 13.01 1.9
14 1 -6 12.35 1.71
-14 0 6 0 1.29
14 0 -6 0.45 1.19
-14 1 6 11.83 1.94
14 -1 -6 12.74 1.91
-14 2 6 11.88 1.94
14 -2 -6 12.72 1.94
-14 3 6 13.99 2.2
14 -3 -6 13.85 2.03
14 -4 -6 6.26 1.61
-13 -5 6 6.81 1.42
13 5 -6 7.06 1.47
-13 -4 6 14.47 1.96
13 4 -6 15.58 1.84
-13 -3 6 1.01 1.13
13 3 -6 1.35 1.04
-13 -2 6 24.15 2.34
13 2 -6 21.22 2.19
-13 -1 6 -0.2 1.12
13 1 -6 0.42 1.1
13 1 -6 -0.51 0.98
-13 0 6 3.34 1.27
13 0 -6 4.06 1.23
-13 1 6 0.57 1.13
13 -1 -6 -0.48 0.99
-13 2 6 20.33 2.36
13 -2 -6 23.62 2.33
-13 3 6 1.13 1.4
13 -3 -6 1.21 1.11
13 -4 -6 17.86 2.24
-13 5 6 6.7 1.65
13 -5 -6 5.62 1.52
-12 -5 6 20.53 2.15
12 5 -6 20.54 2.13
-12 -4 6 4.93 1.26
12 4 -6 5.41 1.25
-12 -3 6 8.88 1.47
-12 -2 6 0.77 1.02
12 2 -6 -0.01 0.97
12 2 -6 0.38 0.94
-12 -1 6 10.65 1.54
12 1 -6 8.32 1.42
12 1 -6 7.87 1.35
-12 0 6 15.45 1.92
12 0 -6 16.67 2.03
12 0 -6 17.37 1.86
-12 1 6 7.56 1.56
12 -1 -6 11.71 1.59
-12 2 6 0.8 1.06
-12 2 6 0.33 1.19
12 -2 -6 0.56 0.98
-12 3 6 11.96 1.86
-12 3 6 13.33 1.71
12 -3 -6 9.94 1.66
-12 4 6 6.42 1.47
12 -4 -6 5.4 1.42
-12 5 6 21.72 2.3
12 -5 -6 17.71 2.2
-11 -6 6 2.19 0.9
11 6 -6 3.39 1.19
-11 -5 6 1.65 1
11 5 -6 2.63 1.07
-11 -4 6 15.39 1.74
11 4 -6 11.59 1.53
-11 -3 6 16.7 1.76
11 3 -6 11.86 1.57
-11 -2 6 -1.01 0.9
11 2 -6 0.94 0.83
11 2 -6 1.81 0.93
11 2 -6 0.4 0.85
-11 -1 6 16.35 2.1
11 1 -6 24.44 2.03
11 1 -6 24.11 2.25
11 1 -6 23.16 1.99
-11 0 6 10.45 1.54
11 0 -6 10.37 1.5
11 0 -6 8.46 1.2
11 0 -6 9.83 1.35
-11 1 6 25.37 2.05
-11 1 6 22.47 2.1
11 -1 -6 17.66 1.99
11 -1 -6 18.07 1.92
11 -1 -6 18.49 1.79
-11 2 6 0.24 1.12
-11 2 6 0.93 0.98
11 -2 -6 0.61 0.83
11 -2 -6 -0.8 0.92
-11 3 6 11.74 1.63
-11 3 6 11.89 1.84
11 -3 -6 18.34 1.82
-11 4 6 11.86 1.69
11 -4 -6 15.44 1.87
-11 5 6 2.37 1.24
11 -5 -6 1.45 1.17
-11 6 6 4.64 1.49
11 -6 -6 1.28 1.19
-10 -6 6 8.93 1.12
10 6 -6 6.84 1.28
-10 -5 6 39.83 2.96
10 5 -6 36.54 2.84
-10 -4 6 48.77 3.48
10 4 -6 45.77 3.31
-10 -3 6 8.21 1.28
10 3 -6 7.89 1.2
10 3 -6 6.82 1.19
-10 -2 6 28.43 2.39
10 2 -6 26.91 2.39
10 2 -6 27.2 2.2
-10 -1 6 3.72 0.94
-10 -1 6 2.92 1.05
10 1 -6 5.28 0.93
10 1 -6 5.01 1.11
10 1 -6 3.82 0.95
-10 0 6 15.85 1.65
10 0 -6 16.87 1.74
10 0 -6 14.76 1.64
-10 1 6 4.25 1.17
-10 1 6 4.39 1.04
10 -1 -6 3.87 1.02
10 -1 -6 2.94 0.92
10 -1 -6 3.71 0.96
-10 2 6 29.39 2.45
-10 2 6 26.46 2.3
10 -2 -6 27.53 2.39
10 -2 -6 27.05 2.19
-10 3 6 7.81 1.39
-10 3 6 7.92 1.31
10 -3 -6 9.09 1.31
10 -3 -6 9.56 1.42
-10 4 6 47.39 3.48
10 -4 -6 49.35 3.67
-10 5 6 35.98 2.94
10 -5 -6 38.39 3.08
-10 6 6 6.99 1.49
10 -6 -6 8.1 1.43
-9 -6 6 6.45 0.96
9 6 -6 7.16 1.24
-9 -5 6 6.43 1.11
9 5 -6 7.83 1.17
-9 -4 6 1.24 0.88
9 4 -6 1.95 0.89
9 3 -6 16.73 1.57
9 3 -6 14.97 1.66
-9 -2 6 24.84 2.01
-9 -2 6 23.39 2.2
-9 -2 6 27.88 2.07
9 2 -6 28.99 2.16
9 2 -6 26.38 2.24
9 2 -6 24.92 2.06
-9 -1 6 87.85 5.42
-9 -1 6 89.9 5.04
9 1 -6 72.95 5.35
9 1 -6 77.95 5.06
9 1 -6 71.13 5
-9 0 6 3.35 0.96
-9 0 6 3.79 0.84
9 0 -6 3.98 1
9 0 -6 3.77 0.87
-9 1 6 71.21 5.38
-9 1 6 68.17 5.02
9 -1 -6 87.87 4.99
9 -1 -6 89.51 5.12
9 -1 -6 87.89 5.5
-9 2 6 26.24 2.29
-9 2 6 26.71 2.16
-9 2 6 29.07 2.26
9 -2 -6 25.19 2.08
9 -2 -6 26.73 2.13
9 -2 -6 24.62 2.3
-9 3 6 15.91 1.65
9 -3 -6 10.24 1.45
9 -3 -6 10.62 1.37
-9 4 6 1.39 1.08
-9 4 6 0.75 0.99
9 -4 -6 0.87 0.94
9 -4 -6 1.97 0.98
-9 5 6 7.02 1.33
9 -5 -6 5.74 1.18
-9 6 6 7.79 1.46
9 -6 -6 7.14 1.33
8 7 -6 3.08 1
-8 -6 6 5.02 0.83
8 6 -6 5.4 1.08
-8 -5 6 9.14 1.31
8 5 -6 11.98 1.35
-8 -4 6 23.04 1.82
8 4 -6 15.14 1.61
-8 -3 6 28.43 2.14
8 3 -6 24.17 1.98
8 3 -6 23.93 2.09
8 3 -6 25.44 2.03
-8 -2 6 135.42 7.87
-8 -2 6 130.46 7.85
-8 -2 6 124.15 8.38
8 2 -6 140.81 7.94
8 2 -6 126.66 8.37
8 2 -6 129.03 7.89
-8 -1 6 63.28 4.19
-8 -1 6 60.86 4.47
8 1 -6 67.11 4.52
8 1 -6 69.03 4.23
8 1 -6 71.02 4.27
-8 0 6 43.95 2.93
-8 0 6 44.45 3.22
8 0 -6 43.73 2.98
8 0 -6 42.29 3.16
8 0 -6 44.33 2.96
-8 1 6 70.76 4.22
-8 1 6 73.59 4.27
-8 1 6 69.21 4.53
8 -1 -6 57.81 4.42
8 -1 -6 60.39 4.06
8 -1 -6 61.93 4.13
-8 2 6 137.12 8.01
-8 2 6 133.71 7.78
-8 2 6 140.38 8.04
-8 2 6 127.81 8.49
8 -2 -6 131.92 7.96
8 -2 -6 129.15 8.5
8 -2 -6 124.87 7.75
-8 3 6 23.56 2.12
-8 3 6 24.24 2.32
-8 3 6 26.49 2.16
8 -3 -6 30.4 2.19
8 -3 -6 31.15 2.34
-8 4 6 15.29 1.93
-8 4 6 15.38 1.8
8 -4 -6 22.89 1.81
8 -4 -6 21.14 1.9
8 -4 -6 20.92 1.85
-8 5 6 11.02 1.43
8 -5 -6 9.33 1.35
-8 6 6 5.94 1.25
8 -6 -6 3.52 1.06
-8 7 6 2.7 1.22
8 -7 -6 3.01 1.06
7 7 -6 1.17 0.89
-7 -6 6 1.19 0.61
7 6 -6 0.2 0.8
-7 -5 6 17.68 1.6
7 5 -6 15.94 1.57
-7 -4 6 74.4 5.01
7 4 -6 80.65 4.82
7 4 -6 73.06 4.75
-7 -3 6 55.98 3.39
-7 -3 6 50.33 3.35
7 3 -6 44.66 3.16
7 3 -6 43.06 3.3
7 3 -6 42.69 3.12
-7 -2 6 3.04 0.69
-7 -2 6 3.97 0.85
7 2 -6 0.89 0.65
7 2 -6 1.02 0.63
7 2 -6 0.93 0.68
-7 -1 6 109.37 6.28
-7 -1 6 108.83 6.72
7 1 -6 105.73 6.3
7 1 -6 96.6 6.27
7 1 -6 96.52 6.65
-7 0 6 93.03 5.72
-7 0 6 91.98 6.09
7 0 -6 98.74 5.75
7 0 -6 95.15 5.72
7 0 -6 88.66 5.53
7 0 -6 93.76 6.09
-7 1 6 99.17 6.89
-7 1 6 104.36 6.48
-7 1 6 103.01 6.5
7 -1 -6 106.5 6.3
7 -1 -6 118.02 6.95
7 -1 -6 109.07 6.47
-7 2 6 1.39 0.81
-7 2 6 0.01 0.65
-7 2 6 0.51 0.66
-7 2 6 0.98 0.72
7 -2 -6 3.03 0.73
7 -2 -6 3.35 0.77
7 -2 -6 2.91 0.82
-7 3 6 44.15 3.16
-7 3 6 44.51 3.26
-7 3 6 42.9 3.19
-7 3 6 40.7 3.43
7 -3 -6 54.74 3.16
7 -3 -6 53.51 3.48
7 -3 -6 58.04 3.26
-7 4 6 74.98 4.66
-7 4 6 73.36 4.75
-7 4 6 74.22 5.1
7 -4 -6 71.67 5
7 -4 -6 77.75 4.89
7 -4 -6 76.54 4.69
-7 5 6 17.58 1.81
7 -5 -6 21.37 2
7 -5 -6 19.48 1.81
-7 6 6 0.54 0.96
7 -6 -6 1.53 0.9
-7 7 6 0.88 1.1
7 -7 -6 2.76 0.87
6 7 -6 1.97 0.91
-6 -6 6 2.43 0.63
6 6 -6 1.64 0.79
-6 -5 6 27.44 2.26
6 5 -6 30.39 2.22
6 5 -6 33.43 2.3
-6 -4 6 48.66 3.43
6 4 -6 51.99 3.32
6 4 -6 50.23 3.5
6 4 -6 48.92 3.39
6 4 -6 50.51 3.28
-6 -3 6 5.64 0.92
-6 -3 6 6.01 0.94
6 3 -6 4.31 0.79
6 3 -6 4.74 0.81
6 3 -6 4.39 0.88
-6 -2 6 15.75 1.58
-6 -2 6 15.43 1.58
-6 -2 6 15.82 1.44
6 2 -6 18.03 1.47
6 2 -6 19.63 1.6
6 2 -6 20.76 1.52
-6 -1 6 80.12 5.31
-6 -1 6 80.3 4.95
6 1 -6 81.4 5.3
6 1 -6 84.63 5
6 1 -6 78.57 4.97
-6 0 6 59.11 4.13
-6 0 6 59.41 3.86
-6 0 6 65.95 3.93
6 0 -6 67.41 3.93
6 0 -6 59.37 4.13
6 0 -6 58.89 3.88
6 0 -6 62.5 3.79
-6 1 6 80.31 5.35
-6 1 6 86.18 5.05
-6 1 6 76.6 4.99
6 -1 -6 86.15 5.02
6 -1 -6 82.65 5.33
6 -1 -6 77.41 4.84
-6 2 6 17.89 1.49
-6 2 6 17.98 1.57
-6 2 6 18.37 1.44
-6 2 6 21.26 1.58
6 -2 -6 14.38 1.42
6 -2 -6 14.83 1.41
6 -2 -6 14.83 1.57
-6 3 6 5.28 0.92
-6 3 6 4.31 0.94
-6 3 6 4.72 0.86
-6 3 6 5.17 0.88
6 -3 -6 4.75 0.92
6 -3 -6 4.21 0.83
6 -3 -6 4.15 0.8
6 -3 -6 6.13 0.94
6 -3 -6 6.13 0.94
-6 4 6 47.07 3.25
-6 4 6 48.91 3.33
-6 4 6 52.59 3.28
-6 4 6 47.44 3.5
6 -4 -6 47.93 3.31
6 -4 -6 51.52 3.28
6 -4 -6 50.07 3.46
-6 5 6 33.53 2.39
6 -5 -6 31.09 2.45
6 -5 -6 29.82 2.41
-6 6 6 2.63 0.97
6 -6 -6 1.73 0.85
-6 7 6 1.74 1.04
5 7 -6 4.29 0.94
-5 -6 6 36.04 2.5
5 6 -6 38.16 2.61
-5 -5 6 5.29 0.88
5 5 -6 5.25 0.83
5 5 -6 5.86 0.97
5 5 -6 6.59 0.94
-5 -4 6 0.52 0.64
-5 -4 6 -0.05 0.64
5 4 -6 1.67 0.71
5 4 -6 1.86 0.68
5 4 -6 2.11 0.68
5 4 -6 1.39 0.64
-5 -3 6 8.53 1.14
-5 -3 6 9.89 1.22
5 3 -6 8.79 1.06
5 3 -6 10.27 1.16
5 3 -6 11.3 1.18
5 3 -6 10.85 1.15
-5 -2 6 51.8 3.49
-5 -2 6 49.31 3.47
5 2 -6 50.07 3.49
5 2 -6 52.66 3.28
5 2 -6 52.23 3.28
-5 -1 6 23.97 1.95
-5 -1 6 23.52 1.77
5 1 -6 26.92 1.82
5 1 -6 23.83 1.75
5 1 -6 22.75 1.86
-5 0 6 0.97 0.58
-5 0 6 1.59 0.71
-5 0 6 0.95 0.57
5 0 -6 1.31 0.61
5 0 -6 0.44 0.56
5 0 -6 1.21 0.6
-5 1 6 23.54 1.8
-5 1 6 24.82 1.78
-5 1 6 23.46 1.89
5 -1 -6 25.75 1.96
5 -1 -6 24.27 1.72
5 -1 -6 23.56 1.73
-5 2 6 49.65 3.43
-5 2 6 47.27 3.19
-5 2 6 51.94 3.23
-5 2 6 49.24 3.1
5 -2 -6 52.52 3.44
5 -2 -6 48.14 3.3
5 -2 -6 51.64 3.13
5 -2 -6 48.52 3.15
5 -2 -6 49.63 3.41
-5 3 6 9.88 1.15
-5 3 6 10.78 1.11
-5 3 6 10.21 1.14
-5 3 6 10.15 1.3
5 -3 -6 8.93 1.08
5 -3 -6 10.43 1.21
5 -3 -6 8.97 1.06
5 -3 -6 10.99 1.23
5 -3 -6 8.36 1.18
-5 4 6 1.65 0.71
-5 4 6 2.66 0.81
-5 4 6 1.64 0.72
-5 4 6 1.79 0.76
5 -4 -6 -0.31 0.56
5 -4 -6 -0.09 0.63
5 -4 -6 -0.14 0.63
-5 5 6 5.28 0.95
-5 5 6 6.71 1.15
5 -5 -6 5.6 1.03
5 -5 -6 5.93 0.96
5 -5 -6 5.89 0.87
-5 6 6 37.05 2.57
5 -6 -6 33.87 2.52
-5 7 6 4.58 1.08
4 7 -6 9.57 1.22
-4 -6 6 1.38 0.56
4 6 -6 1 0.73
-4 -5 6 56.35 3.8
4 5 -6 60.14 3.71
4 5 -6 57.89 3.7
4 5 -6 54.93 3.64
-4 -4 6 19.32 1.66
-4 -4 6 20.21 1.69
4 4 -6 21.18 1.63
4 4 -6 20.14 1.58
4 4 -6 18.12 1.55
4 4 -6 19.92 1.64
4 4 -6 19.01 1.66
-4 -3 6 68.54 4.61
-4 -3 6 73.28 4.65
4 3 -6 73.85 4.39
4 3 -6 71.3 4.38
4 3 -6 69.12 4.36
4 3 -6 69.27 4.62
4 3 -6 69.87 4.49
-4 -2 6 0.35 0.57
-4 -2 6 0.62 0.48
-4 -2 6 0.23 0.59
4 2 -6 1.44 0.61
4 2 -6 1.14 0.55
4 2 -6 1.33 0.56
4 2 -6 1.12 0.54
-4 -1 6 45.93 2.85
-4 -1 6 47.48 2.65
-4 -1 6 46.72 2.65
4 1 -6 36.18 2.79
4 1 -6 37.99 2.62
4 1 -6 34.43 2.6
4 1 -6 33.07 2.68
-4 0 6 0.83 0.56
-4 0 6 0.53 0.62
-4 0 6 0.45 0.49
4 0 -6 0.79 0.55
4 0 -6 0.81 0.48
4 0 -6 0.61 0.59
4 0 -6 0.72 0.53
-4 1 6 33.77 2.61
-4 1 6 35.07 2.85
-4 1 6 36.62 2.67
4 -1 -6 45.68 2.78
4 -1 -6 43.78 2.83
4 -1 -6 46.54 2.59
4 -1 -6 45.78 2.66
-4 2 6 1.39 0.61
-4 2 6 0.92 0.5
-4 2 6 1.4 0.63
-4 2 6 1.47 0.56
4 -2 -6 -0.1 0.52
4 -2 -6 0.4 0.47
4 -2 -6 0.06 0.52
4 -2 -6 0.95 0.5
4 -2 -6 -0.2 0.49
-4 3 6 68.71 4.27
-4 3 6 68.58 4.26
-4 3 6 71.2 4.17
-4 3 6 70.97 4.55
4 -3 -6 68.4 4.51
4 -3 -6 69.45 4.52
4 -3 -6 69.87 4.53
4 -3 -6 66.41 4.14
4 -3 -6 69.02 4.41
-4 4 6 19.17 1.58
-4 4 6 19.84 1.7
-4 4 6 18.13 1.58
-4 4 6 20.84 1.61
4 -4 -6 18.9 1.59
4 -4 -6 18.94 1.54
4 -4 -6 20.12 1.65
4 -4 -6 19.99 1.66
-4 5 6 55.53 3.7
-4 5 6 65.69 3.79
-4 5 6 59.29 3.75
4 -5 -6 56.89 3.74
4 -5 -6 56.02 3.85
4 -5 -6 58.36 3.79
-4 6 6 1.22 0.79
4 -6 -6 0.78 0.51
-4 7 6 9.68 1.24
3 7 -6 6.7 1.11
-3 -6 6 6.69 0.91
3 6 -6 4.97 0.92
-3 -5 6 49.19 3.15
3 5 -6 43.91 3
3 5 -6 45.01 3
3 5 -6 45.83 3.05
-3 -4 6 13.86 1.5
3 4 -6 20.58 1.47
3 4 -6 20.16 1.56
3 4 -6 18.95 1.49
3 4 -6 18.44 1.59
-3 -3 6 11.84 1.12
-3 -3 6 10.7 1.1
3 3 -6 8.19 1.03
3 3 -6 8 1.1
3 3 -6 9.47 0.99
3 3 -6 9.5 1.01
3 2 -6 34.28 2.32
3 2 -6 34.81 2.34
3 2 -6 35.34 2.4
3 2 -6 35.51 2.49
3 2 -6 35.46 2.35
-3 -1 6 44.75 2.95
-3 -1 6 46.49 3.18
-3 -1 6 44.88 2.95
-3 -1 6 46.58 3.18
3 1 -6 48.81 3.08
3 1 -6 50.32 2.99
3 1 -6 46.72 3.14
3 1 -6 44.74 2.95
-3 0 6 232.57 13.48
-3 0 6 232.17 14.3
-3 0 6 229.7 13.47
3 0 -6 232.03 13.48
3 0 -6 227.45 13.95
3 0 -6 234.9 14.31
3 0 -6 231.65 13.47
-3 1 6 46.1 2.92
-3 1 6 48.11 3.11
-3 1 6 50.32 2.96
3 -1 -6 44.25 2.88
3 -1 -6 44.22 3.09
3 -1 -6 43.09 3.08
3 -1 -6 46 3.04
3 -1 -6 46.61 2.91
-3 2 6 35.3 2.48
-3 2 6 34.81 2.77
-3 2 6 35.45 2.63
-3 2 6 33.74 2.57
3 -2 -6 46.37 2.83
3 -2 -6 46.66 2.57
3 -2 -6 46.7 2.81
3 -2 -6 46.58 2.75
-3 3 6 9.69 1
-3 3 6 8.92 1.15
-3 3 6 8.44 0.98
-3 3 6 9.78 1.07
3 -3 -6 11.68 1.01
3 -3 -6 10.3 1.09
3 -3 -6 11.05 1.1
3 -3 -6 11.33 1.05
-3 4 6 19.48 1.4
-3 4 6 18.91 1.44
-3 4 6 19.23 1.43
-3 4 6 18.78 1.55
3 -4 -6 14.64 1.4
3 -4 -6 13.85 1.38
3 -4 -6 15.14 1.37
3 -4 -6 15.33 1.4
-3 5 6 48.69 3.11
-3 5 6 46.01 3.04
-3 5 6 44.58 3.01
3 -5 -6 46.56 3.07
3 -5 -6 47.48 3.06
-3 6 6 5.76 0.95
-3 6 6 5.04 1.11
-3 6 6 5.3 0.9
-3 7 6 6.86 1.02
2 7 -6 10.19 1.33
-2 -6 6 13.93 1.33
2 6 -6 16.61 1.48
-2 -5 6 27.6 2.19
2 5 -6 29.76 2.15
2 5 -6 32.31 2.19
2 5 -6 29.79 2.03
-2 -4 6 76.51 4.5
-2 -4 6 78.79 4.53
2 4 -6 64.67 4.5
2 4 -6 64.26 4.25
2 4 -6 63.21 4.23
2 4 -6 64.53 4.3
-2 -3 6 31.58 2.54
-2 -3 6 32.49 2.55
2 3 -6 39.31 2.47
2 3 -6 38.41 2.58
2 3 -6 38.65 2.45
2 3 -6 39.82 2.43
-2 -2 6 108.19 6.5
-2 -2 6 105.16 6.06
-2 -2 6 113.92 6.52
2 2 -6 96.22 6.47
2 2 -6 99.17 6.1
2 2 -6 96.73 6.29
2 2 -6 95.96 6.09
-2 -1 6 103.01 6.86
-2 -1 6 108.66 6.86
-2 -1 6 110.57 7.32
-2 -1 6 105.84 7.31
2 1 -6 131.63 6.92
2 1 -6 120.81 7.32
2 1 -6 124.47 7.15
2 1 -6 125.83 6.91
-2 0 6 0.85 0.52
-2 0 6 1.13 0.51
-2 0 6 0.76 0.51
-2 0 6 0.28 0.53
2 0 -6 1.02 0.48
2 0 -6 1.27 0.52
2 0 -6 0.85 0.49
2 0 -6 0.61 0.46
2 0 -6 0.51 0.49
-2 1 6 122.74 6.99
-2 1 6 123.36 7.13
-2 1 6 125.62 6.72
-2 1 6 118.79 6.69
2 -1 -6 106.35 7.1
2 -1 -6 108.84 6.66
2 -1 -6 109.14 7.1
2 -1 -6 102.85 6.93
2 -1 -6 105.9 6.66
2 -1 -6 108.44 6.42
-2 2 6 96.5 5.83
-2 2 6 94.72 6.32
-2 2 6 100.17 6.09
-2 2 6 100.49 6.47
-2 2 6 95.08 6.06
2 -2 -6 110.87 6.47
2 -2 -6 107.5 6.34
2 -2 -6 107.79 6.46
2 -2 -6 106.96 6.02
2 -2 -6 104.6 5.85
-2 3 6 39.46 2.37
-2 3 6 40.11 2.28
-2 3 6 38.33 2.34
-2 3 6 39.34 2.53
2 -3 -6 31.59 2.44
2 -3 -6 32.32 2.47
2 -3 -6 32.44 2.44
-2 4 6 65.99 4.61
-2 4 6 61.65 4.31
-2 4 6 67.01 4.26
-2 4 6 66.11 4.35
2 -4 -6 80.17 4.58
2 -4 -6 75.66 4.27
2 -4 -6 78.02 4.54
2 -4 -6 78.44 4.57
-2 5 6 30.18 2.06
-2 5 6 31.86 2.2
-2 5 6 28.81 2.02
2 -5 -6 29.38 1.97
2 -5 -6 28.58 2.07
-2 6 6 15.91 1.39
-2 6 6 17.3 1.46
-2 7 6 10.36 1.19
1 7 -6 4.94 1
-1 -6 6 2.15 0.71
1 6 -6 4.07 0.89
-1 -5 6 87.45 5.45
1 5 -6 82.53 5.18
1 5 -6 82.94 5.17
-1 -4 6 4.75 0.81
-1 -4 6 4.49 0.82
1 4 -6 5.37 0.83
1 4 -6 5.67 0.82
1 4 -6 4.95 0.66
1 4 -6 5.01 0.79
-1 -3 6 85.11 5.53
-1 -3 6 87.16 5.55
1 3 -6 87.77 5.54
1 3 -6 84.44 5.21
1 3 -6 85.5 5.33
1 3 -6 86.08 5.21
-1 -2 6 22.61 1.77
-1 -2 6 24 1.81
-1 -2 6 22.83 1.61
1 2 -6 21.79 1.64
1 2 -6 21.99 1.63
1 2 -6 20.87 1.62
1 2 -6 22.24 1.75
-1 -1 6 79.88 5.17
-1 -1 6 83.23 5.51
-1 -1 6 79.13 5.16
-1 -1 6 83.57 5.53
1 1 -6 95.81 5.39
1 1 -6 84.5 5.5
1 1 -6 93.2 5.2
1 1 -6 90.9 5.18
-1 0 6 6.17 0.74
-1 0 6 5.77 0.72
-1 0 6 5.92 0.81
1 0 -6 6.4 0.79
1 0 -6 6.17 0.76
1 0 -6 6.46 0.85
1 0 -6 4.69 0.71
1 0 -6 5.81 0.7
-1 1 6 90.52 5.39
-1 1 6 93.82 5.18
-1 1 6 97.91 5.19
-1 1 6 94.93 5.53
1 -1 -6 78.39 5.47
1 -1 -6 79.83 5.13
1 -1 -6 82.94 5.13
1 -1 -6 82.01 4.91
1 -1 -6 80.1 5.37
1 -1 -6 84.96 5.5
-1 2 6 20.9 1.64
-1 2 6 21.99 1.39
-1 2 6 19.85 1.63
-1 2 6 21.71 1.53
-1 2 6 20.59 1.54
1 -2 -6 22.58 1.65
1 -2 -6 23.13 1.66
1 -2 -6 22.51 1.64
1 -2 -6 22.5 1.4
-1 3 6 82.69 5.22
-1 3 6 84.95 4.74
-1 3 6 82.61 4.89
-1 3 6 86.1 4.92
-1 3 6 81.65 5.13
1 -3 -6 80.45 5.18
1 -3 -6 82.26 5.19
1 -3 -6 78.62 4.72
1 -3 -6 80.1 5.12
-1 4 6 4.84 0.69
-1 4 6 5.35 0.68
-1 4 6 4.84 0.7
-1 4 6 4.63 0.61
1 -4 -6 4.21 0.69
1 -4 -6 4.27 0.58
1 -4 -6 4.83 0.58
-1 5 6 87.61 5.06
-1 5 6 79.11 5.05
-1 5 6 84.25 5.08
1 -5 -6 88.8 5.29
-1 6 6 3.11 0.66
-1 6 6 4.11 0.73
-1 7 6 4.93 0.79
0 7 -6 0.19 0.82
0 -6 6 1.19 0.7
0 6 -6 0.46 0.76
0 -5 6 6.33 1.02
0 5 -6 9.43 0.87
0 5 -6 10.14 1.25
0 5 -6 10.39 1.14
0 -4 6 62.52 3.86
0 -4 6 63.87 3.88
0 4 -6 55.37 3.6
0 4 -6 54.41 3.61
0 4 -6 54.22 3.6
0 4 -6 52.92 3.82
0 -3 6 0.01 0.27
0 -3 6 -0.05 0.54
0 -3 6 0.64 0.58
0 3 -6 0.34 0.53
0 3 -6 -0.11 0.49
0 3 -6 0.78 0.57
0 3 -6 0.29 0.45
0 -2 6 145.73 8.51
0 -2 6 141.37 7.97
0 -2 6 135.73 8.48
0 2 -6 130.07 7.99
0 2 -6 130.52 8.48
0 2 -6 128.01 8.23
0 -1 6 130.51 7.45
0 -1 6 135.66 7.94
0 -1 6 135.7 7.94
0 1 -6 120.69 7.44
0 1 -6 125.15 7.46
0 1 -6 115.84 7.69
0 1 -6 119.8 7.91
0 0 6 259.1 15.94
0 0 6 271.65 16.93
0 0 6 272.55 15.96
0 0 -6 267.88 15.95
0 0 -6 287.25 15.96
0 0 -6 286.7 16.94
0 0 -6 283.58 15.96
0 0 -6 281.12 16.93
0 0 -6 268.26 16.52
0 1 6 121.45 7.38
0 1 6 120.27 7.68
0 1 6 117.52 7.83
0 1 6 118.17 7.37
0 1 6 119.78 7.37
0 -1 -6 128.02 7.35
0 -1 -6 129.27 7.84
0 -1 -6 132.52 7.36
0 -1 -6 129.97 7.68
0 -1 -6 132.15 7.85
0 -1 -6 130.96 7.03
0 2 6 126.54 8.02
0 2 6 129.75 7.7
0 2 6 126.69 8.17
0 2 6 121.99 7.67
0 -2 -6 137.27 8.17
0 -2 -6 138.71 8.17
0 -2 -6 135.15 8.03
0 -2 -6 133.53 7.34
0 3 6 0.07 0.51
0 3 6 0.46 0.34
0 3 6 0.61 0.46
0 3 6 0.5 0.39
0 3 6 0.62 0.45
0 -3 -6 0.89 0.42
0 -3 -6 0.56 0.4
0 -3 -6 0.6 0.5
0 4 6 56.55 3.39
0 4 6 54.38 3.65
0 4 6 52.48 3.66
0 4 6 52.84 3.42
0 4 6 54.77 3.44
0 -4 -6 60.66 3.55
0 -4 -6 62.64 3.68
0 -4 -6 59.91 3.55
0 5 6 10.31 0.93
0 5 6 9.46 0.86
0 5 6 8.31 1.05
0 -5 -6 7.57 1.01
0 6 6 0.28 0.53
0 6 6 0.2 0.49
0 7 6 0.19 0.57
0 7 6 0.47 0.61
1 -7 6 0.63 0.66
-1 7 -6 0.03 0.89
1 -6 6 11.6 1.37
-1 6 -6 12.1 1.36
1 -5 6 2.63 0.79
-1 5 -6 3.9 0.84
-1 5 -6 4.03 0.85
1 -4 6 24.52 1.76
1 -4 6 22.91 1.76
-1 4 -6 17.68 1.77
-1 4 -6 17.45 1.66
-1 4 -6 18.52 1.62
-1 4 -6 17.11 1.53
-1 4 -6 18.74 1.47
1 -3 6 60.42 3.74
1 -3 6 61.44 3.75
1 -3 6 59.01 3.41
-1 3 -6 52.49 3.48
-1 3 -6 52.09 3.53
-1 3 -6 50.93 3.7
-1 3 -6 51 3.48
1 -2 6 108.48 6.42
1 -2 6 100.75 6.39
1 -2 6 105.9 6
-1 2 -6 98.97 6.4
-1 2 -6 94.31 6
-1 2 -6 92.96 6.17
1 -1 6 10.02 0.99
1 -1 6 10.73 1.14
1 -1 6 8.85 0.9
-1 1 -6 6.67 0.97
-1 1 -6 8.59 0.9
-1 1 -6 7.36 0.93
-1 1 -6 8.76 1.01
1 0 6 56.6 3.49
1 0 6 56.4 3.74
-1 0 -6 59.49 3.75
-1 0 -6 56.16 3.64
-1 0 -6 54.82 3.7
-1 0 -6 56.13 3.48
1 1 6 7.28 0.91
1 1 6 7.45 0.86
1 1 6 6.8 0.94
1 1 6 7.93 0.87
-1 -1 -6 8.55 0.97
-1 -1 -6 8.74 0.97
-1 -1 -6 9.13 0.79
-1 -1 -6 10.1 0.99
1 2 6 94.93 6.02
1 2 6 89.18 5.64
1 2 6 92.55 5.93
1 2 6 90.14 5.65
-1 -2 -6 100.82 6.01
-1 -2 -6 100.57 5.95
-1 -2 -6 100.74 6.01
1 3 6 49.29 3.19
1 3 6 48.98 3.18
1 3 6 49.87 3.41
1 3 6 49.24 3.41
1 3 6 50.4 3.03
-1 -3 -6 57.41 3.39
-1 -3 -6 56.52 3.38
-1 -3 -6 60.86 3.46
1 4 6 17.01 1.26
1 4 6 16.74 1.27
1 4 6 19.12 1.3
1 4 6 18.77 1.46
1 4 6 16.87 1.38
-1 -4 -6 21.97 1.5
1 5 6 4.08 0.74
1 5 6 3.54 0.56
1 5 6 3.77 0.7
1 5 6 3.44 0.52
1 6 6 11.96 1
1 6 6 13.09 1.05
1 7 6 0.78 0.51
1 7 6 0.23 0.54
2 -7 6 9.01 1.09
-2 7 -6 5.96 1.22
2 -6 6 16.59 1.66
-2 6 -6 17.63 1.68
2 -5 6 50.08 3.44
-2 5 -6 48.9 3.3
-2 5 -6 46.54 3.26
2 -4 6 7.77 1.13
2 -4 6 7.27 1.12
-2 4 -6 10.69 1.22
-2 4 -6 11.61 1.3
-2 4 -6 11.22 1.27
-2 4 -6 11.74 1.01
-2 4 -6 11.22 1.29
-2 3 -6 28.41 1.98
-2 3 -6 27.78 2
-2 3 -6 27.44 2.12
-2 3 -6 26.45 1.96
-2 3 -6 25.86 1.92
2 -2 6 34.27 2.53
2 -2 6 30.19 2.33
2 -2 6 32.83 2.5
2 -2 6 31.74 2.28
-2 2 -6 36.47 2.35
-2 2 -6 36.18 2.34
-2 2 -6 36.91 2.28
-2 2 -6 35.78 2.36
-2 2 -6 35.38 2.47
2 -1 6 320.11 17.41
2 -1 6 305.93 18
2 -1 6 303.1 18.45
2 -1 6 303.01 17.4
-2 1 -6 298.64 17.4
-2 1 -6 284.01 18.44
-2 1 -6 291.02 17.99
-2 1 -6 292.4 16.77
2 0 6 0.47 0.5
2 0 6 -0.23 0.56
2 0 6 0.35 0.5
-2 0 -6 0.21 0.46
-2 0 -6 0.54 0.5
-2 0 -6 0.26 0.5
-2 0 -6 0.26 0.33
-2 0 -6 -0.12 0.52
-2 0 -6 0.67 0.45
2 1 6 278.1 16.82
2 1 6 292.89 16.84
2 1 6 277.46 17.46
2 1 6 280.12 17.85
-2 -1 -6 314.1 17.86
-2 -1 -6 301.43 16.8
-2 -1 -6 293.81 17.47
-2 -1 -6 286.85 17.84
2 2 6 35.47 2.21
2 2 6 36.33 2.38
2 2 6 34.01 2.19
2 2 6 35.55 2.34
-2 -2 -6 33.14 2.32
-2 -2 -6 32.16 2.35
-2 -2 -6 31.04 2.31
2 3 6 26.61 1.91
2 3 6 26.42 1.72
2 3 6 26.31 1.54
2 3 6 25.39 1.88
2 3 6 24.76 1.7
2 4 6 11.35 0.89
2 4 6 10.31 1.09
2 4 6 10.94 0.87
2 4 6 9.96 0.88
2 4 6 10.28 0.98
-2 -4 -6 7.19 1.02
2 5 6 46.83 2.91
2 5 6 50.79 2.98
2 5 6 46 2.89
2 5 6 48.21 3.17
2 6 6 17.01 1.25
2 6 6 17.76 1.22
3 -7 6 2.83 0.91
-3 7 -6 3.32 1.08
3 -6 6 -0.14 0.81
-3 6 -6 1.82 0.92
3 -5 6 25.9 2.17
-3 5 -6 24.91 2.07
3 -4 6 118.9 7.95
3 -4 6 122.83 7.64
3 -4 6 124.81 7.99
-3 4 -6 130.89 7.45
-3 4 -6 130.27 7.55
-3 4 -6 122.46 7.52
-3 4 -6 122.26 7.99
3 -3 6 13.91 1.2
3 -3 6 15.77 1.5
3 -3 6 16.48 1.3
3 -3 6 14.31 1.44
-3 3 -6 11.41 1.27
-3 3 -6 12.22 1.21
-3 3 -6 12.6 1.32
-3 3 -6 13.3 1.43
-3 3 -6 11.87 1.4
3 -2 6 41.64 3.28
3 -2 6 43.91 3.19
3 -2 6 43.2 3.46
-3 2 -6 56.1 3.35
-3 2 -6 54.35 3.25
-3 2 -6 57.1 3.21
-3 2 -6 55.4 3.29
-3 2 -6 53.95 3.48
3 -1 6 91.53 5.78
3 -1 6 93.44 5.59
3 -1 6 89.01 5.57
3 -1 6 98.95 5.99
-3 1 -6 91.48 5.79
-3 1 -6 93.74 5.59
-3 1 -6 89.75 5.57
-3 1 -6 91.71 5.35
-3 1 -6 92.54 5.95
3 0 6 334.48 19.1
3 0 6 330.78 19.09
3 0 6 330.22 20.26
-3 0 -6 331.15 19.78
-3 0 -6 323.61 20.24
-3 0 -6 325.35 19.07
-3 0 -6 333.34 20.26
-3 0 -6 326.68 19.07
-3 0 -6 328.19 18.34
3 1 6 83.98 5.59
3 1 6 87.76 5.35
3 1 6 87.92 5.69
3 1 6 85.2 5.35
-3 -1 -6 90.43 5.31
-3 -1 -6 89.55 5.6
-3 -1 -6 93.56 5.7
-3 -1 -6 93.74 5.7
-3 -1 -6 90.43 5
3 2 6 53.83 3.25
3 2 6 52.69 3.24
3 2 6 52.62 3.02
3 2 6 52.97 3.03
-3 -2 -6 41.67 3.17
-3 -2 -6 42.7 3.17
-3 -2 -6 41.66 3.18
3 3 6 11.95 0.81
3 3 6 10.89 1.18
3 3 6 11.03 1
3 3 6 12.12 1.04
3 3 6 11.81 1.14
-3 -3 -6 13.97 1.08
-3 -3 -6 13.92 1.09
-3 -3 -6 14.07 1.23
3 4 6 117.71 7.36
3 4 6 124.53 6.74
3 4 6 113.65 6.95
3 4 6 117.31 6.96
3 4 6 120.74 7.41
3 5 6 22.6 1.59
3 5 6 25.91 1.72
3 5 6 23.8 1.84
3 5 6 23.2 1.57
3 6 6 2.1 0.46
3 6 6 1.18 0.48
4 -7 6 18.69 1.86
-4 7 -6 16.63 1.93
4 -6 6 30.59 2.6
-4 6 -6 33.66 2.53
4 -5 6 9.14 1.32
-4 5 -6 14.91 1.53
4 -4 6 30.23 2.43
4 -4 6 31.85 2.16
-4 4 -6 28.63 2.25
-4 4 -6 30.97 2.33
-4 4 -6 27.4 2.39
-4 4 -6 26.77 2.2
4 -3 6 105.39 6.16
4 -3 6 106.99 5.74
4 -3 6 104.15 5.9
-4 3 -6 85.86 5.73
-4 3 -6 83.11 5.72
-4 3 -6 84.52 6.08
-4 3 -6 85.06 5.6
4 -2 6 24.49 1.82
4 -2 6 24.92 1.97
4 -2 6 24.54 1.85
-4 2 -6 25.91 1.88
-4 2 -6 22.81 1.82
-4 2 -6 23.48 2
-4 2 -6 24.06 1.74
-4 2 -6 22.66 1.79
4 -1 6 144.94 9.1
4 -1 6 145.33 9.1
4 -1 6 144.4 9.67
4 -1 6 139.67 9.41
-4 1 -6 164.22 9.13
-4 1 -6 160.52 9.12
-4 1 -6 164.93 9.72
-4 1 -6 163.57 8.77
-4 1 -6 157.34 9.44
4 0 6 29.58 1.95
4 0 6 26.79 1.78
4 0 6 27 2.09
4 0 6 26.97 1.92
-4 0 -6 27.13 1.74
-4 0 -6 27.48 2.06
-4 0 -6 27.14 1.92
-4 0 -6 27.61 2.07
4 1 6 158.16 9.43
4 1 6 165.93 9.05
4 1 6 162.88 9.62
4 1 6 155.48 8.58
4 1 6 164.28 9.06
-4 -1 -6 147.28 9.41
-4 -1 -6 144.09 9.58
-4 -1 -6 146.98 8.98
-4 -1 -6 142.55 8.58
-4 -1 -6 146.7 9.58
4 2 6 23.56 1.68
4 2 6 23.14 1.68
4 2 6 22.21 1.79
4 2 6 22.42 1.85
-4 -2 -6 23.99 1.85
-4 -2 -6 24.42 1.8
-4 -2 -6 25.02 1.81
4 3 6 82.58 5.13
4 3 6 80.29 4.5
4 3 6 77.71 5.11
4 3 6 78.9 4.8
4 3 6 80.43 4.51
4 3 6 79.25 4.8
4 4 6 28.12 1.75
4 4 6 27.47 2.07
4 4 6 25.56 1.81
4 4 6 26.55 1.82
4 5 6 16.55 1.47
4 5 6 12.92 1.11
4 5 6 13.63 1.14
4 6 6 31.8 2.01
4 6 6 29.42 1.97
5 -7 6 -0.57 0.9
-5 7 -6 0.98 1.14
5 -6 6 15.54 1.74
-5 6 -6 12.98 1.74
5 -5 6 59.25 4.01
-5 5 -6 52.62 3.78
5 -4 6 48.79 3.87
5 -4 6 49.45 3.62
-5 4 -6 61.28 3.76
-5 4 -6 62.99 4.01
5 -3 6 84.62 5.61
5 -3 6 83.52 5.44
5 -3 6 82.72 5.83
-5 3 -6 95.11 5.41
-5 3 -6 88.07 5.85
-5 3 -6 94.26 5.54
-5 3 -6 91.96 5.52
-5 2 -6 32.89 2.46
-5 2 -6 32.62 2.33
-5 2 -6 30.82 2.28
-5 2 -6 30.25 2.19
5 -1 6 60.95 4.06
5 -1 6 65.93 3.82
5 -1 6 64.18 3.62
5 -1 6 61.44 3.93
5 -1 6 63.57 3.78
-5 1 -6 54.01 3.58
-5 1 -6 54.8 3.73
-5 1 -6 52.77 4
-5 1 -6 56.69 3.74
5 0 6 160.28 9.22
5 0 6 166.65 10.28
5 0 6 165.3 9.66
5 0 6 161 9.65
-5 0 -6 166 10.27
-5 0 -6 158.67 9.62
-5 0 -6 164.77 9.23
5 1 6 54.43 3.88
5 1 6 53.83 3.67
5 1 6 54.52 3.4
5 1 6 57.3 3.68
5 1 6 53.64 3.93
-5 -1 -6 64.76 3.98
-5 -1 -6 63.41 3.96
-5 -1 -6 61.34 3.42
-5 -1 -6 65.04 3.64
5 2 6 29.44 1.75
5 2 6 28.89 2.04
5 2 6 28.38 2.17
5 2 6 31.32 2.05
5 2 6 27.8 2.21
5 3 6 89.6 5.56
5 3 6 89.45 5.56
5 3 6 89.9 4.91
5 3 6 89.47 5.23
5 3 6 86.96 5.22
-5 -3 -6 80.48 5.49
-5 -3 -6 80.74 5.49
5 4 6 54.79 3.41
5 4 6 60.76 3.25
5 4 6 60.89 3.76
5 4 6 58.06 3.42
-5 -4 -6 49.91 3.47
-5 -4 -6 48.06 3.46
5 5 6 47.69 3.18
5 5 6 51.92 3.53
5 5 6 54.44 3.22
5 6 6 13.21 1.14
5 6 6 11.76 1.1
5 7 6 0.5 0.54
5 7 6 1.01 0.57
6 -7 6 5.17 1.25
-6 7 -6 6.02 1.43
6 -6 6 12.79 1.77
-6 6 -6 17.28 1.83
6 -5 6 8.42 1.32
-6 5 -6 5.85 1.26
6 -4 6 3.67 1
6 -4 6 3.53 0.84
-6 4 -6 1.56 0.99
-6 4 -6 1.15 0.89
6 -3 6 86.98 5.67
6 -3 6 87.44 6.12
6 -3 6 93.31 5.9
-6 3 -6 94.03 5.77
-6 3 -6 100.04 5.81
-6 3 -6 91.28 6.13
-6 3 -6 93.04 5.6
6 -2 6 45.35 3.2
6 -2 6 41.46 3.43
6 -2 6 45.02 3.29
6 -2 6 46.36 3.12
-6 2 -6 52.53 3.15
-6 2 -6 53.78 3.3
-6 2 -6 51.53 3.22
-6 2 -6 49.17 3.47
6 -1 6 32.5 2.36
6 -1 6 30.75 2.45
6 -1 6 31.62 2.31
6 -1 6 31.86 2.33
6 -1 6 30.83 2.19
-6 1 -6 30.96 2.45
-6 1 -6 33.91 2.15
-6 1 -6 31.11 2.28
6 0 6 9.13 1.08
6 0 6 9.17 0.93
6 0 6 9.87 1.31
6 0 6 9.25 1.14
-6 0 -6 9.75 1.11
-6 0 -6 8.63 1.17
-6 0 -6 9.96 0.96
6 1 6 31.13 2.23
6 1 6 31.94 2.42
6 1 6 29.6 2.22
6 1 6 31.39 2.4
6 1 6 31.07 2
-6 -1 -6 32.94 2.18
-6 -1 -6 30.96 2.01
-6 -1 -6 34.05 2.43
-6 -1 -6 31.74 2.39
6 2 6 50.33 2.85
6 2 6 51.62 3.16
6 2 6 51.77 3.38
6 2 6 49.31 3.32
6 2 6 48.04 3.13
-6 -2 -6 43.6 3.27
-6 -2 -6 42.58 3.3
6 3 6 88.43 5.42
6 3 6 91.64 5.1
6 3 6 94.03 5.8
6 3 6 92.28 5.44
6 3 6 92.24 5.78
-6 -3 -6 84.97 5.71
-6 -3 -6 82.81 5.69
6 4 6 1.68 0.66
6 4 6 0.86 0.63
6 4 6 1.41 0.5
6 4 6 0.58 0.82
-6 -4 -6 3.34 0.57
-6 -4 -6 2.94 0.57
6 5 6 4.79 0.78
6 5 6 5.35 0.81
6 6 6 13.87 1.3
6 6 6 16.36 1.36
6 7 6 5.55 0.81
7 -7 6 8.24 1.46
-7 7 -6 9.22 1.65
7 -6 6 9.56 1.5
-7 6 -6 12.06 1.63
7 -5 6 4.99 1.26
-7 5 -6 7.45 1.33
7 -4 6 2.25 1.02
7 -4 6 1.46 0.79
-7 4 -6 2.2 1
-7 4 -6 1.68 1.07
7 -3 6 64.06 4.28
7 -3 6 59.11 4.03
7 -3 6 59.81 3.89
7 -3 6 60.26 3.9
-7 3 -6 53.07 4.17
-7 3 -6 60.17 3.96
-7 3 -6 58.35 3.88
7 -2 6 9.1 1.15
7 -2 6 9.68 1.26
7 -2 6 8.81 1.3
7 -2 6 8.3 1.04
-7 2 -6 6.95 1.23
-7 2 -6 8.27 1.09
-7 2 -6 6.85 1.06
-7 2 -6 8.35 1.16
7 -1 6 46.68 3.07
7 -1 6 45.5 3.36
7 -1 6 45.66 3.5
7 -1 6 46.4 3.23
-7 1 -6 51.68 3.09
-7 1 -6 51.38 3.49
-7 1 -6 50.03 3.25
7 0 6 21.51 1.9
7 0 6 19.63 1.65
7 0 6 21.25 1.75
7 0 6 19.64 1.5
-7 0 -6 19.88 1.47
-7 0 -6 18.77 1.77
-7 0 -6 19.63 1.63
7 1 6 49.31 2.9
7 1 6 51.06 3.18
7 1 6 49.03 3.4
7 1 6 50.4 3.17
7 1 6 47.42 3.32
-7 -1 -6 41.49 3.32
-7 -1 -6 43.51 3.06
7 2 6 7.72 1.11
7 2 6 7.83 0.82
7 2 6 7.16 1.15
7 2 6 6.68 0.99
7 2 6 8.63 1.02
-7 -2 -6 7.62 1.06
-7 -2 -6 9.23 1.13
7 3 6 55.01 3.52
7 3 6 51.96 3.73
7 3 6 56.97 3.25
7 3 6 51.41 3.49
7 3 6 55.13 3.8
-7 -3 -6 56 3.67
7 4 6 3.1 0.92
7 4 6 1.78 0.71
7 4 6 1.66 0.71
-7 -4 -6 1.08 0.6
7 5 6 6.15 0.9
7 5 6 6.51 0.93
7 6 6 10.31 1.19
7 7 6 8.49 1.03
8 -6 6 5.92 1.34
-8 6 -6 3.52 1.32
8 -5 6 10.1 1.56
-8 5 -6 7.46 1.46
8 -4 6 16.19 1.78
8 -4 6 16.53 1.97
-8 4 -6 18.02 2.09
-8 4 -6 19.23 1.93
8 -3 6 1.34 1.01
8 -3 6 0.88 0.86
8 -3 6 1.08 0.8
-8 3 -6 2.53 0.98
-8 3 -6 1.22 0.95
8 -2 6 30.77 2.35
8 -2 6 31.14 2.71
8 -2 6 31.7 2.5
8 -2 6 33.92 2.5
-8 2 -6 32.61 2.73
-8 2 -6 32.57 2.5
-8 2 -6 33.96 2.41
8 -1 6 56.31 3.75
8 -1 6 58.06 3.57
8 -1 6 56.72 4.05
8 -1 6 56.91 3.89
-8 1 -6 54.28 3.72
-8 1 -6 55.45 4.02
-8 1 -6 54.65 3.55
8 0 6 125.66 7.33
8 0 6 115.2 7.75
8 0 6 122.37 6.96
8 0 6 117.43 7.28
-8 0 -6 117.51 7.75
-8 0 -6 119.01 7.23
-8 0 -6 119.42 6.95
8 1 6 54.11 3.79
8 1 6 53.89 3.31
8 1 6 50.84 3.82
8 1 6 54.99 3.58
8 1 6 53.24 3.57
-8 -1 -6 55.64 3.48
-8 -1 -6 55.16 3.81
8 2 6 32.39 2.36
8 2 6 33.3 2.6
8 2 6 32.27 2.53
8 2 6 32.3 2.11
8 2 6 32.63 2.36
-8 -2 -6 30.76 2.46
8 3 6 1.15 0.56
8 3 6 1.76 0.75
8 3 6 1.44 0.88
8 3 6 1.39 0.76
-8 -3 -6 1.01 0.76
-8 -3 -6 0.71 0.77
8 4 6 18.76 1.81
8 4 6 17.47 1.56
-8 -4 -6 14.5 1.48
8 5 6 9 1.11
8 6 6 3.17 0.86
9 -6 6 13.34 1.84
-9 6 -6 11.78 1.88
9 -5 6 7.49 1.48
-9 5 -6 5.4 1.41
9 -4 6 6.67 1.18
9 -4 6 3.93 1.27
-9 4 -6 6.83 1.34
-9 4 -6 6.96 1.42
9 -3 6 34.9 3.03
9 -3 6 36.18 2.92
9 -3 6 34.45 2.79
-9 3 -6 42.61 3.26
-9 3 -6 41.58 2.9
9 -2 6 31.87 2.48
9 -2 6 34.34 2.75
9 -2 6 32.54 2.39
9 -2 6 30.44 2.47
-9 2 -6 29.42 2.28
-9 2 -6 26.43 2.42
-9 2 -6 29.49 2.72
9 -1 6 26.99 2.17
9 -1 6 25.52 2.33
9 -1 6 28.03 1.97
9 -1 6 27.06 2.1
-9 1 -6 21.41 2.2
-9 1 -6 21.15 2.05
-9 1 -6 22.3 1.91
9 0 6 2.2 0.82
9 0 6 2.04 0.96
9 0 6 3.12 0.93
9 0 6 0.98 0.7
-9 0 -6 1.96 0.72
-9 0 -6 0.89 0.75
-9 0 -6 1.4 0.87
9 1 6 19.95 1.87
9 1 6 22.91 2.08
9 1 6 20.58 2.06
9 1 6 20.55 1.65
-9 -1 -6 25.73 2.1
9 2 6 27.7 2.25
9 2 6 28.26 1.97
9 2 6 28.15 2.41
-9 -2 -6 29.03 2.32
9 3 6 42.34 2.43
9 3 6 40.04 2.69
-9 -3 -6 31.17 2.71
-9 -3 -6 32.88 2.72
9 4 6 5.89 1.04
-9 -4 -6 5.52 0.96
9 5 6 4.61 0.96
9 6 6 10.49 1.32
10 -6 6 18.84 2.22
-10 6 -6 16.12 2.16
10 -5 6 8.65 1.63
-10 5 -6 12.08 1.8
10 -4 6 6.38 1.37
-10 4 -6 7.02 1.59
-10 4 -6 6.4 1.43
10 -3 6 16.95 2.01
-10 3 -6 12.02 1.85
-10 3 -6 14.38 1.79
10 -2 6 45.79 3.48
10 -2 6 46.56 3.12
-10 2 -6 39.24 3.13
-10 2 -6 39.07 3.34
10 -1 6 1.32 0.96
10 -1 6 1.91 0.86
10 -1 6 0.81 1.05
-10 1 -6 3.2 1.16
-10 1 -6 2 0.83
10 0 6 59.1 3.94
10 0 6 57.66 3.63
10 0 6 56.15 4.15
-10 0 -6 55.26 4.15
-10 0 -6 57.31 3.68
10 1 6 1.46 0.99
10 1 6 1.63 0.92
10 1 6 1.7 0.72
-10 -1 -6 0.23 0.9
10 2 6 39.12 2.95
10 2 6 39.34 3.2
10 2 6 43.22 2.73
-10 -2 -6 43.33 3.15
10 3 6 13.13 1.57
-10 -3 -6 15.23 1.64
10 4 6 6.01 1.09
-10 -4 -6 6.64 1.1
10 5 6 11.99 1.48
10 6 6 15.42 1.68
11 -5 6 3.13 1.38
11 -4 6 23.21 2.62
-11 4 -6 31.27 2.81
11 -3 6 16.16 2.09
-11 3 -6 15.15 2.09
11 -2 6 5.78 1.36
11 -2 6 7.65 1.31
-11 2 -6 8.53 1.51
11 -1 6 7.65 1.37
11 -1 6 8.66 1.24
11 -1 6 8.07 1.54
-11 1 -6 8.8 1.57
11 0 6 126.88 8.33
11 0 6 129.09 7.82
11 0 6 127.93 7.43
-11 0 -6 127.93 7.43
-11 0 -6 113.81 8.22
11 1 6 11.35 1.58
11 1 6 10.69 1.28
11 1 6 9.25 1.4
-11 -1 -6 6.22 1.34
11 2 6 7.91 1.03
11 2 6 7.38 1.27
-11 -2 -6 6.06 1.29
-11 -2 -6 7.21 1.35
11 3 6 15.07 1.73
-11 -3 -6 14.02 1.72
11 4 6 28.21 2.26
-11 -4 -6 23.52 2.19
11 5 6 1.72 0.96
12 -5 6 2.82 1.43
12 -4 6 1.24 1.34
-12 4 -6 0.94 1.44
12 -3 6 10.81 1.8
-12 3 -6 9.57 1.86
12 -2 6 41.81 3.39
-12 2 -6 38.65 3.47
12 -1 6 8.06 1.55
12 -1 6 9.99 1.38
-12 1 -6 11.52 1.73
12 0 6 16.02 1.96
12 0 6 14.7 1.91
12 0 6 16.52 1.71
-12 0 -6 14.68 2.02
12 1 6 12.7 1.76
12 1 6 11.94 1.64
12 1 6 13.07 1.47
-12 -1 -6 9.25 1.6
12 2 6 41.42 3.11
-12 -2 -6 41.2 3.23
-12 -2 -6 39.26 3.27
12 3 6 9.53 1.45
-12 -3 -6 10.39 1.52
12 4 6 2.5 1.09
-12 -4 -6 1.3 1.04
12 5 6 2.16 1.13
13 -4 6 4.5 1.58
13 -3 6 4.33 1.43
-13 3 -6 4.21 1.65
13 -2 6 7.3 1.66
-13 2 -6 7.75 1.76
13 -1 6 3.25 1.3
-13 1 -6 5.12 1.54
13 0 6 5.36 1.44
13 0 6 4.97 1.36
13 0 6 5.08 1.14
-13 0 -6 4.88 1.44
13 1 6 3.9 1.29
-13 -1 -6 2.42 1.28
-13 -1 -6 4.09 1.32
13 2 6 8.27 1.47
-13 -2 -6 7.58 1.54
13 3 6 5.05 1.27
-13 -3 -6 3.66 1.28
13 4 6 4.45 1.23
-13 -4 -6 3.36 1.19
14 -3 6 6.05 1.75
-14 3 -6 6.86 1.88
14 -2 6 0.5 1.25
-14 2 -6 -0.16 1.44
14 -1 6 10.19 1.89
-14 1 -6 12.17 2.04
-14 1 -6 10.51 1.96
14 0 6 29.45 2.9
-14 0 -6 26.67 2.83
-14 0 -6 27.8 2.87
14 1 6 13.42 1.82
-14 -1 -6 9.63 1.79
-14 -1 -6 9.21 1.75
14 2 6 0.44 1.15
-14 -2 -6 -0.27 1.16
14 3 6 7.37 1.51
-14 -3 -6 6.65 1.53
15 -2 6 2.76 1.61
-15 2 -6 1.74 1.52
-15 2 -6 2.66 1.6
15 -1 6 13.57 2.23
-15 1 -6 15.26 2.28
-15 1 -6 16.06 2.34
15 0 6 0.55 1.28
-15 0 -6 2.14 1.51
-15 0 -6 1.03 1.45
-15 -1 -6 13.61 2.05
15 2 6 2.76 1.38
-15 -2 -6 3.06 1.44
-16 0 -6 3.07 1.55
-16 -2 7 0.98 1.47
-16 -1 7 8.88 1.9
-16 0 7 4.96 1.77
16 0 -7 5.17 1.69
-16 1 7 11.72 2.1
16 -1 -7 12.13 2.12
-16 2 7 -0.15 1.65
16 -2 -7 2.44 1.56
-15 -3 7 2.18 1.45
15 3 -7 1.19 1.33
-15 -2 7 1.77 1.4
-15 -1 7 9.53 1.8
15 1 -7 7.49 1.74
-15 0 7 7.51 1.79
15 0 -7 9.99 1.88
-15 1 7 10.22 1.91
15 -1 -7 11.11 1.94
-15 2 7 0.34 1.54
15 -2 -7 1.67 1.44
-15 3 7 3.08 1.62
15 -3 -7 2.32 1.5
-14 -4 7 20.69 2.36
14 4 -7 19.27 2.22
-14 -3 7 4.82 1.48
14 3 -7 5.51 1.39
-14 -2 7 31.99 2.92
14 2 -7 28.75 2.67
-14 -1 7 2.69 1.29
14 1 -7 5.63 1.5
-14 0 7 12.79 1.93
14 0 -7 15.42 2.08
-14 1 7 4.83 1.61
14 -1 -7 3.02 1.41
-14 2 7 29.98 3.12
14 -2 -7 32.2 3.05
-14 3 7 3.26 1.52
14 -3 -7 6.42 1.53
14 -4 -7 20.24 2.46
-13 -5 7 0.98 1.2
13 5 -7 2.65 1.2
-13 -4 7 8.69 1.58
13 4 -7 9.96 1.61
-13 -3 7 0.54 1.12
13 3 -7 -0.23 1.02
-13 -2 7 5.01 1.4
13 2 -7 4.66 1.23
-13 -1 7 4.84 1.41
13 1 -7 4.22 1.22
13 1 -7 3.4 1.23
-13 0 7 3.53 1.31
13 0 -7 5.32 1.42
-13 1 7 3.45 1.35
13 -1 -7 6.02 1.45
-13 2 7 4.38 1.42
13 -2 -7 5.24 1.46
-13 3 7 0.33 1.39
13 -3 -7 0.82 1.21
13 -4 -7 8.42 1.67
-13 5 7 0.94 1.41
13 -5 -7 1.31 1.3
-12 -5 7 -0.68 1.06
12 5 -7 0.7 1.09
-12 -4 7 21.19 2.19
12 4 -7 20.52 2.15
-12 -3 7 2.37 1.2
12 3 -7 2.85 1.11
-12 -2 7 3.14 1.22
12 2 -7 7.4 1.28
12 2 -7 6.4 1.28
-12 -1 7 3.04 1.24
12 1 -7 3.53 1.15
12 1 -7 4.06 1.13
-12 0 7 37.65 3.2
12 0 -7 39.77 3
12 0 -7 36.6 3.21
-12 1 7 3.6 1.27
12 -1 -7 4.49 1.24
-12 2 7 6.89 1.28
-12 2 7 7.31 1.47
12 -2 -7 2.48 1.17
-12 3 7 2.61 1.38
-12 3 7 2 1.21
12 -3 -7 2.98 1.17
-12 4 7 20.12 2.22
12 -4 -7 18.28 2.2
-12 5 7 -0.72 1.25
12 -5 -7 0.38 1.13
-11 -6 7 1.16 0.93
11 6 -7 1.9 1.19
-11 -5 7 1.33 1.02
11 5 -7 1.86 1.06
-11 -4 7 19.91 2.07
11 4 -7 19.99 1.96
-11 -3 7 39.95 3.04
11 3 -7 34.86 2.88
-11 -2 7 36.54 3.02
11 2 -7 39.52 3.07
11 2 -7 35.72 2.76
-11 -1 7 18.92 2.14
11 1 -7 23.32 2.14
11 1 -7 27.53 2.38
11 1 -7 26.11 2.05
-11 0 7 6.96 1.39
11 0 -7 8.41 1.24
11 0 -7 9.35 1.45
11 0 -7 7.25 1.14
11 -1 -7 17.25 1.88
11 -1 -7 15.39 1.65
-11 2 7 39.77 3.25
-11 2 7 37.75 2.95
11 -2 -7 37.5 3.09
-11 3 7 33.6 2.83
-11 3 7 32.53 3.07
11 -3 -7 39.15 3.05
-11 4 7 20.83 2.2
11 -4 -7 21.34 2.23
-11 5 7 1.42 1.28
11 -5 -7 0.18 1.11
-11 6 7 1.4 1.3
11 -6 -7 1.41 1.18
-10 -6 7 8.13 1.17
10 6 -7 6.78 1.31
-10 -5 7 19.19 2.02
10 5 -7 21.08 2
-10 -4 7 7.84 1.34
10 4 -7 8.62 1.31
-10 -3 7 6.21 1.26
10 3 -7 10.21 1.31
-10 -2 7 21.72 2.13
10 2 -7 22.42 2.13
10 2 -7 22.44 1.99
-10 -1 7 71.25 4.8
10 1 -7 70.96 4.51
10 1 -7 63.66 4.31
10 1 -7 67.78 4.76
-10 0 7 30.52 2.42
-10 0 7 30.17 2.64
10 0 -7 31.14 2.43
10 0 -7 30.63 2.3
10 0 -7 30.22 2.56
-10 1 7 68.63 5.06
-10 1 7 70.23 4.72
10 -1 -7 73.48 4.71
10 -1 -7 72.72 4.61
10 -1 -7 77.13 5.06
-10 2 7 20.91 2.27
-10 2 7 23.08 2.08
10 -2 -7 22.53 2.14
10 -2 -7 22.97 2.04
-10 3 7 11.16 1.62
-10 3 7 12.12 1.48
10 -3 -7 6.01 1.22
10 -3 -7 8.15 1.41
-10 4 7 9.81 1.44
10 -4 -7 6.92 1.24
10 -4 -7 7.29 1.35
-10 5 7 18.08 2.17
10 -5 -7 21.73 2.16
-10 6 7 6.55 1.48
10 -6 -7 8.14 1.46
-9 -6 7 0.33 0.81
9 6 -7 1.89 0.99
-9 -5 7 7.1 1.19
9 5 -7 6.94 1.21
-9 -4 7 3.72 1.04
9 4 -7 1.8 0.93
-9 -3 7 13.33 1.62
9 3 -7 15.37 1.69
9 3 -7 15.61 1.57
-9 -2 7 5.42 1.11
9 2 -7 5.79 1.05
9 2 -7 6.93 1.15
-9 -1 7 5.04 0.96
-9 -1 7 4.49 1.07
9 1 -7 5.73 0.98
9 1 -7 7.45 1.09
9 1 -7 6.65 1.15
-9 0 7 38.71 2.93
-9 0 7 39.03 2.75
9 0 -7 39.44 2.93
9 0 -7 36.69 2.63
9 0 -7 36.24 2.72
-9 1 7 7.26 1.06
-9 1 7 6.14 1.2
9 -1 -7 3.91 1.03
9 -1 -7 4.98 0.98
9 -1 -7 5.85 1.02
-9 2 7 6.67 1.14
-9 2 7 6.78 1.31
9 -2 -7 5.36 1.01
9 -2 -7 5.83 1.11
-9 3 7 15.71 1.88
-9 3 7 17.03 1.7
9 -3 -7 13.22 1.5
9 -3 -7 12.72 1.7
-9 4 7 1.33 0.99
9 -4 -7 4.48 1.01
9 -4 -7 3.3 1.08
9 -4 -7 3.78 1.08
-9 5 7 5.98 1.33
9 -5 -7 8.8 1.37
-9 6 7 1.41 1.18
9 -6 -7 1.1 1.06
-8 -6 7 4.51 0.93
8 6 -7 3.95 1.07
-8 -5 7 15.84 1.68
8 5 -7 16 1.64
-8 -4 7 21.13 1.89
8 4 -7 19.82 1.83
8 4 -7 17.55 1.77
-8 -3 7 57.61 4.03
8 3 -7 57.07 3.83
8 3 -7 59.88 4.08
-8 -2 7 15.61 1.47
-8 -2 7 13.75 1.65
-8 -2 7 16.79 1.59
8 2 -7 14.93 1.64
8 2 -7 15.35 1.52
8 2 -7 19.43 1.65
-8 -1 7 34.63 2.79
-8 -1 7 36.43 2.59
8 1 -7 34.76 2.76
8 1 -7 38.5 2.67
8 1 -7 37.05 2.6
-8 0 7 13.5 1.51
-8 0 7 14.74 1.49
8 0 -7 14.36 1.43
8 0 -7 11.75 1.27
8 0 -7 13.18 1.48
-8 1 7 39.66 2.69
-8 1 7 39.69 2.75
-8 1 7 36.51 2.88
8 -1 -7 35.47 2.59
8 -1 -7 36.47 2.81
8 -1 -7 35.71 2.58
-8 2 7 17.38 1.73
-8 2 7 16.16 1.8
-8 2 7 14.5 1.6
8 -2 -7 16.67 1.74
8 -2 -7 15.88 1.52
8 -2 -7 16.99 1.59
-8 3 7 60.06 4.28
-8 3 7 61.1 3.87
-8 3 7 59.41 3.98
8 -3 -7 58.31 4.21
8 -3 -7 59.08 4.08
8 -3 -7 63.05 3.93
-8 4 7 18.62 1.82
8 -4 -7 18.61 1.92
8 -4 -7 20.06 1.83
8 -4 -7 19.58 1.84
-8 5 7 15.57 1.75
8 -5 -7 13.14 1.64
-8 6 7 3.69 1.21
8 -6 -7 4.47 1.1
7 7 -7 2.67 1.02
-7 -6 7 12.45 1.35
7 6 -7 10.25 1.36
-7 -5 7 15.75 1.56
7 5 -7 13.57 1.51
7 4 -7 20.79 1.82
7 4 -7 20.25 1.74
-7 -3 7 21.54 2.07
7 3 -7 30.06 2.1
7 3 -7 27.31 2.15
7 3 -7 23.36 1.96
-7 -2 7 53.18 3.28
-7 -2 7 50.36 3.55
7 2 -7 50.73 3.33
7 2 -7 47.66 3.5
7 2 -7 49.69 3.34
-7 -1 7 36.48 2.67
-7 -1 7 36.12 2.43
7 1 -7 32.49 2.6
7 1 -7 34.48 2.48
7 1 -7 32.72 2.43
-7 0 7 298.96 17.05
-7 0 7 287.38 18.09
7 0 -7 299.12 17.07
7 0 -7 301.61 17.07
7 0 -7 280.56 16.5
7 0 -7 282.65 18.09
-7 1 7 31.63 2.44
-7 1 7 31.44 2.6
-7 1 7 34.52 2.51
7 -1 -7 37.11 2.45
7 -1 -7 35.1 2.36
7 -1 -7 37.16 2.68
-7 2 7 45.6 3.51
-7 2 7 48.08 3.31
-7 2 7 46.71 3.3
7 -2 -7 54.17 3.32
7 -2 -7 51.57 3.53
7 -2 -7 53.65 3.27
-7 3 7 25.93 2
-7 3 7 27.07 2.21
-7 3 7 26.19 2.07
-7 3 7 26.95 1.93
7 -3 -7 23.02 1.99
7 -3 -7 20.33 1.91
7 -3 -7 24.21 2.14
7 -4 -7 10.54 1.35
7 -4 -7 13.75 1.51
7 -4 -7 11.83 1.49
-7 5 7 13.46 1.63
7 -5 -7 16.79 1.8
7 -5 -7 14.55 1.61
-7 6 7 11.51 1.54
7 -6 -7 14.49 1.65
-7 7 7 2.91 1.15
7 -7 -7 3.08 0.91
6 7 -7 9.38 1.3
-6 -6 7 1.81 0.75
6 6 -7 2.22 0.86
6 5 -7 2.71 0.84
-6 -4 7 4.69 0.98
6 4 -7 7 0.98
6 4 -7 6.51 0.98
6 4 -7 7.45 1.02
-6 -3 7 95.63 6.54
-6 -3 7 92.82 6.52
6 3 -7 105.09 6.19
6 3 -7 101.98 6.17
6 3 -7 108.82 6.58
6 3 -7 102.01 6.39
-6 -2 7 15.93 1.69
-6 -2 7 18.92 1.59
6 2 -7 20.06 1.63
6 2 -7 20.76 1.64
6 2 -7 19.34 1.63
6 2 -7 20.92 1.76
-6 -1 7 7.88 0.98
-6 -1 7 6.47 1.09
6 1 -7 10.15 1.17
6 1 -7 10.5 1.08
6 1 -7 12.11 1.14
-6 0 7 6 0.89
-6 0 7 3.64 0.84
-6 0 7 3.83 0.78
6 0 -7 4.25 0.74
6 0 -7 4.47 0.78
6 0 -7 4.26 0.83
6 0 -7 4.79 0.8
-6 1 7 10.53 1.17
6 -1 -7 7.6 1.06
6 -1 -7 7.02 0.93
6 -1 -7 7.91 0.99
6 -1 -7 6.94 0.96
-6 2 7 19.72 1.59
-6 2 7 18.36 1.64
-6 2 7 19.93 1.77
6 -2 -7 17.41 1.54
6 -2 -7 18.37 1.5
6 -2 -7 18.09 1.62
6 -2 -7 16.89 1.5
-6 3 7 99.12 5.9
-6 3 7 103.43 5.76
-6 3 7 104.9 5.96
-6 3 7 99.23 6.29
6 -3 -7 90.61 5.72
6 -3 -7 89.89 6.07
6 -3 -7 95.93 6.27
6 -3 -7 93.29 6.26
6 -3 -7 88.97 6.22
-6 4 7 7.49 1.06
-6 4 7 4.85 0.94
-6 4 7 7.42 1.14
6 -4 -7 4.64 0.9
6 -4 -7 4.85 0.97
6 -4 -7 4.12 0.95
-6 5 7 4.11 0.96
6 -5 -7 6.64 1.16
6 -5 -7 6.97 1.08
-6 6 7 2.98 1
6 -6 -7 1.73 0.82
-6 7 7 11.7 1.53
5 7 -7 16.79 1.7
-5 -6 7 0.76 0.67
5 6 -7 0.76 0.8
-5 -5 7 1.65 0.78
5 5 -7 2.99 0.8
5 5 -7 3.56 0.79
-5 -4 7 29.75 2.62
5 4 -7 39.83 2.58
5 4 -7 36.16 2.5
5 4 -7 35.21 2.63
5 4 -7 37.54 2.52
-5 -3 7 78.47 5.14
-5 -3 7 83.85 5.18
5 3 -7 77.13 5.01
5 3 -7 77.54 4.87
5 3 -7 77.2 4.87
5 3 -7 76.31 5.15
-5 -2 7 18.22 1.45
-5 -2 7 17.48 1.51
-5 -2 7 17.76 1.35
5 2 -7 11.11 1.33
5 2 -7 12.52 1.43
5 2 -7 14.03 1.35
5 2 -7 13.14 1.33
-5 -1 7 40.19 3.38
5 1 -7 59.82 3.49
5 1 -7 53.22 3.56
5 1 -7 57.91 3.7
5 1 -7 59.44 3.45
-5 0 7 41.9 2.72
-5 0 7 39.29 2.92
-5 0 7 41.34 2.74
5 0 -7 41.47 2.72
5 0 -7 40.1 2.86
5 0 -7 42.26 2.7
5 0 -7 36.78 2.76
5 -1 -7 35.86 2.41
5 -1 -7 36.54 2.48
5 -1 -7 36.39 2.68
5 -1 -7 39.24 2.64
-5 2 7 12.61 1.38
-5 2 7 13.49 1.35
-5 2 7 12.19 1.46
5 -2 -7 18.16 1.34
5 -2 -7 15.26 1.46
5 -2 -7 17.56 1.34
5 -2 -7 17.12 1.41
-5 3 7 76.11 4.65
-5 3 7 72.96 5.09
-5 3 7 77.17 4.8
-5 3 7 73.33 4.79
5 -3 -7 79.64 4.67
5 -3 -7 78.29 4.96
5 -3 -7 82.08 5.1
5 -3 -7 78.75 5.08
-5 4 7 39.65 2.57
-5 4 7 37.02 2.51
-5 4 7 37.02 2.68
-5 4 7 40.04 2.54
5 -4 -7 32.37 2.52
5 -4 -7 32.22 2.45
5 -4 -7 31.77 2.59
-5 5 7 2.67 0.96
-5 5 7 4.29 0.9
5 -5 -7 2.33 0.76
5 -5 -7 1.28 0.84
5 -5 -7 1.88 0.78
-5 6 7 -0.09 0.84
5 -6 -7 0.88 0.7
-5 7 7 17.11 1.76
4 7 -7 2.69 0.98
-4 -6 7 13.27 1.27
4 6 -7 8.28 1.17
-4 -5 7 20.52 1.82
4 5 -7 22.08 1.73
4 5 -7 22.32 1.8
-4 -4 7 114.93 7.84
4 4 -7 129.06 7.47
4 4 -7 122.3 7.42
4 4 -7 126.12 7.46
4 4 -7 126.67 7.66
4 4 -7 123.18 7.88
-4 -3 7 18.26 1.63
-4 -3 7 17.31 1.59
4 3 -7 16.05 1.41
4 3 -7 15.45 1.52
4 3 -7 16.17 1.47
4 3 -7 16.36 1.44
-4 -2 7 94.27 5.74
-4 -2 7 87.53 6.11
-4 -2 7 96.54 6.15
4 2 -7 98.78 6.14
4 2 -7 95.5 5.76
4 2 -7 99.16 5.8
4 2 -7 94.67 5.97
-4 -1 7 180.15 11.63
-4 -1 7 181.52 10.95
4 1 -7 187.19 11.37
4 1 -7 184.52 10.96
4 1 -7 194.57 10.99
4 1 -7 192.21 11.66
-4 0 7 609.13 33.91
-4 0 7 584.04 35.93
-4 0 7 576.89 33.88
4 0 -7 584 33.88
4 0 -7 579.06 35.06
4 0 -7 572.11 35.92
4 0 -7 607.09 33.9
-4 1 7 189.99 11.58
-4 1 7 190.86 10.9
-4 1 7 189.4 10.89
4 -1 -7 188.23 11.56
4 -1 -7 182.9 11.28
4 -1 -7 175.45 10.49
4 -1 -7 180.63 10.86
-4 2 7 96.94 5.7
-4 2 7 98.68 6.08
-4 2 7 95.62 5.71
4 -2 -7 91.14 5.49
4 -2 -7 93.72 5.64
4 -2 -7 93.74 6.04
4 -2 -7 92.71 6.05
4 -2 -7 90.06 5.9
-4 3 7 15.25 1.37
-4 3 7 15.98 1.34
-4 3 7 16.62 1.53
-4 3 7 16.45 1.46
4 -3 -7 17.59 1.55
4 -3 -7 17.64 1.54
4 -3 -7 16.19 1.32
4 -3 -7 17.04 1.44
-4 4 7 119.72 7.31
-4 4 7 128.49 7.14
-4 4 7 128.07 7.8
-4 4 7 127.38 7.34
4 -4 -7 117.92 7.11
4 -4 -7 123.15 7.73
4 -4 -7 115.85 7.72
4 -4 -7 115.74 7.54
-4 5 7 23.93 1.86
-4 5 7 23.09 1.87
-4 5 7 21.81 1.79
4 -5 -7 20.67 1.86
4 -5 -7 22.7 1.79
4 -5 -7 21.03 1.76
-4 6 7 8.22 1.18
4 -6 -7 11.84 1.07
-4 7 7 2.51 0.93
3 7 -7 26.27 2.15
-3 -6 7 19.92 1.69
3 6 -7 18.47 1.72
3 5 -7 10.55 1.34
3 5 -7 9.41 1.17
3 5 -7 9.64 1.08
-3 -4 7 7.08 1.01
-3 -4 7 7.95 1.01
3 4 -7 7.17 0.95
3 4 -7 7.59 0.99
3 4 -7 7.2 1.03
3 4 -7 7.4 0.96
-3 -3 7 48.82 3.3
-3 -3 7 50.81 3.32
3 3 -7 44.8 3.05
3 3 -7 47.53 3.16
3 3 -7 47.27 3.08
3 3 -7 45.8 3.25
-3 -2 7 77.51 4.9
-3 -2 7 72.76 4.9
3 2 -7 75.99 4.61
3 2 -7 72.79 4.91
3 2 -7 75.82 4.62
3 2 -7 73.19 4.75
3 2 -7 76.91 4.63
-3 -1 7 69.38 4.24
-3 -1 7 65.32 4.2
-3 -1 7 65.57 4.5
3 1 -7 66.51 4.5
3 1 -7 68.65 4.38
3 1 -7 73.17 4.27
3 1 -7 72.64 4.26
-3 0 7 0.36 0.58
-3 0 7 0.23 0.6
-3 0 7 0.05 0.49
3 0 -7 0.26 0.5
3 0 -7 0.73 0.53
3 0 -7 0.47 0.52
3 0 -7 0.5 0.55
-3 1 7 72.57 4.47
-3 1 7 68.8 4.19
-3 1 7 68.15 4.16
3 -1 -7 69.53 4.45
3 -1 -7 65.8 4.13
3 -1 -7 64.46 4.41
3 -1 -7 64.55 4.31
-3 2 7 72.66 4.9
-3 2 7 72.97 4.6
-3 2 7 74.21 4.61
3 -2 -7 78.98 4.91
3 -2 -7 76.47 4.55
3 -2 -7 75.58 4.89
3 -2 -7 76.2 4.79
-3 3 7 47.43 3.24
-3 3 7 45.44 3.02
-3 3 7 46.16 2.91
-3 3 7 50.35 3.08
3 -3 -7 50.12 3.24
3 -3 -7 45.82 3.21
3 -3 -7 46.41 2.92
3 -3 -7 47.73 3.16
-3 4 7 6.84 0.91
-3 4 7 6.37 0.85
-3 4 7 7.68 0.99
-3 4 7 7.81 0.97
3 -4 -7 7.31 1
3 -4 -7 7.95 0.92
3 -4 -7 7.42 0.95
3 -4 -7 6.59 0.87
-3 5 7 10.79 1.3
-3 5 7 9.74 1.19
-3 5 7 9.34 1.12
-3 6 7 19.61 1.66
-3 7 7 26.29 2.08
2 7 -7 2.48 0.94
-2 -6 7 67.78 4.43
2 6 -7 66.52 4.32
-2 -5 7 4.45 0.89
2 5 -7 3.68 0.7
2 5 -7 3.55 0.83
2 5 -7 4.54 0.93
-2 -4 7 18.66 1.59
-2 -4 7 17.57 1.54
2 4 -7 17.49 1.42
2 4 -7 17.47 1.53
2 4 -7 15.02 1.42
2 4 -7 15.87 1.6
-2 -3 7 21.03 1.74
-2 -3 7 20.28 1.81
2 3 -7 20.68 1.74
2 3 -7 22.59 1.69
2 3 -7 20.88 1.61
2 3 -7 21.1 1.63
-2 -2 7 43.41 3.1
-2 -2 7 43.57 3.36
-2 -2 7 44.59 3.38
2 2 -7 52.75 3.38
2 2 -7 54.11 3.27
2 2 -7 56.22 3.19
2 2 -7 52.71 3.17
-2 -1 7 2.35 0.67
-2 -1 7 2.91 0.64
-2 -1 7 1.97 0.65
-2 -1 7 2.83 0.66
2 1 -7 3.57 0.63
2 1 -7 3.72 0.66
2 1 -7 4.37 0.67
2 1 -7 5.06 0.77
-2 0 7 9.58 1.09
-2 0 7 9.54 1.08
-2 0 7 9.18 1.06
-2 0 7 9.37 1.18
2 0 -7 9.84 0.96
2 0 -7 9.3 1.05
2 0 -7 9.09 0.96
2 0 -7 9.47 0.99
-2 1 7 4.23 0.66
-2 1 7 3.88 0.69
-2 1 7 4.37 0.67
-2 1 7 4.71 0.72
2 -1 -7 2.48 0.61
2 -1 -7 2.26 0.59
2 -1 -7 2.05 0.65
2 -1 -7 2.48 0.49
2 -1 -7 2.18 0.58
-2 2 7 54.38 3.05
-2 2 7 57.54 3.25
-2 2 7 56.36 3.29
2 -2 -7 44.26 2.86
2 -2 -7 43.32 3.2
2 -2 -7 43.42 2.95
2 -2 -7 42.3 3.15
2 -2 -7 45.66 3.25
-2 3 7 20.92 1.55
-2 3 7 21.31 1.56
-2 3 7 21.72 1.68
-2 3 7 21.13 1.45
2 -3 -7 19.25 1.63
2 -3 -7 20.01 1.64
2 -3 -7 19.03 1.59
-2 4 7 15.36 1.37
-2 4 7 16.72 1.52
-2 4 7 18.51 1.46
-2 4 7 17.89 1.41
2 -4 -7 17.6 1.47
2 -4 -7 17.64 1.46
2 -4 -7 19.47 1.47
2 -4 -7 16.5 1.36
2 -4 -7 17.86 1.42
-2 5 7 3.67 0.8
-2 5 7 3.33 0.73
-2 5 7 4.84 0.86
2 -5 -7 5.33 0.65
2 -5 -7 4.55 0.61
2 -5 -7 5.24 0.82
-2 6 7 67.66 4.21
-2 6 7 68.09 4.26
-2 7 7 3.6 0.86
-1 -7 7 2.42 0.67
1 7 -7 3 0.97
-1 -6 7 15.97 1.51
1 6 -7 12.57 1.46
-1 -5 7 2.08 0.75
1 5 -7 1 0.77
1 5 -7 1.43 0.75
1 5 -7 1.14 0.56
-1 -4 7 55.43 4.02
-1 -4 7 49.8 3.97
1 4 -7 62.07 4.04
1 4 -7 62.94 3.81
1 4 -7 64.43 3.84
1 4 -7 62.97 3.82
-1 -3 7 29.04 2.02
-1 -3 7 27.56 1.76
-1 -3 7 26.36 1.99
-1 -3 7 27.86 1.87
1 3 -7 22.65 1.84
1 3 -7 22.82 1.84
1 3 -7 21.98 1.94
1 3 -7 21.66 1.78
-1 -2 7 31.71 1.84
-1 -2 7 31.38 2.04
-1 -2 7 31.66 2.02
1 2 -7 21.28 1.95
1 2 -7 22.15 1.82
1 2 -7 20.79 1.82
1 2 -7 21.48 1.81
-1 -1 7 181.31 10.41
-1 -1 7 174.82 10.14
-1 -1 7 175.12 9.79
1 1 -7 161.12 10.38
1 1 -7 161.13 10.12
1 1 -7 158.86 9.76
1 1 -7 158.23 9.77
1 1 -7 160.9 9.78
-1 0 7 576.93 32.43
-1 0 7 581.57 32.42
-1 0 7 560.7 34.36
1 0 -7 526.18 34.33
1 0 -7 584.05 33.56
1 0 -7 558.32 32.41
1 0 -7 549.11 32.4
-1 1 7 160.68 9.82
-1 1 7 154.87 9.81
-1 1 7 158.05 10.2
-1 1 7 160.86 10.43
1 -1 -7 165.47 10.42
1 -1 -7 169.9 9.8
1 -1 -7 179.41 10.24
1 -1 -7 174.82 9.42
1 -1 -7 185.49 10.47
-1 2 7 21.53 2.04
-1 2 7 21.82 1.92
1 -2 -7 32.77 2.09
1 -2 -7 30.75 1.76
1 -2 -7 31.25 2.08
1 -2 -7 29.24 2.05
1 -2 -7 31.54 1.85
-1 3 7 22.61 1.79
-1 3 7 22.06 1.54
-1 3 7 22.21 1.8
-1 3 7 22.49 1.69
-1 3 7 21.55 1.65
1 -3 -7 25.01 1.77
1 -3 -7 25.67 1.82
1 -3 -7 27.57 1.8
1 -3 -7 24.27 1.53
-1 4 7 67.43 3.52
-1 4 7 64 3.63
-1 4 7 63.39 3.85
-1 4 7 63.82 3.8
-1 4 7 61.33 3.59
1 -4 -7 51.62 3.73
1 -4 -7 53.16 3.73
1 -4 -7 48.98 3.72
1 -4 -7 52.15 3.76
-1 5 7 0.87 0.58
-1 5 7 1.61 0.67
-1 5 7 0.83 0.61
1 -5 -7 2.68 0.66
-1 6 7 11.04 1.23
-1 6 7 11.57 1.15
-1 7 7 2.48 0.75
0 -7 7 10.41 1.28
0 7 -7 11.82 1.43
0 -6 7 6.24 1.01
0 6 -7 5.63 1.06
0 -5 7 14.33 1.41
0 5 -7 11.73 1.39
0 5 -7 10.4 1.3
0 5 -7 11.67 1.12
0 -4 7 21.16 1.61
0 -4 7 20.77 1.77
0 -4 7 20.75 1.79
0 4 -7 21.6 1.8
0 4 -7 19.84 1.58
0 4 -7 19.71 1.69
0 -3 7 81.69 5.24
0 -3 7 86.61 5.27
0 -3 7 81.14 5.04
0 -3 7 83.67 4.86
0 3 -7 75.5 5.02
0 3 -7 77.43 4.93
0 3 -7 75.82 5.24
0 -2 7 1.33 0.62
0 -2 7 1.53 0.56
0 -2 7 1.41 0.59
0 -2 7 0.83 0.55
0 2 -7 0.07 0.59
0 2 -7 0.94 0.51
0 2 -7 0.29 0.49
0 2 -7 0.54 0.56
0 -1 7 185.42 11.74
0 -1 7 179.05 12.03
0 -1 7 191.57 11.34
0 1 -7 200.6 11.76
0 1 -7 207.35 11.37
0 1 -7 198.34 11.36
0 1 -7 194.69 12.06
0 0 7 23.06 1.9
0 0 7 24.93 1.73
0 0 7 22.99 1.69
0 0 -7 24.16 1.72
0 0 -7 25.91 1.75
0 0 -7 25.19 1.76
0 0 -7 24.19 1.84
0 0 -7 22.49 1.77
0 1 7 185.35 11.27
0 1 7 191.32 10.85
0 1 7 190.71 11.52
0 1 7 197.52 10.87
0 -1 -7 187.65 11.51
0 -1 -7 175.75 10.8
0 -1 -7 178.67 11.26
0 -1 -7 177.6 11.5
0 2 7 0.37 0.51
0 2 7 0.96 0.58
0 2 7 0.09 0.45
0 2 7 0.39 0.52
0 -2 -7 1.05 0.54
0 -2 -7 0.91 0.29
0 -2 -7 0.69 0.48
0 -2 -7 0.98 0.5
0 3 7 74.67 4.61
0 3 7 74.42 4.87
0 3 7 74.71 4.93
0 3 7 77.31 4.38
0 3 7 74.68 4.63
0 -3 -7 83.61 4.9
0 -3 -7 77.13 4.87
0 -3 -7 77.76 4.88
0 4 7 19.6 1.45
0 4 7 19.46 1.66
0 4 7 21.03 1.43
0 4 7 19.91 1.58
0 4 7 20.61 1.49
0 -4 -7 19.64 1.47
0 -4 -7 19.24 1.61
0 -4 -7 21.53 1.48
0 5 7 9.64 1.07
0 5 7 12.2 1.18
0 5 7 11.66 1.24
0 5 7 11.18 1.06
0 -5 -7 14.68 1.27
0 6 7 5.2 0.75
0 6 7 5.31 0.78
0 7 7 13.1 1.23
1 -7 7 0.73 0.77
-1 7 -7 1.05 0.97
1 -6 7 10.36 1.4
-1 6 -7 12.32 1.43
1 -5 7 1.41 0.83
-1 5 -7 1.04 0.55
-1 5 -7 1.56 0.78
1 -4 7 9.38 1.12
1 -4 7 9.66 1.38
1 -4 7 8.61 1.23
-1 4 -7 14.56 1.41
-1 4 -7 13.72 1.44
-1 4 -7 12.66 1.31
-1 4 -7 14.06 1.38
-1 4 -7 14.29 1.17
1 -3 7 17.33 1.45
1 -3 7 17.51 1.63
1 -3 7 17.98 1.44
1 -3 7 17.85 1.65
-1 3 -7 18.95 1.65
-1 3 -7 18.8 1.51
-1 3 -7 18.24 1.46
1 -2 7 27.53 1.94
1 -2 7 26.1 1.88
1 -2 7 28.19 2.09
-1 2 -7 25.27 1.91
-1 2 -7 26.21 1.93
-1 2 -7 26.21 1.93
-1 2 -7 25.8 2.08
1 -1 7 236.31 14.37
1 -1 7 237.78 13.53
1 -1 7 231.78 14
1 -1 7 223.14 13.5
-1 1 -7 240.17 13.54
-1 1 -7 222.58 14.34
-1 1 -7 232.64 14
-1 1 -7 228.99 13.51
1 0 7 57.61 4.03
1 0 7 67.31 3.85
-1 0 -7 61.23 3.79
-1 0 -7 59.5 3.94
-1 0 -7 61.9 4.07
-1 0 -7 60.79 3.79
1 1 7 223.3 13.29
1 1 7 235.65 13.84
1 1 7 235.88 13.32
1 1 7 226.49 14.12
-1 -1 -7 237.08 14.12
-1 -1 -7 224.95 13.27
-1 -1 -7 225.36 14.11
-1 -1 -7 219.34 13.8
1 2 7 23.04 1.89
1 2 7 25.75 1.89
1 2 7 24.68 1.76
1 2 7 24.45 1.75
1 2 7 24.84 1.77
-1 -2 -7 26.48 1.9
-1 -2 -7 26.58 1.89
-1 -2 -7 26.73 1.89
1 3 7 17.63 1.09
1 3 7 17.41 1.47
1 3 7 17.82 1.31
1 3 7 17.91 1.46
1 3 7 17.57 1.35
-1 -3 -7 17.24 1.45
-1 -3 -7 17.85 1.41
-1 -3 -7 16.74 1.36
1 4 7 12.97 0.97
1 4 7 12.75 1.03
1 4 7 14.67 1.24
1 4 7 12.57 1.07
1 4 7 14 1.19
-1 -4 -7 8.76 0.96
-1 -4 -7 8.7 1.14
1 5 7 1.08 0.53
1 5 7 0.66 0.58
1 5 7 1.51 0.68
1 5 7 1.2 0.55
-1 -5 -7 1.89 0.71
1 6 7 12.32 1.1
1 6 7 12.88 1.15
1 7 7 0.92 0.63
1 7 7 0.58 0.58
2 -7 7 11.29 1.45
-2 7 -7 9.82 1.43
2 -6 7 9.15 1.23
-2 6 -7 6.53 1.2
2 -5 7 25.47 2.18
-2 5 -7 26.03 2.11
2 -4 7 46.72 3.34
2 -4 7 49.38 3.62
2 -4 7 47.19 3.57
-2 4 -7 51.93 3.62
-2 4 -7 53.88 3.42
-2 4 -7 55.41 3.46
-2 4 -7 53.74 3.44
-2 4 -7 52.68 3.37
2 -3 7 75.86 5.01
2 -3 7 74.98 5.01
2 -3 7 75.75 4.64
2 -3 7 73.41 4.79
-2 3 -7 78.95 4.66
-2 3 -7 75.01 4.79
-2 3 -7 72.93 4.69
-2 3 -7 74.13 5.01
-2 3 -7 79.3 4.72
2 -2 7 7.33 1.03
2 -2 7 8.18 1.12
2 -2 7 9.13 1.06
-2 2 -7 11.41 1.07
-2 2 -7 10.44 1.05
-2 2 -7 10.91 1.23
-2 2 -7 10.28 1.05
2 -1 7 159.59 10.66
2 -1 7 162.55 10.04
2 -1 7 166.94 10.41
2 -1 7 165.05 10.05
-2 1 -7 172.85 10.7
-2 1 -7 173.26 10.06
-2 1 -7 179.81 10.07
-2 1 -7 179.62 10.43
-2 1 -7 176.71 9.68
2 0 7 121.19 7.29
2 0 7 115.25 6.84
-2 0 -7 114.39 6.81
-2 0 -7 111.04 6.47
-2 0 -7 113.55 7.26
-2 0 -7 111.38 7.08
2 1 7 161.94 10.12
2 1 7 168.79 9.73
2 1 7 169.99 10.34
2 1 7 174.21 9.74
-2 -1 -7 157.97 9.21
-2 -1 -7 170.92 10.34
-2 -1 -7 163.28 10.33
-2 -1 -7 164.15 9.69
-2 -1 -7 160.82 10.13
2 2 7 9.57 1.03
2 2 7 9.64 0.96
2 2 7 10.02 1.05
2 2 7 10.79 0.98
-2 -2 -7 9.1 1.04
-2 -2 -7 7.87 1.02
-2 -2 -7 7.81 1
2 3 7 72.72 4.42
2 3 7 74.2 4.71
2 3 7 73.02 4.7
2 3 7 72.7 4.4
2 3 7 72.2 4.41
-2 -3 -7 70.9 4.65
-2 -3 -7 76.79 4.67
-2 -3 -7 72.01 4.68
2 4 7 51.99 3.35
2 4 7 51.7 3.12
2 4 7 53.5 2.97
2 4 7 53.92 3.15
2 4 7 53.71 3.4
-2 -4 -7 47.47 3.19
-2 -4 -7 47.59 3.39
-2 -4 -7 46.61 3.19
2 5 7 26.05 1.77
2 5 7 27.32 1.99
2 5 7 24.58 1.74
2 6 7 6.47 0.78
2 6 7 6.12 0.79
2 7 7 7.41 0.91
2 7 7 9.09 0.98
3 -7 7 9.23 1.32
-3 7 -7 10.69 1.5
3 -6 7 0.92 0.89
-3 6 -7 0.25 0.91
3 -5 7 4.64 1.01
-3 5 -7 1.01 0.89
3 -4 7 72.99 4.82
3 -4 7 78.49 4.59
-3 4 -7 64.44 4.51
-3 4 -7 69.49 4.54
-3 4 -7 70.08 4.83
3 -3 7 184.08 11.65
3 -3 7 188.07 10.92
3 -3 7 182.09 11.29
-3 3 -7 182.44 11.28
-3 3 -7 188.05 10.99
-3 3 -7 188.19 10.99
-3 3 -7 193.17 10.7
-3 3 -7 177.48 11.64
3 -2 7 32.41 2.32
3 -2 7 31.49 2.09
3 -2 7 33.46 2.17
-3 2 -7 27.07 2.28
-3 2 -7 26.8 2.03
-3 2 -7 25.48 2.09
-3 2 -7 26.93 2.09
-3 2 -7 28.38 2.06
3 -1 7 20.93 1.93
3 -1 7 20.57 1.77
3 -1 7 22.1 1.76
3 -1 7 20.95 1.75
-3 1 -7 25.32 1.64
-3 1 -7 25.87 1.96
-3 1 -7 25.65 1.85
-3 1 -7 22.62 1.75
-3 1 -7 23.54 1.78
3 0 7 76.99 4.7
3 0 7 74.79 4.67
3 0 7 74.01 4.98
-3 0 -7 76.21 4.88
-3 0 -7 75.42 4.67
-3 0 -7 77.04 4.4
-3 0 -7 80.69 5.02
3 1 7 22.43 1.79
3 1 7 24.73 1.68
3 1 7 22.52 1.75
3 1 7 24.9 1.69
-3 -1 -7 22.87 1.81
-3 -1 -7 20.84 1.32
-3 -1 -7 21.74 1.6
-3 -1 -7 20.74 1.73
-3 -1 -7 20.8 1.77
3 2 7 25.18 1.87
3 2 7 24.07 1.84
3 2 7 24.61 1.98
3 2 7 24.3 1.98
-3 -2 -7 30.1 2.02
-3 -2 -7 30 2.04
-3 -2 -7 30.97 2.02
3 3 7 173.34 10.92
3 3 7 180.01 10.45
3 3 7 178.25 11.08
3 3 7 168.2 10.42
-3 -3 -7 185.19 11.05
-3 -3 -7 180.32 11.04
-3 -3 -7 184.75 10.94
3 4 7 66.99 4.3
3 4 7 63.7 4.28
3 4 7 69.28 4.04
3 4 7 66.21 4.6
-3 -4 -7 76.73 4.43
-3 -4 -7 75.13 4.62
-3 -4 -7 77.91 4.43
3 5 7 0.79 0.72
3 5 7 1.32 0.53
3 5 7 1.1 0.55
3 6 7 0.65 0.53
3 6 7 0.26 0.53
3 6 7 0.65 0.53
3 7 7 9.37 0.98
3 7 7 8.65 0.95
4 -7 7 2.94 1.06
-4 7 -7 3.51 1.16
4 -6 7 29.68 2.49
-4 6 -7 26.61 2.4
4 -5 7 28.13 2.51
-4 5 -7 31.18 2.42
4 -4 7 13.82 1.6
4 -4 7 14.41 1.43
4 -3 7 33.11 2.68
4 -3 7 34.25 2.48
4 -3 7 33.48 2.49
-4 3 -7 38.54 2.49
-4 3 -7 36.58 2.51
-4 3 -7 34.51 2.66
-4 3 -7 35.44 2.52
4 -2 7 116.36 6.98
4 -2 7 115.48 7.44
4 -2 7 116.82 7.22
-4 2 -7 111.32 7.44
-4 2 -7 121.53 7.02
-4 2 -7 114.57 6.99
-4 2 -7 113.37 6.74
-4 2 -7 115.49 7.22
4 -1 7 16.5 1.38
4 -1 7 16.86 1.49
4 -1 7 16.51 1.39
4 -1 7 17.03 1.33
-4 1 -7 12.49 1.27
-4 1 -7 13.38 1.18
-4 1 -7 12.4 1.31
-4 1 -7 13.99 1.3
-4 1 -7 13.27 1.41
4 0 7 3.01 0.82
4 0 7 3.08 0.72
4 0 7 3.51 0.73
-4 0 -7 3 0.67
-4 0 -7 3.19 0.71
-4 0 -7 2.56 0.77
-4 0 -7 2.88 0.52
4 1 7 12.04 1.29
4 1 7 13.42 1.44
4 1 7 13.75 1.45
4 1 7 11.74 1.28
-4 -1 -7 15.48 1.26
-4 -1 -7 16.2 1.4
-4 -1 -7 16.14 1.43
-4 -1 -7 17.22 1.01
-4 -1 -7 17.48 1.47
4 2 7 114.15 6.66
4 2 7 109.56 6.64
4 2 7 109.85 6.99
4 2 7 111.87 7.08
-4 -2 -7 111.21 7.05
-4 -2 -7 113.93 7.06
-4 -2 -7 108.39 6.97
4 3 7 35.95 2.27
4 3 7 35.28 2.42
4 3 7 35.99 2.49
4 3 7 34.49 2.26
-4 -3 -7 31.51 2.35
-4 -3 -7 30.12 2.42
-4 -3 -7 31.47 2.35
4 4 7 23.39 1.7
4 4 7 20.79 1.87
4 4 7 22.83 1.68
4 4 7 24.68 1.44
4 5 7 24.72 1.82
4 5 7 27.98 2.16
4 5 7 26.6 1.84
4 6 7 25.92 1.79
4 6 7 24.2 1.77
4 7 7 2.59 0.63
4 7 7 2.87 0.66
5 -7 7 7.67 1.39
-5 7 -7 9.21 1.55
5 -6 7 5.66 1.24
-5 6 -7 4.76 1.25
5 -5 7 17.98 1.9
-5 5 -7 19.65 1.96
5 -4 7 96.77 6.51
5 -4 7 104.4 6.25
-5 4 -7 95.53 6.14
-5 4 -7 96.02 6.55
5 -3 7 36.47 3.15
5 -3 7 37.6 2.93
5 -3 7 40.65 3.02
-5 3 -7 48.15 3.08
-5 3 -7 47.22 3.32
-5 3 -7 48.05 2.99
-5 3 -7 50.88 3.13
5 -2 7 37.03 2.86
5 -2 7 39.2 2.73
5 -2 7 34.67 2.62
-5 2 -7 38.2 2.88
-5 2 -7 37.17 2.66
-5 2 -7 40.53 2.7
-5 2 -7 37.72 2.55
5 -1 7 34.96 2.6
5 -1 7 33.15 2.49
5 -1 7 34.96 2.74
5 -1 7 35.26 2.48
-5 1 -7 37.12 2.51
-5 1 -7 38.16 2.34
-5 1 -7 36.53 2.73
-5 1 -7 35.54 2.6
5 0 7 118.55 7.06
5 0 7 118.27 6.69
5 0 7 119.82 7.05
5 0 7 114.93 7.5
-5 0 -7 114.48 7.34
-5 0 -7 116.6 7.01
-5 0 -7 116.77 7.51
-5 0 -7 116.42 6.68
5 1 7 35.57 2.57
5 1 7 36.94 2.4
5 1 7 34.64 2.59
5 1 7 34.62 2.39
5 1 7 36.26 2.11
-5 -1 -7 33.83 2.32
-5 -1 -7 32.04 2.49
-5 -1 -7 34.38 2.56
-5 -1 -7 33.32 2.1
-5 -1 -7 34.01 2.57
5 2 7 38.04 2.67
5 2 7 33.99 2.43
5 2 7 36.12 2.46
5 2 7 36.25 2.66
-5 -2 -7 37.05 2.62
-5 -2 -7 35.85 2.62
5 3 7 47.07 2.98
5 3 7 46.8 3.03
5 3 7 42.94 2.75
5 3 7 45.63 2.76
-5 -3 -7 35.21 2.83
-5 -3 -7 35.24 2.84
5 4 7 95.16 5.31
5 4 7 94.8 5.68
5 4 7 91.09 6.01
5 4 7 89.01 5.65
-5 -4 -7 99.89 5.9
-5 -4 -7 93.59 5.88
-5 -4 -7 93.95 5.88
5 5 7 17.61 1.45
5 5 7 18.55 1.49
5 6 7 4.81 0.76
5 6 7 5.12 0.8
5 7 7 7.2 0.88
6 -7 7 6.15 1.38
-6 7 -7 7.71 1.55
6 -6 7 1.53 1.08
-6 6 -7 1.98 1.14
6 -5 7 13.27 1.75
-6 5 -7 16.41 1.85
6 -4 7 70.52 4.42
6 -4 7 68.32 4.68
-6 4 -7 61.46 4.33
-6 4 -7 64.21 4.7
6 -3 7 39.31 2.66
6 -3 7 39.37 2.59
6 -3 7 38.77 2.87
-6 3 -7 30.96 2.81
-6 3 -7 30.58 2.53
-6 3 -7 31.69 2.59
6 -2 7 37.3 2.48
6 -2 7 36.81 2.66
6 -2 7 33.32 2.36
-6 2 -7 28.62 2.57
-6 2 -7 28.2 2.3
-6 2 -7 28.75 2.24
-6 2 -7 30.12 2.41
6 -1 7 53.92 3.74
6 -1 7 56.49 3.74
6 -1 7 57.4 3.88
6 -1 7 58.15 3.55
6 -1 7 57.24 4.04
-6 1 -7 55.52 3.99
-6 1 -7 59.66 3.54
-6 1 -7 62.01 3.77
6 0 7 66.14 3.79
6 0 7 61.55 4.28
6 0 7 60.94 4.03
6 0 7 64.01 4.06
-6 0 -7 61.19 3.75
-6 0 -7 62.02 3.99
-6 0 -7 65.37 4.34
6 1 7 58.76 3.45
6 1 7 57.6 3.96
6 1 7 63.92 3.79
6 1 7 62.5 3.79
6 1 7 60.4 4.04
-6 -1 -7 56.73 3.45
-6 -1 -7 56.82 3.69
-6 -1 -7 53.33 3.98
6 2 7 30.46 2.39
6 2 7 27.39 2.13
6 2 7 29.54 2.37
6 2 7 28.14 1.83
6 2 7 29.09 2.19
-6 -2 -7 34.8 2.33
-6 -2 -7 32.51 2.31
6 3 7 29.17 1.82
6 3 7 28.68 2.17
6 3 7 30.43 2.18
6 3 7 28.54 2.4
6 3 7 29.26 2.33
-6 -3 -7 37.32 2.32
6 4 7 63.24 4.06
6 4 7 63.59 4.4
6 4 7 61.41 4.06
-6 -4 -7 68.03 4.17
-6 -4 -7 66.5 4.18
6 5 7 16.27 1.45
6 5 7 15.96 1.47
6 6 7 1.23 0.69
6 7 7 5.88 0.88
7 -6 7 33.17 2.8
-7 6 -7 28.66 2.76
7 -5 7 28.54 2.74
-7 5 -7 36.49 2.73
7 -4 7 0.93 0.84
7 -4 7 0.39 0.97
-7 4 -7 0.92 0.96
-7 4 -7 0.87 1.07
7 -3 7 15.59 1.59
7 -3 7 12.86 1.73
-7 3 -7 10.16 1.42
-7 3 -7 11.77 1.6
7 -2 7 44.88 3.15
7 -2 7 43.84 3.25
7 -2 7 44.65 3.47
7 -2 7 45.28 3.09
-7 2 -7 48.25 3.09
-7 2 -7 49.34 3.23
-7 2 -7 47.29 3.5
7 -1 7 46.01 3.08
7 -1 7 45.93 3.36
7 -1 7 46.16 3.23
7 -1 7 47.62 3.55
-7 1 -7 50.69 3.57
-7 1 -7 50.98 3.28
-7 1 -7 49.49 3.08
7 0 7 18.84 1.68
7 0 7 20.18 1.55
7 0 7 19.61 1.85
7 0 7 19.08 1.74
-7 0 -7 18.77 1.66
-7 0 -7 19.74 1.48
-7 0 -7 21.4 1.92
7 1 7 49.78 3.29
7 1 7 46.81 3.27
7 1 7 45.96 3.45
7 1 7 51.26 2.98
7 1 7 49.2 3.52
-7 -1 -7 50.97 3.51
-7 -1 -7 48.49 2.99
-7 -1 -7 48.67 3.21
7 2 7 47.47 2.77
7 2 7 45.22 3.3
7 2 7 47.13 3.1
7 2 7 44.14 3.32
7 2 7 46.3 3.09
-7 -2 -7 48.87 3.34
-7 -2 -7 43.25 3.25
7 3 7 10.93 1.49
7 3 7 9.79 1.27
7 3 7 10.72 0.91
7 3 7 9.34 1.23
-7 -3 -7 14.82 1.38
7 4 7 1.17 0.68
7 4 7 1.04 0.74
7 4 7 1.46 0.95
-7 -4 -7 0.42 0.63
7 5 7 31.83 2.3
7 6 7 23.93 1.87
8 -6 7 11.35 1.72
-8 6 -7 14.02 1.86
8 -5 7 19.59 2.14
-8 5 -7 18.4 2.07
8 -4 7 11.67 1.6
8 -4 7 12.91 1.52
-8 4 -7 9.43 1.43
-8 4 -7 9.31 1.62
8 -3 7 25.87 2.57
8 -3 7 30.31 2.51
-8 3 -7 34.08 2.57
-8 3 -7 34.71 2.74
8 -2 7 42.72 3.4
8 -2 7 45.6 3.67
8 -2 7 46.52 3.33
8 -2 7 48.73 3.28
-8 2 -7 52.13 3.27
-8 2 -7 53.12 3.72
-8 2 -7 50.63 3.4
8 -1 7 118.49 7.08
8 -1 7 117.29 6.48
8 -1 7 118.22 7.28
8 -1 7 119.76 6.8
-8 1 -7 98.81 6.42
-8 1 -7 93.81 7.14
-8 1 -7 100.9 6.72
8 0 7 10.65 1.28
8 0 7 9.82 1.28
8 0 7 10.8 1.43
8 0 7 10.5 1.11
-8 0 -7 10.2 1.1
-8 0 -7 10.06 1.39
-8 0 -7 8.51 1.16
8 1 7 97.9 5.88
8 1 7 95.06 6.56
8 1 7 99.41 6.28
8 1 7 94.83 6.66
8 1 7 90.41 6.24
-8 -1 -7 115.32 6.21
-8 -1 -7 116.8 6.72
8 2 7 54.28 3.66
8 2 7 48.09 3.34
8 2 7 50.85 3.36
8 2 7 50.55 3.02
8 2 7 49.92 3.56
-8 -2 -7 44.37 3.52
8 3 7 31.63 2.33
8 3 7 33.5 2.59
-8 -3 -7 27.72 2.35
8 4 7 9.3 1.27
-8 -4 -7 12.31 1.27
8 5 7 17.94 1.63
8 6 7 12.38 1.38
9 -6 7 16.53 2.17
-9 6 -7 15.11 2.08
9 -5 7 12.88 1.86
-9 5 -7 15.06 1.95
9 -4 7 30.7 2.8
-9 4 -7 31.84 2.95
-9 4 -7 28.51 2.63
9 -3 7 14.73 1.82
9 -3 7 14.25 1.89
-9 3 -7 12.99 1.65
-9 3 -7 11.99 1.72
9 -2 7 73.44 5.22
9 -2 7 81.18 4.77
-9 2 -7 76.56 4.93
-9 2 -7 72.37 5.28
-9 2 -7 70.48 4.7
9 -1 7 86.26 5.19
9 -1 7 81.46 5.8
9 -1 7 85.54 5.44
-9 1 -7 82.88 5.37
-9 1 -7 83.1 5.79
-9 1 -7 86.29 5.15
9 0 7 -0.08 0.93
9 0 7 0.37 0.83
9 0 7 1.14 0.68
-9 0 -7 1.17 0.89
-9 0 -7 -0.08 0.66
9 1 7 87.36 4.96
9 1 7 83.28 5.63
9 1 7 82.75 5.31
-9 -1 -7 78.77 5.6
9 2 7 70.92 4.89
9 2 7 73.83 4.24
9 2 7 68.97 4.6
-9 -2 -7 69.81 4.83
9 3 7 13.61 1.47
-9 -3 -7 12.89 1.54
9 4 7 25.62 2.24
-9 -4 -7 32.36 2.32
9 5 7 12.15 1.46
9 6 7 12.67 1.51
10 -5 7 12.39 1.86
-10 5 -7 12.54 1.91
10 -4 7 0.75 1.07
-10 4 -7 -0.13 1.14
-10 4 -7 -0.67 1.12
10 -3 7 15.78 2.01
-10 3 -7 11.92 1.82
-10 3 -7 12.05 1.7
10 -2 7 2.64 1.22
10 -2 7 3.61 1.03
-10 2 -7 4.02 1.24
10 -1 7 27.23 2.61
10 -1 7 28.91 2.3
10 -1 7 27.96 2.42
-10 1 -7 28.01 2.16
-10 1 -7 25.04 2.57
10 0 7 5.98 1.23
10 0 7 6.02 1.33
10 0 7 7.61 1.05
-10 0 -7 6.99 1.05
-10 0 -7 5.55 1.29
10 1 7 27.2 2.26
10 1 7 25.39 2.48
10 1 7 28.58 1.99
-10 -1 -7 24.97 2.38
10 2 7 3.9 1.01
10 2 7 4.8 0.82
-10 -2 -7 3.12 1.07
10 3 7 10.67 1.49
-10 -3 -7 16.05 1.68
-10 -3 -7 15.24 1.67
10 4 7 0.72 0.88
-10 -4 -7 0.41 0.84
10 5 7 10.46 1.36
11 -5 7 29.17 2.9
11 -4 7 12.91 1.91
-11 4 -7 10.46 1.97
11 -3 7 6.79 1.57
-11 3 -7 8.06 1.62
11 -2 7 9.94 1.7
11 -2 7 12.78 1.56
-11 2 -7 12.22 1.82
11 -1 7 8.54 1.6
11 -1 7 9.23 1.31
-11 1 -7 7.85 1.55
11 0 7 6.73 1.1
11 0 7 5.88 1.33
11 0 7 5.39 1.23
-11 0 -7 6.09 1.4
-11 0 -7 5.74 1.06
11 1 7 8.21 1.11
11 1 7 8.04 1.37
11 1 7 7.66 1.4
-11 -1 -7 8.35 1.42
11 2 7 10.5 1.48
-11 -2 -7 10.47 1.54
11 3 7 6.35 1.24
-11 -3 -7 7.59 1.3
-11 -3 -7 5.98 1.25
11 4 7 9.19 1.41
-11 -4 -7 12.58 1.62
11 5 7 27.35 2.38
12 -4 7 13.18 1.97
-12 4 -7 10.22 2.06
12 -3 7 1.07 1.2
-12 3 -7 -0.05 1.36
12 -2 7 8.59 1.65
-12 2 -7 11.26 1.8
12 -1 7 0.96 0.98
12 -1 7 1.79 1.19
-12 1 -7 1.22 1.25
12 0 7 4.83 1.31
12 0 7 5.01 1.34
12 0 7 5.62 1.12
-12 0 -7 4.69 1.36
12 1 7 2.18 1.14
12 1 7 1.52 1.09
-12 -1 -7 1.19 1.13
12 2 7 10.23 1.53
-12 -2 -7 10.1 1.6
-12 -2 -7 9.77 1.56
12 3 7 1.75 1.1
-12 -3 -7 0.95 1.07
12 4 7 9.24 1.53
-12 -4 -7 13.57 1.7
12 5 7 22.52 2.27
13 -4 7 4.27 1.52
13 -3 7 3.18 1.49
-13 3 -7 4.57 1.69
13 -2 7 0.82 1.21
-13 2 -7 1.5 1.42
13 -1 7 20.24 2.48
-13 1 -7 20.82 2.35
13 0 7 0.2 0.89
13 0 7 0.11 1.23
-13 0 -7 0.39 1.23
13 1 7 25.98 2.43
-13 -1 -7 23.23 2.48
-13 -1 -7 22.53 2.47
13 2 7 0.29 1.12
-13 -2 -7 0.62 1.13
-13 -2 -7 1.69 1.19
13 3 7 5.6 1.32
-13 -3 -7 4.01 1.3
13 4 7 4.89 1.36
-13 -4 -7 5.41 1.32
14 -3 7 2.17 1.54
-14 3 -7 4.23 1.82
14 -2 7 17.25 2.32
-14 2 -7 18.03 2.5
14 -1 7 9.08 1.85
-14 1 -7 9.01 1.88
14 0 7 3.17 1.44
-14 0 -7 3.22 1.53
-14 0 -7 1.9 1.45
14 1 7 9.73 1.68
-14 -1 -7 8.72 1.71
-14 -1 -7 9.62 1.76
14 2 7 17.28 2.14
-14 -2 -7 18.31 2.21
14 3 7 4.22 1.38
-14 -3 -7 3.83 1.42
15 -2 7 10.29 2.1
-15 2 -7 11.88 2.25
-15 2 -7 10.31 2.17
15 -1 7 20.36 2.44
-15 1 -7 13.88 2.37
-15 1 -7 16.8 2.45
-15 0 -7 0.23 1.47
-15 0 -7 0.4 1.44
-15 -1 -7 17.64 2.39
-15 -1 -7 17.29 2.37
15 2 7 9.93 1.77
-15 -2 -7 9.5 1.87
-16 -2 8 2.07 1.52
-16 -1 8 5.67 1.75
-16 0 8 40.73 3.73
16 0 -8 39.51 3.74
-16 1 8 5.64 1.74
16 -1 -8 5.75 1.76
-16 2 8 3.29 1.77
16 -2 -8 1.42 1.55
-15 -3 8 14.54 2.09
15 3 -8 12.86 1.94
-15 -2 8 1.15 1.38
-15 -1 8 -0.03 1.36
15 1 -8 3.63 1.39
-15 0 8 2.38 1.54
15 0 -8 3.3 1.38
-15 1 8 0.29 1.5
15 -1 -8 0.48 1.36
-15 2 8 1.58 1.48
15 -2 -8 1.4 1.33
15 -3 -8 12.91 2.13
-14 -4 8 1.33 1.3
14 4 -8 1.01 1.21
-14 -3 8 8.21 1.67
14 3 -8 9.55 1.64
-14 -2 8 7.59 1.67
14 2 -8 8.58 1.57
-14 -1 8 12.89 2
14 1 -8 15.93 2.11
-14 0 8 14.39 2.12
14 0 -8 16.28 2.24
-14 1 8 15.14 2.11
14 -1 -8 14.99 2.13
-14 2 8 10.4 1.95
14 -2 -8 7.22 1.64
-14 3 8 9.77 2.01
14 -3 -8 8.57 1.77
14 -4 -8 1.36 1.38
-13 -4 8 6.91 1.48
13 4 -8 11.44 1.67
-13 -3 8 4.73 1.42
13 3 -8 6.75 1.39
-13 -2 8 11.1 1.74
13 2 -8 9.97 1.61
-13 -1 8 0.22 1.21
13 1 -8 0.25 1.15
13 1 -8 1.11 0.99
13 0 -8 63.46 4.71
-13 1 8 -0.3 1.15
13 -1 -8 -0.3 1.13
-13 2 8 11.29 1.95
13 -2 -8 14.17 1.95
-13 3 8 6.37 1.75
13 -3 -8 6.05 1.56
13 -4 -8 9.83 1.76
-12 -5 8 1.88 1.21
12 5 -8 1.3 1.12
-12 -4 8 3.92 1.28
12 4 -8 1.72 1.1
-12 -3 8 21.11 2.18
12 3 -8 18.46 2.02
-12 -2 8 -0.64 1.07
12 2 -8 0.73 1.06
12 2 -8 -0.11 0.98
-12 -1 8 3.62 1.31
12 1 -8 2.31 1.17
12 1 -8 3.37 1.1
-12 0 8 10.03 1.62
12 0 -8 11.61 1.66
-12 1 8 2.01 1.29
12 -1 -8 3.87 1.28
-12 2 8 0.73 1.27
12 -2 -8 1.05 1.14
-12 3 8 18.75 2.15
-12 3 8 19.97 2.43
12 -3 -8 17.47 2.19
-12 4 8 1.91 1.28
12 -4 -8 3.15 1.28
-12 5 8 -0.35 1.31
12 -5 -8 1.73 1.21
-11 -5 8 5.34 1.28
11 5 -8 4.69 1.28
-11 -4 8 2.71 1.18
11 4 -8 1.63 1.02
-11 -3 8 13.36 1.8
11 3 -8 15.65 1.74
-11 -2 8 46.77 3.65
11 2 -8 49.19 3.44
11 2 -8 47.13 3.61
-11 -1 8 28.41 2.52
11 1 -8 26.27 2.46
11 1 -8 23.54 2.16
-11 0 8 8.1 1.53
11 0 -8 10.08 1.37
11 0 -8 9.37 1.45
11 0 -8 9.97 1.39
-11 1 8 24.33 2.46
-11 1 8 27.69 2.31
11 -1 -8 27.92 2.31
11 -1 -8 28.52 2.58
-11 2 8 47.59 3.77
-11 2 8 48.16 3.5
11 -2 -8 46.41 3.7
-11 3 8 14.73 1.88
-11 3 8 15.38 2.03
11 -3 -8 13.23 1.82
-11 4 8 1.23 1.19
11 -4 -8 1.57 1.11
-11 5 8 4.41 1.4
11 -5 -8 5.58 1.32
-10 -6 8 9.52 1.33
10 6 -8 7.49 1.42
-10 -5 8 20.57 2.04
10 5 -8 19.63 1.97
-10 -4 8 4.89 1.25
10 4 -8 7.44 1.3
10 4 -8 7.21 1.28
-10 -3 8 17.85 1.95
10 3 -8 19.85 1.94
-10 -2 8 7.79 1.33
10 2 -8 6.25 1.12
10 2 -8 8.47 1.33
-10 -1 8 100.18 6.32
10 1 -8 93.61 6.28
10 1 -8 87.3 5.68
10 1 -8 90.72 5.88
-10 0 8 82.55 5.82
-10 0 8 88.97 5.43
10 0 -8 87.11 5.43
10 0 -8 82.98 5.83
10 0 -8 84.3 5.31
-10 1 8 94.03 6.22
-10 1 8 91.26 6.64
10 -1 -8 101.75 6.09
10 -1 -8 106.75 6.27
10 -1 -8 100.78 6.64
-10 2 8 6.53 1.22
-10 2 8 6.71 1.34
10 -2 -8 9.53 1.44
10 -2 -8 9.47 1.29
-10 3 8 19.81 2.05
-10 3 8 19.92 1.96
10 -3 -8 18 1.88
10 -3 -8 17.7 1.88
10 -3 -8 15.45 1.94
-10 4 8 7.04 1.35
10 -4 -8 4.62 1.22
10 -4 -8 4.2 1.13
-10 5 8 19.77 2.14
10 -5 -8 20.04 2.15
-10 6 8 6.64 1.58
10 -6 -8 8.48 1.47
-9 -6 8 4.14 1.07
9 6 -8 6.32 1.22
-9 -5 8 1.24 0.94
9 5 -8 1.52 0.99
-9 -4 8 41.07 2.93
9 4 -8 33.56 2.79
9 4 -8 34 2.75
-9 -3 8 20.74 2.17
9 3 -8 25.85 2.07
9 3 -8 25.09 2.21
-9 -2 8 11.74 1.67
9 2 -8 15.16 1.57
9 2 -8 14.35 1.68
-9 -1 8 10.24 1.56
-9 -1 8 11.65 1.53
9 1 -8 16.22 1.73
9 1 -8 17.11 1.48
9 1 -8 16.14 1.59
-9 0 8 6.31 1.18
-9 0 8 6.37 1.04
9 0 -8 6.57 1.15
9 0 -8 6.21 1.05
9 0 -8 7.39 1.1
-9 1 8 16.14 1.79
-9 1 8 18.2 1.66
9 -1 -8 12.32 1.5
9 -1 -8 11.56 1.56
9 -1 -8 11.21 1.44
-9 2 8 15.56 1.8
-9 2 8 15.3 1.63
9 -2 -8 9.99 1.47
9 -2 -8 10.68 1.37
-9 3 8 25.9 2.19
-9 3 8 24.22 2.37
9 -3 -8 23.74 2.24
9 -3 -8 25.13 2.16
9 -3 -8 23.4 2.09
-9 4 8 32.17 2.8
9 -4 -8 38.89 2.86
9 -4 -8 39.35 2.84
9 -4 -8 36.6 2.93
-9 5 8 1.52 1.08
9 -5 -8 1.55 0.97
-9 6 8 6.23 1.43
9 -6 -8 5.35 1.27
-8 -6 8 8.91 1.25
8 6 -8 8.26 1.28
-8 -5 8 7.17 1.21
8 5 -8 7.37 1.22
-8 -4 8 0.56 0.85
8 4 -8 2.21 0.93
8 4 -8 1.87 0.86
-8 -3 8 7.3 1.23
8 3 -8 8.65 1.24
8 3 -8 8.01 1.17
8 3 -8 8.92 1.29
-8 -2 8 87.41 5.3
-8 -2 8 83.46 5.7
8 2 -8 86.55 5.38
8 2 -8 83.1 5.67
-8 -1 8 33.51 2.34
-8 -1 8 33.13 2.51
8 1 -8 29.69 2.32
8 1 -8 28.91 2.34
8 1 -8 29.34 2.49
-8 0 8 2.13 0.75
-8 0 8 1.65 0.87
8 0 -8 2 0.78
8 0 -8 2.81 0.9
8 0 -8 1.56 0.74
-8 1 8 28.81 2.56
-8 1 8 32.09 2.44
-8 1 8 31.89 2.51
8 -1 -8 35.13 2.38
8 -1 -8 34.45 2.43
8 -1 -8 31.99 2.61
-8 2 8 86.84 5.73
-8 2 8 83.06 5.35
8 -2 -8 82.79 5.67
8 -2 -8 87.63 5.29
8 -2 -8 83.56 5.53
8 -2 -8 82.65 5.19
-8 3 8 8.25 1.34
-8 3 8 8.05 1.21
-8 3 8 7.4 1.11
8 -3 -8 7.07 1.14
8 -3 -8 6.18 1.11
8 -3 -8 5.92 1.09
-8 4 8 1.83 1.01
8 -4 -8 1.55 0.89
8 -4 -8 0.07 0.86
8 -4 -8 0.79 0.82
-8 5 8 8.36 1.31
8 -5 -8 6.98 1.27
-8 6 8 7.69 1.44
8 -6 -8 8.79 1.38
7 7 -8 4.02 1.15
-7 -6 8 17.94 1.74
7 6 -8 17.32 1.81
-7 -5 8 22.49 1.9
7 5 -8 15.88 1.74
-7 -4 8 19.86 1.88
7 4 -8 19.24 1.78
7 4 -8 17.89 1.74
-7 -3 8 5.24 1.06
7 3 -8 5.86 1.06
7 3 -8 5.83 1.02
7 3 -8 5.98 0.99
-7 -2 8 70.35 5.01
-7 -2 8 77.71 4.71
7 2 -8 74 4.73
7 2 -8 73.33 5.04
7 2 -8 76.9 4.91
7 2 -8 75.75 4.75
-7 -1 8 31.65 2.18
-7 -1 8 31.66 2.39
7 1 -8 28.69 2.17
7 1 -8 26.5 2.2
7 1 -8 25.81 2.29
7 1 -8 26.73 2.19
-7 0 8 17.29 1.79
-7 0 8 16.4 1.52
7 0 -8 17.81 1.58
7 0 -8 16.77 1.59
7 0 -8 17.17 1.44
7 0 -8 16.58 1.7
-7 1 8 25.56 2.32
-7 1 8 26.82 2.2
-7 1 8 26.88 2.27
7 -1 -8 32.14 2.21
7 -1 -8 31.09 2.15
7 -1 -8 31.91 2.41
7 -1 -8 31.01 2.28
-7 2 8 72.69 4.73
-7 2 8 81.97 4.85
-7 2 8 75.37 5.1
7 -2 -8 73.1 4.93
7 -2 -8 74.68 4.62
7 -2 -8 72.78 5.05
7 -2 -8 75.02 4.69
-7 3 8 5.78 1.14
-7 3 8 6.17 1.02
-7 3 8 5.17 1.01
7 -3 -8 5.24 0.97
7 -3 -8 4.48 0.94
7 -3 -8 4.47 1.01
-7 4 8 19.98 1.82
-7 4 8 17.28 1.78
7 -4 -8 19 1.89
7 -4 -8 20.21 1.83
7 -4 -8 20.41 1.79
-7 5 8 16.06 1.81
7 -5 -8 22.29 1.94
7 -5 -8 21.75 1.95
-7 6 8 17.06 1.91
7 -6 -8 18.81 1.83
-7 7 8 4.36 1.25
7 -7 -8 3.87 0.95
6 7 -8 10.03 1.4
-6 -6 8 4.05 0.95
6 6 -8 7 1.15
-6 -5 8 2.14 0.89
6 5 -8 2.34 0.88
-6 -4 8 105.56 6.91
6 4 -8 108.26 6.75
6 4 -8 105.07 6.53
-6 -3 8 27.02 2.17
6 3 -8 24.17 2
6 3 -8 25.62 2.07
6 3 -8 27.12 2.05
6 3 -8 25.64 2.16
-6 -2 8 25.31 2.33
6 2 -8 31.35 2.21
6 2 -8 32.89 2.25
6 2 -8 30.76 2.28
6 2 -8 30.08 2.34
-6 -1 8 30.09 2.35
-6 -1 8 30.65 2.48
-6 -1 8 31.16 2.33
6 1 -8 34.81 2.38
6 1 -8 36.16 2.41
6 1 -8 33.18 2.53
6 1 -8 34.06 2.46
-6 0 8 0.72 0.68
-6 0 8 0.79 0.76
6 0 -8 1.64 0.67
6 0 -8 0.77 0.65
6 0 -8 0.66 0.63
6 0 -8 0.88 0.67
-6 1 8 32.25 2.29
-6 1 8 34.75 2.36
-6 1 8 35.08 2.47
6 -1 -8 30.46 2.23
6 -1 -8 29.06 2.32
6 -1 -8 28.55 2.42
6 -1 -8 30.04 2.17
-6 2 8 28.69 2.07
-6 2 8 31.89 2.2
-6 2 8 30.08 2.28
6 -2 -8 25.55 2.23
6 -2 -8 26.58 2.15
6 -2 -8 26.5 2.01
6 -2 -8 26.82 2.06
-6 3 8 25.42 2.03
-6 3 8 23.88 1.97
-6 3 8 26.52 2.21
-6 3 8 25.48 2.08
6 -3 -8 26.88 2.08
6 -3 -8 27.32 1.98
6 -3 -8 26.88 2.16
-6 4 8 108.57 6.2
-6 4 8 100.72 6.33
6 -4 -8 99.98 6.52
6 -4 -8 105.21 6.19
6 -4 -8 99.99 6.67
-6 5 8 2.91 0.97
6 -5 -8 2.73 0.94
6 -5 -8 2.87 1.02
-6 6 8 6.03 1.2
6 -6 -8 4.41 0.98
-6 7 8 9.99 1.44
5 7 -8 6.94 1.25
-5 -6 8 8.97 1.14
5 6 -8 6.98 1.18
-5 -5 8 21.04 1.99
5 5 -8 26.84 2
-5 -4 8 5.57 1.01
5 4 -8 4.83 0.94
5 4 -8 5.06 0.89
5 4 -8 5.23 0.93
5 4 -8 4.17 0.89
5 3 -8 4.27 0.85
5 3 -8 3.41 0.8
5 3 -8 3.56 0.84
5 3 -8 3.14 0.78
-5 -2 8 26.87 2.27
-5 -2 8 28.59 2.1
5 2 -8 28.74 2.23
5 2 -8 30.32 2.15
5 2 -8 27.58 2.11
5 2 -8 30.67 2.19
-5 -1 8 48.01 3.26
-5 -1 8 45.03 3.05
-5 -1 8 45.11 3.06
5 1 -8 45.91 3.16
5 1 -8 45.56 3.08
5 1 -8 48.58 3.07
5 1 -8 46.27 3.26
-5 0 8 71 4.53
-5 0 8 73.25 4.55
-5 0 8 71.67 4.83
5 0 -8 70.86 4.68
5 0 -8 73.4 4.52
5 0 -8 71.47 4.81
5 0 -8 75.81 4.55
-5 1 8 48.08 3.08
-5 1 8 43.02 2.98
-5 1 8 45.47 3.23
5 -1 -8 44.69 2.99
5 -1 -8 46.53 2.9
5 -1 -8 47.53 3.16
5 -1 -8 45.29 3.2
-5 2 8 30.48 2.34
-5 2 8 31.58 2.16
-5 2 8 30.97 2.2
5 -2 -8 28.38 2.27
5 -2 -8 29.21 2.08
5 -2 -8 27.11 2.05
5 -2 -8 28.24 2.2
-5 3 8 3.91 0.78
-5 3 8 3.73 0.85
-5 3 8 3.37 0.83
-5 3 8 3.38 0.93
5 -3 -8 7 0.94
5 -3 -8 7.29 0.99
-5 4 8 5.07 0.92
-5 4 8 5.34 1.08
-5 4 8 4.56 0.94
-5 4 8 5.51 0.99
5 -4 -8 6.98 1.02
5 -4 -8 5.09 0.92
5 -4 -8 6.71 0.99
-5 5 8 31.95 2.18
-5 5 8 27.16 2.05
5 -5 -8 21.35 2.03
5 -5 -8 22.69 2.08
-5 6 8 7.65 1.18
5 -6 -8 7.9 1.04
-5 7 8 9.04 1.35
4 7 -8 -0.29 0.85
-4 -6 8 14.7 1.55
4 6 -8 13.85 1.58
-4 -5 8 76.04 5.01
4 5 -8 70.24 4.74
4 5 -8 79.4 4.86
-4 -4 8 42.33 2.84
4 4 -8 38.74 2.67
4 4 -8 38.4 2.71
4 4 -8 35.92 2.81
4 4 -8 36.79 2.72
4 4 -8 34.32 2.59
-4 -3 8 3.63 0.84
-4 -3 8 2.96 0.82
4 3 -8 1.74 0.68
4 3 -8 2.09 0.7
4 3 -8 1.66 0.73
4 3 -8 1.84 0.69
-4 -2 8 84.29 5.78
-4 -2 8 85.97 5.39
4 2 -8 89.67 5.79
4 2 -8 93.66 5.48
4 2 -8 91.6 5.64
4 2 -8 87.3 5.42
-4 -1 8 143.02 8.74
-4 -1 8 141.5 8.2
4 1 -8 134.66 8.51
4 1 -8 137.42 8.21
4 1 -8 136.72 8.73
4 1 -8 132.93 8.19
-4 0 8 -0.02 0.57
-4 0 8 0.65 0.63
-4 0 8 0.47 0.7
4 0 -8 0.42 0.64
4 0 -8 0.44 0.56
4 0 -8 0.19 0.58
4 0 -8 0.65 0.56
-4 1 8 141.81 8.38
-4 1 8 127.96 8.33
-4 1 8 135.56 8.88
4 -1 -8 141.91 8.67
4 -1 -8 145.18 8.06
4 -1 -8 143.57 8.33
4 -1 -8 147.06 8.89
-4 2 8 90.07 5.39
-4 2 8 94.19 5.43
-4 2 8 91.54 5.76
4 -2 -8 88.45 5.34
4 -2 -8 92.49 5.75
4 -2 -8 81.92 5.71
4 -2 -8 87.99 5.19
4 -2 -8 79.75 5.56
-4 3 8 2.54 0.66
-4 3 8 2.04 0.82
-4 3 8 1.86 0.72
-4 3 8 1.45 0.68
4 -3 -8 3.46 0.66
4 -3 -8 3.37 0.75
4 -3 -8 3.46 0.77
4 -3 -8 2.79 0.74
-4 4 8 36.96 2.69
-4 4 8 34.29 2.62
-4 4 8 37.02 2.83
-4 4 8 37.03 2.58
4 -4 -8 41.7 2.82
4 -4 -8 42.31 2.78
4 -4 -8 41.9 2.6
-4 5 8 80.57 4.71
-4 5 8 73.34 4.76
4 -5 -8 76.32 4.92
4 -5 -8 75.95 4.97
4 -5 -8 74.4 4.67
-4 6 8 13.1 1.47
4 -6 -8 14.07 1.26
-4 7 8 -0.24 0.87
3 7 -8 1.54 0.99
-3 -6 8 2.82 0.87
3 6 -8 5.38 1
-3 -5 8 46.08 3.32
3 5 -8 45.03 3.15
3 5 -8 48.21 3.15
-3 -4 8 55.68 3.42
3 4 -8 45.91 3.36
3 4 -8 46.63 3.2
3 4 -8 43.37 3.12
3 4 -8 47.15 3.22
-3 -3 8 24.49 2.15
-3 -3 8 26.95 2.23
3 3 -8 26.81 2.03
3 3 -8 26.57 2.15
3 3 -8 30.35 2.07
3 3 -8 30.18 2.09
3 3 -8 27.66 2.02
-3 -2 8 88.92 5.4
3 2 -8 85.83 5.07
3 2 -8 79.26 5.03
3 2 -8 78.03 5.35
3 2 -8 78.41 5.18
-3 -1 8 90.37 5.62
-3 -1 8 90.89 5.26
3 1 -8 83 5.59
3 1 -8 88.97 5.28
3 1 -8 83 5.24
3 1 -8 79.78 5.42
-3 0 8 3.06 0.76
-3 0 8 3.68 0.73
-3 0 8 3.72 0.69
-3 0 8 3.23 0.7
3 0 -8 3.36 0.72
3 0 -8 3.73 0.66
3 0 -8 2.84 0.7
3 0 -8 3.18 0.64
-3 1 8 80.98 5.62
-3 1 8 83.89 5.28
-3 1 8 87.35 5.32
3 -1 -8 88.57 5.27
3 -1 -8 90.61 5.65
3 -1 -8 89.03 5.51
3 -1 -8 88.18 5.06
-3 2 8 80.6 5.61
-3 2 8 78.67 5.26
-3 2 8 84.97 5.3
3 -2 -8 87.85 5.05
3 -2 -8 87.03 5.61
3 -2 -8 94.33 5.64
3 -2 -8 87.96 5.5
3 -2 -8 92.82 5.24
-3 3 8 29.43 2.16
-3 3 8 28.93 1.98
-3 3 8 29.08 1.85
-3 3 8 26.71 1.95
3 -3 -8 26.72 2.09
3 -3 -8 23.86 1.78
3 -3 -8 24.89 2.02
3 -3 -8 25.3 2.03
-3 4 8 42.93 3.26
-3 4 8 46.38 3.52
-3 4 8 45.8 3.18
-3 4 8 49.39 3.36
3 -4 -8 53.9 3.21
3 -4 -8 54.77 3.47
3 -4 -8 57.9 3.51
3 -4 -8 57.84 3.53
3 -4 -8 53.32 3.48
-3 5 8 47.3 3.12
-3 5 8 42.94 3.04
-3 5 8 49.45 3.08
3 -5 -8 45.97 3.12
3 -5 -8 46.07 3.15
-3 6 8 6.6 1.01
-3 7 8 0.62 0.84
-2 -7 8 10.39 1.2
2 7 -8 6.79 1.22
-2 -6 8 0.6 0.76
2 6 -8 -0.35 0.85
-2 -5 8 55.38 4.01
2 5 -8 60.26 3.81
2 5 -8 59.4 3.82
-2 -4 8 23.64 2.08
2 4 -8 26.28 1.93
2 4 -8 24.71 2.07
2 4 -8 25.77 2.01
2 4 -8 25.44 1.91
-2 -3 8 8.26 1.02
-2 -3 8 6.63 1.03
-2 -3 8 5.91 1.03
2 3 -8 10.26 1.08
2 3 -8 9.76 1.09
2 3 -8 8.64 1.09
2 3 -8 9.04 1.11
-2 -2 8 2.01 0.66
-2 -2 8 2.02 0.64
-2 -2 8 1.94 0.75
2 2 -8 3.13 0.67
2 2 -8 2.89 0.67
2 2 -8 2.6 0.68
2 2 -8 2.13 0.67
2 2 -8 2.85 0.65
-2 -1 8 69.45 4.5
-2 -1 8 72.81 4.52
-2 -1 8 72.04 4.8
-2 -1 8 75.73 4.71
2 1 -8 71.32 4.67
2 1 -8 77.33 4.53
2 1 -8 73 4.52
2 1 -8 73.1 4.81
-2 0 8 50.47 3.25
-2 0 8 49.61 3.47
-2 0 8 55.72 3.3
2 0 -8 52.84 3.26
2 0 -8 47.49 3.36
2 0 -8 50.09 3.45
2 0 -8 49.4 3.22
-2 1 8 72.53 4.44
-2 1 8 71 4.42
-2 1 8 75.33 4.75
-2 1 8 71.39 4.64
2 -1 -8 70.75 4.18
2 -1 -8 70 4.71
2 -1 -8 74.38 4.72
2 -1 -8 71.64 4.61
2 -1 -8 70.74 4.41
-2 2 8 2.5 0.65
-2 2 8 2.88 0.65
-2 2 8 2.56 0.72
-2 2 8 2.88 0.72
2 -2 -8 2.28 0.63
2 -2 -8 2.37 0.65
2 -2 -8 2.53 0.5
2 -2 -8 1.92 0.64
2 -2 -8 2.11 0.54
-2 3 8 9.41 1.1
-2 3 8 10.14 1.08
-2 3 8 8.98 1
-2 3 8 8.66 1.12
-2 3 8 10.09 0.89
2 -3 -8 8.17 1.03
2 -3 -8 6.61 0.94
2 -3 -8 6.41 0.91
-2 4 8 25.41 1.86
-2 4 8 26.52 1.76
-2 4 8 24.6 1.8
-2 4 8 24.5 1.95
2 -4 -8 25.7 1.89
2 -4 -8 24.58 1.87
2 -4 -8 22.89 1.7
2 -4 -8 24.13 1.92
-2 5 8 61.28 3.75
-2 5 8 64.17 3.67
-2 5 8 55.39 3.69
2 -5 -8 57.27 3.85
2 -5 -8 55.43 3.77
-2 6 8 -0.04 0.68
-2 7 8 5.69 0.99
-1 -7 8 1.01 0.76
1 7 -8 0.39 0.9
-1 -6 8 2.66 0.91
1 6 -8 3.87 0.98
-1 -5 8 21.96 1.96
1 5 -8 23.18 1.74
1 5 -8 21.53 1.89
1 4 -8 24.43 1.93
1 4 -8 26.06 2.15
1 4 -8 24.34 1.9
1 4 -8 26.2 2.06
-1 -3 8 1.23 0.59
-1 -3 8 0.89 0.7
-1 -3 8 1.26 0.7
-1 -3 8 0.95 0.56
1 3 -8 0.8 0.6
1 3 -8 0.42 0.53
1 3 -8 0.75 0.67
1 3 -8 0.93 0.67
-1 -2 8 130.11 6.98
-1 -2 8 122.82 7.45
-1 -2 8 128.6 7.24
1 2 -8 108.06 7.18
1 2 -8 111.64 6.99
1 2 -8 108.47 6.97
1 2 -8 105.37 7.39
-1 -1 8 127.59 7.25
-1 -1 8 121.97 7.49
-1 -1 8 129.09 7.71
1 1 -8 116.06 7.67
1 1 -8 116.7 7.21
1 1 -8 118.97 7.22
1 1 -8 122.86 7.24
1 1 -8 114.67 7.47
-1 0 8 1.47 0.57
-1 0 8 1.65 0.66
-1 0 8 0.7 0.59
1 0 -8 1.34 0.63
1 0 -8 1.59 0.53
1 0 -8 1.32 0.6
1 0 -8 1.83 0.59
-1 1 8 113.64 7.2
-1 1 8 117.22 7.22
-1 1 8 111.37 7.65
-1 1 8 115.02 7.51
-1 1 8 115.26 7.22
1 -1 -8 125.86 7.67
1 -1 -8 128.06 7.53
1 -1 -8 139.76 7.73
1 -1 -8 126.12 7.19
-1 2 8 111.24 7.32
-1 2 8 110.14 7.02
-1 2 8 109.18 7.46
-1 2 8 106.72 7.01
1 -2 -8 122.91 7.46
1 -2 -8 125.17 6.95
1 -2 -8 122.83 6.67
1 -2 -8 131.51 7.49
1 -2 -8 122.28 7.34
-1 3 8 0.14 0.55
-1 3 8 0.15 0.59
-1 3 8 0.77 0.41
-1 3 8 -0.06 0.54
-1 3 8 -0.36 0.58
1 -3 -8 1.27 0.56
1 -3 -8 0.56 0.57
1 -3 -8 0.94 0.38
1 -3 -8 0.73 0.52
-1 4 8 25.22 2.01
-1 4 8 24.64 1.73
-1 4 8 24.58 1.89
-1 4 8 23.89 2
-1 4 8 24.09 1.82
1 -4 -8 32 1.93
-1 5 8 22.47 1.72
-1 5 8 23.02 1.79
-1 5 8 23.55 1.75
1 -5 -8 22.63 1.85
1 -5 -8 23.65 1.62
-1 6 8 3.84 0.8
-1 6 8 4.46 0.88
-1 7 8 1.05 0.76
0 -7 8 1.03 0.85
0 7 -8 2.11 1.02
0 -6 8 5.95 1.09
0 6 -8 7.2 1.15
0 -5 8 65.16 4.19
0 5 -8 56.45 3.94
0 5 -8 59.63 3.89
0 -4 8 79.02 4.48
0 -4 8 75.57 4.72
0 4 -8 62.89 4.65
0 4 -8 63.93 4.41
0 4 -8 65.69 4.38
0 -3 8 40.58 2.73
0 -3 8 40.25 2.84
0 -3 8 39.71 2.99
0 -3 8 44.48 3.04
0 3 -8 43.15 2.83
0 3 -8 42.56 2.82
0 3 -8 41.36 2.84
0 3 -8 41.52 3.01
0 -2 8 129.86 9.17
0 -2 8 131.49 8.92
0 -2 8 137.69 8.62
0 2 -8 157.85 8.7
0 2 -8 154.74 8.96
0 2 -8 156.07 8.69
0 2 -8 153.18 9.23
0 -1 8 54.25 3.34
0 -1 8 51.63 3.24
0 -1 8 53.55 3.14
0 -1 8 55.44 3.14
0 1 -8 44.07 3.06
0 1 -8 40.47 3.15
0 1 -8 40.59 3.27
0 1 -8 45.66 3.11
0 0 8 1.99 0.65
0 0 8 2.76 0.66
0 0 8 2.02 0.68
0 0 -8 2.7 0.72
0 0 -8 2.53 0.61
0 0 -8 1.62 0.58
0 0 -8 2.01 0.62
0 1 8 41.33 3.02
0 1 8 41.8 3.03
0 1 8 41.5 3.21
0 1 8 40.47 3.17
0 -1 -8 52.87 3.25
0 -1 -8 55.14 3.04
0 -1 -8 52.37 3.21
0 -1 -8 56.01 3.3
0 2 8 153.96 8.49
0 2 8 157.44 8.51
0 2 8 155.97 9.03
0 2 8 149.78 8.86
0 -2 -8 131.52 8.97
0 -2 -8 128.23 8.01
0 -2 -8 142.04 8.99
0 -2 -8 131.85 8.81
0 3 8 40.38 2.54
0 3 8 40.97 2.74
0 3 8 41.2 2.76
0 3 8 39.13 2.56
0 -3 -8 39.35 2.69
0 -3 -8 38.43 2.7
0 -3 -8 34.42 2.65
0 4 8 67.44 4.01
0 4 8 62.56 4.23
0 4 8 65.69 4.5
0 4 8 64.58 4.45
0 4 8 61.31 4.2
0 -4 -8 80.98 4.46
0 -4 -8 74.92 4.44
0 -4 -8 75.54 4.51
0 5 8 53.55 3.63
0 5 8 59.05 3.89
0 5 8 57.75 3.68
0 -5 -8 66.1 3.92
0 6 8 6.98 0.89
0 6 8 6.85 0.93
0 7 8 1.48 0.72
1 -7 8 19.44 1.84
-1 7 -8 17.94 1.91
1 -6 8 4.79 1.05
-1 6 -8 4.7 1.08
1 -5 8 41.92 3.32
-1 5 -8 50.8 3.22
1 -4 8 14.69 1.59
1 -4 8 14.19 1.34
-1 4 -8 13.51 1.39
-1 4 -8 12.48 1.5
-1 4 -8 12.24 1.3
1 -3 8 9.35 1.19
-1 3 -8 4.45 0.85
-1 3 -8 5.08 0.88
-1 3 -8 5.24 0.84
-1 3 -8 5.88 0.99
1 -2 8 11.16 1.34
1 -2 8 9.09 1.15
1 -2 8 11.49 1.17
-1 2 -8 12.97 1.19
-1 2 -8 12.51 1.22
-1 2 -8 12.13 1.26
-1 2 -8 11.37 1.26
1 -1 8 48.88 3.54
1 -1 8 50.16 3.28
1 -1 8 48.13 3.39
1 -1 8 51.72 3.29
-1 1 -8 50.8 3.28
-1 1 -8 54.48 3.32
-1 1 -8 51.75 3.55
-1 1 -8 54.94 3.44
1 0 8 6.46 0.85
1 0 8 4.99 0.85
1 0 8 4.93 0.75
-1 0 -8 5.31 0.77
-1 0 -8 5.12 0.79
-1 0 -8 5.42 0.77
-1 0 -8 5.62 0.89
-1 0 -8 4.9 0.74
1 1 8 51.13 3.18
1 1 8 51.37 3.21
1 1 8 52.8 3.43
1 1 8 49.01 3.34
-1 -1 -8 50.25 3.39
-1 -1 -8 48.1 3.12
-1 -1 -8 49.4 3.41
-1 -1 -8 47.84 3.32
1 2 8 12.15 1.07
1 2 8 12.67 1.25
1 2 8 11.24 1.2
1 2 8 13.7 1.19
-1 -2 -8 10 1.12
-1 -2 -8 11.02 1.21
-1 -2 -8 9.93 1.17
1 3 8 4.07 0.75
1 3 8 5.61 0.77
1 3 8 4.17 0.68
1 3 8 4.43 0.81
1 4 8 13.24 1.36
1 4 8 13.22 0.97
1 4 8 11.48 1.16
1 4 8 13.57 1.25
-1 -4 -8 14.15 1.17
-1 -4 -8 12.71 1.34
-1 -4 -8 13.68 1.15
1 5 8 51.26 3.16
1 5 8 53.49 3.44
1 5 8 52.14 3.19
-1 -5 -8 43.84 3.4
1 6 8 3.86 0.71
1 6 8 3.61 0.76
1 7 8 16.6 1.41
2 -7 8 0 0.9
-2 7 -8 0.07 1.02
2 -6 8 8.95 1.3
-2 6 -8 6.93 1.26
2 -5 8 5.64 1.09
-2 5 -8 6.42 1.13
2 -4 8 112.63 7
2 -4 8 110.75 7.29
-2 4 -8 113.75 6.92
-2 4 -8 116.22 7.35
-2 4 -8 112.47 6.99
-2 4 -8 109.21 6.88
2 -3 8 25.45 2.17
2 -3 8 25.91 1.98
2 -3 8 27.03 2.05
-2 3 -8 28.26 2.19
-2 3 -8 28.03 2.1
-2 3 -8 27.79 2.07
-2 3 -8 27.57 2.06
-2 3 -8 27.79 2.07
2 -2 8 91.94 5.81
2 -2 8 89.61 6.19
2 -2 8 96.33 6.03
-2 2 -8 100.46 5.66
-2 2 -8 98.48 6.03
-2 2 -8 96.8 5.85
-2 2 -8 95.5 6.22
2 -1 8 51.91 3.55
2 -1 8 52.24 3.41
2 -1 8 52.82 3.32
2 -1 8 51.36 3.3
-2 1 -8 50 3.53
-2 1 -8 50.58 3.31
-2 1 -8 48.82 3.4
-2 1 -8 49.65 3.26
-2 1 -8 49.66 3.09
2 0 8 271.43 15.41
2 0 8 267.19 16.36
2 0 8 268.36 15.42
-2 0 -8 254.09 14.75
-2 0 -8 268.43 15.39
-2 0 -8 257.77 16.34
-2 0 -8 261.74 15.98
2 1 8 49.73 3.15
2 1 8 46.74 3.13
2 1 8 48.07 3.33
2 1 8 50.13 3.33
-2 -1 -8 49.06 3.07
-2 -1 -8 47.72 3.34
-2 -1 -8 48.31 2.78
-2 -1 -8 49.86 3.31
-2 -1 -8 50.4 3.33
2 2 8 90.94 5.79
2 2 8 92.69 5.51
2 2 8 92.59 5.87
2 2 8 91.28 5.51
-2 -2 -8 87.1 5.77
-2 -2 -8 88.36 5.83
-2 -2 -8 96.06 5.87
2 3 8 27.18 2.01
2 3 8 25.61 1.87
2 3 8 26.64 1.85
2 3 8 28.65 2.11
-2 -3 -8 26.82 1.97
-2 -3 -8 23.71 2.01
-2 -3 -8 26.16 1.96
2 4 8 106.39 6.47
2 4 8 107.17 6.47
2 4 8 107.06 6.48
2 4 8 107.85 6.84
-2 -4 -8 109.74 6.77
-2 -4 -8 113.56 6.78
-2 -4 -8 108.95 6.85
2 5 8 4.94 0.75
2 5 8 6.29 0.99
2 5 8 6.21 0.8
-2 -5 -8 5.52 0.98
2 6 8 6.15 0.85
2 6 8 6.04 0.78
2 7 8 0.27 0.62
3 -7 8 1.89 1
-3 7 -8 0.61 1.08
3 -6 8 10.57 1.47
-3 6 -8 9.74 1.44
3 -5 8 5.08 1.1
-3 5 -8 7.87 1.22
3 -4 8 3.25 0.96
3 -4 8 3.99 0.8
-3 4 -8 2.64 0.9
-3 4 -8 1.83 0.92
-3 4 -8 2.24 0.72
3 -3 8 35.87 2.63
3 -3 8 38.1 2.73
3 -3 8 34.19 2.84
-3 3 -8 40.35 2.96
-3 3 -8 40.65 2.76
-3 3 -8 41.16 2.73
-3 3 -8 40.37 2.74
-3 3 -8 39.64 2.67
3 -2 8 36.2 2.81
3 -2 8 34.82 2.63
3 -2 8 34.8 2.54
-3 2 -8 39.26 2.65
-3 2 -8 38.16 2.5
-3 2 -8 38.26 2.77
-3 2 -8 38.07 2.59
3 -1 8 100.31 6.59
3 -1 8 106.04 6.22
3 -1 8 99.86 6.42
3 -1 8 99.55 6.17
-3 1 -8 98.63 6.18
-3 1 -8 101.24 6.41
-3 1 -8 100.62 6.18
-3 1 -8 102.14 6.6
-3 1 -8 107.83 5.93
3 0 8 1.24 0.72
3 0 8 1.3 0.63
3 0 8 1.12 0.63
-3 0 -8 1.69 0.66
-3 0 -8 0.75 0.56
-3 0 -8 1.62 0.44
-3 0 -8 0.72 0.64
3 1 8 98.99 6.39
3 1 8 98.17 6.28
3 1 8 99.67 5.99
3 1 8 100.71 6.02
-3 -1 -8 96.81 5.56
-3 -1 -8 99.13 6.28
-3 -1 -8 99.56 6.38
-3 -1 -8 99.27 6.37
-3 -1 -8 100.91 5.95
3 2 8 36.35 2.43
3 2 8 35.63 2.58
3 2 8 39.7 2.46
3 2 8 36.63 2.58
-3 -2 -8 33.5 2.55
-3 -2 -8 36.55 2.59
-3 -2 -8 32.68 2.53
3 3 8 40.9 2.52
3 3 8 38.13 2.65
3 3 8 40.03 2.73
3 3 8 37.3 2.46
-3 -3 -8 34.58 2.59
-3 -3 -8 35.35 2.59
-3 -3 -8 36.84 2.69
3 4 8 2.13 0.64
3 4 8 1.95 0.67
3 4 8 1.94 0.8
-3 -4 -8 2.89 0.83
-3 -4 -8 3.74 0.6
-3 -4 -8 3.81 0.59
3 5 8 5.77 0.79
3 5 8 5.21 0.78
3 5 8 5.11 0.96
3 6 8 9.64 1.06
3 6 8 9.24 1.1
3 7 8 0.42 0.63
4 -7 8 5.53 1.26
-4 7 -8 4.06 1.27
4 -6 8 9.14 1.4
-4 6 -8 9.48 1.46
4 -5 8 14.88 1.8
-4 5 -8 19.88 1.81
4 -4 8 50.23 3.59
4 -4 8 46.06 3.79
-4 4 -8 58.75 3.64
-4 4 -8 58.54 3.92
4 -3 8 10.11 1.23
4 -3 8 8.49 1.24
4 -3 8 9.89 1.13
-4 3 -8 7.41 1.1
-4 3 -8 4.67 1.06
-4 3 -8 6.54 1.05
-4 3 -8 5.54 0.97
-4 3 -8 6.86 1.06
4 -2 8 17.01 1.6
4 -2 8 15.78 1.7
4 -2 8 16.83 1.61
-4 2 -8 19.57 1.65
-4 2 -8 20.43 1.56
-4 2 -8 19.14 1.59
-4 2 -8 19.25 1.68
-4 2 -8 18.79 1.72
4 -1 8 36.09 2.54
4 -1 8 38.04 2.36
4 -1 8 36.83 2.33
4 -1 8 37.44 2.47
-4 1 -8 28.9 2.5
-4 1 -8 27.32 2.25
-4 1 -8 29.65 2.39
-4 1 -8 27.89 2.14
4 0 8 61.96 4.1
4 0 8 59.28 3.81
4 0 8 58.46 3.8
-4 0 -8 58.66 4.05
-4 0 -8 61.75 3.54
-4 0 -8 59.55 3.98
-4 0 -8 59.29 3.78
4 1 8 27.2 2.5
4 1 8 26.9 2.44
4 1 8 27.31 2.32
-4 -1 -8 37.59 2.03
-4 -1 -8 37.67 2.56
-4 -1 -8 39.91 2.34
-4 -1 -8 40.37 2.6
-4 -1 -8 36.26 2.54
4 2 8 19.56 1.52
4 2 8 18.83 1.58
4 2 8 18.91 1.59
4 2 8 18.86 1.49
-4 -2 -8 15.19 1.57
-4 -2 -8 14.53 1.49
-4 -2 -8 15.08 1.5
4 3 8 6.1 0.86
4 3 8 5.94 0.94
4 3 8 5.86 0.87
4 3 8 6.04 1.03
-4 -3 -8 9.03 1.06
-4 -3 -8 8.98 1.17
-4 -3 -8 8.37 1.05
4 4 8 53.97 3.35
4 4 8 59.86 3.38
4 4 8 56.44 3.64
-4 -4 -8 48.63 3.42
-4 -4 -8 45.83 3.4
4 5 8 18.8 1.58
4 5 8 19.81 1.55
4 6 8 7.99 0.98
4 6 8 9.24 1.05
4 7 8 3.59 0.76
5 -7 8 1.84 1.08
-5 7 -8 1.98 1.27
5 -6 8 4.69 1.25
-5 6 -8 5.58 1.34
5 -5 8 6.62 1.3
-5 5 -8 6.86 1.29
5 -4 8 53.07 3.35
5 -4 8 50.42 3.55
-5 4 -8 41.86 3.53
-5 4 -8 42.25 3.3
5 -3 8 19.05 1.93
5 -3 8 21.13 1.77
5 -3 8 20.19 1.7
-5 3 -8 18.07 1.81
-5 3 -8 17.97 1.92
-5 3 -8 16.39 1.73
-5 3 -8 15.81 1.62
5 -2 8 24.56 1.89
5 -2 8 22.91 1.92
5 -2 8 22.2 2.09
-5 2 -8 21.92 1.93
-5 2 -8 22.99 2.11
-5 2 -8 21.07 1.89
-5 2 -8 22.22 1.76
-5 2 -8 22.8 1.9
5 -1 8 38.73 2.9
5 -1 8 40.78 2.92
5 -1 8 41.46 3.08
5 -1 8 40.31 3.15
-5 1 -8 47.83 2.8
-5 1 -8 47.42 2.95
-5 1 -8 44.2 3.18
-5 1 -8 47.45 3.13
5 0 8 54.13 3.73
5 0 8 54.44 3.52
5 0 8 52.06 3.46
-5 0 -8 52.61 3.66
-5 0 -8 52.8 3.74
-5 0 -8 52.71 3.2
-5 0 -8 53.91 3.45
5 1 8 48.96 2.91
5 1 8 46.27 2.9
5 1 8 42.43 3.02
5 1 8 47.14 3.12
-5 -1 -8 39.27 3
-5 -1 -8 38.06 3.01
-5 -1 -8 39.53 2.78
-5 -1 -8 39.47 2.5
5 2 8 20.43 1.7
5 2 8 19.31 1.72
5 2 8 21.17 1.84
5 2 8 22.14 1.85
-5 -2 -8 22.77 1.9
-5 -2 -8 22.09 1.81
-5 -2 -8 22.31 1.83
5 3 8 15.48 1.61
5 3 8 14.23 1.4
5 3 8 14.8 1.43
5 3 8 14.53 1.54
-5 -3 -8 19.16 1.54
-5 -3 -8 18.65 1.49
5 4 8 40.7 3.11
5 4 8 41.98 2.86
5 4 8 39.77 2.84
-5 -4 -8 48.62 2.92
5 5 8 7.18 0.98
5 5 8 6.58 0.91
5 6 8 5.14 0.85
5 7 8 1.94 0.73
6 -6 8 9.48 1.58
-6 6 -8 9.35 1.61
6 -5 8 33.68 2.89
-6 5 -8 33.81 2.74
6 -4 8 17.96 2.03
6 -4 8 20.15 1.88
-6 4 -8 20.92 1.96
-6 4 -8 19.38 2.15
6 -3 8 70.16 4.85
6 -3 8 66.73 5.05
-6 3 -8 78.13 4.67
-6 3 -8 74.96 4.78
-6 3 -8 77.17 5.14
6 -2 8 25.03 1.97
6 -2 8 23.74 1.94
6 -2 8 23.48 2.18
-6 2 -8 22.69 1.83
-6 2 -8 21.78 2.09
-6 2 -8 20.43 1.87
6 -1 8 89.71 5.78
6 -1 8 86.79 5.37
6 -1 8 91.27 5.6
-6 1 -8 83.26 5.1
-6 1 -8 84.06 5.73
-6 1 -8 80.27 5.34
6 0 8 41.19 3.02
6 0 8 40.86 2.83
6 0 8 40.43 2.81
6 0 8 40.87 2.57
-6 0 -8 39.54 2.76
-6 0 -8 40.41 3.05
-6 0 -8 40.5 2.56
6 1 8 81.44 4.92
6 1 8 86.95 5.34
6 1 8 80.2 5.56
6 1 8 82.75 5.32
6 1 8 83.76 5.68
-6 -1 -8 88.68 4.94
-6 -1 -8 90.55 5.69
-6 -1 -8 90.68 5.26
6 2 8 19.12 1.93
6 2 8 20.52 1.33
6 2 8 22.1 1.95
6 2 8 20.01 1.72
6 2 8 20.8 1.77
-6 -2 -8 22.68 1.86
-6 -2 -8 22.05 1.87
6 3 8 71.07 4.49
6 3 8 74.84 4.83
6 3 8 76.36 4.53
-6 -3 -8 64.47 4.69
6 4 8 18.66 1.92
6 4 8 21.89 1.72
6 4 8 18.96 1.61
-6 -4 -8 19.34 1.63
6 5 8 28.58 2.11
6 6 8 8.21 1.06
7 -6 8 3.52 1.32
-7 6 -8 6.6 1.46
7 -5 8 13.57 1.87
-7 5 -8 14.44 1.84
7 -4 8 10.04 1.53
7 -4 8 12.09 1.46
-7 4 -8 7.31 1.35
-7 4 -8 6.17 1.37
7 -3 8 6.7 1.17
7 -3 8 7 1.34
-7 3 -8 6.23 1.2
-7 3 -8 7.12 1.38
7 -2 8 56.2 3.69
7 -2 8 54.52 4
7 -2 8 58.31 3.86
-7 2 -8 55.39 3.54
-7 2 -8 50.09 3.93
-7 2 -8 51.9 3.69
7 -1 8 0.09 0.78
7 -1 8 -0.8 0.86
7 -1 8 0 0.74
7 -1 8 0.25 0.62
-7 1 -8 0.14 0.9
-7 1 -8 -0.15 0.76
-7 1 -8 0.49 0.62
7 0 8 38.59 2.56
7 0 8 40.49 2.83
7 0 8 39.49 3.06
7 0 8 41.45 2.88
-7 0 -8 39.15 3.03
-7 0 -8 37.83 2.54
-7 0 -8 39.62 2.76
7 1 8 0.36 0.73
7 1 8 0.19 0.49
7 1 8 0.25 0.79
7 1 8 0.72 0.73
7 1 8 0.63 0.82
-7 -1 -8 -0.61 0.63
-7 -1 -8 0.22 0.5
-7 -1 -8 0.08 0.79
7 2 8 54.21 3.51
7 2 8 51.5 3.77
7 2 8 51.64 3.51
7 2 8 52.19 3.71
7 2 8 53.93 3.09
-7 -2 -8 50.85 3.67
7 3 8 6.26 1.18
7 3 8 5.66 0.98
-7 -3 -8 6.98 1.06
7 4 8 5.4 1.02
7 4 8 6.23 1.25
-7 -4 -8 10.85 1.18
7 5 8 14.67 1.48
7 6 8 5.12 0.96
8 -6 8 2.99 1.36
-8 6 -8 5.16 1.48
8 -5 8 7.91 1.56
-8 5 -8 5.64 1.42
8 -4 8 36.16 3.08
8 -4 8 40.21 2.98
-8 4 -8 38.74 3.03
-8 4 -8 36.89 3.26
8 -3 8 56.57 4.33
8 -3 8 61.36 4.2
-8 3 -8 59.95 4.43
-8 3 -8 60.17 4.11
8 -2 8 1.51 1.07
8 -2 8 1.76 0.85
8 -2 8 1.58 0.94
8 -2 8 2.11 0.98
-8 2 -8 0.61 0.94
-8 2 -8 0.56 0.83
-8 2 -8 1.33 0.85
8 -1 8 19.89 1.97
8 -1 8 21.35 2.13
8 -1 8 17.95 1.71
8 -1 8 19.94 1.8
8 0 8 86.87 5.47
8 0 8 86.25 5.84
8 0 8 86.03 5.11
-8 0 -8 86.79 5.38
-8 0 -8 85.66 5.09
-8 0 -8 82.64 5.77
8 1 8 30.06 1.97
8 1 8 28.44 2.28
8 1 8 27.65 2.48
8 2 8 0.1 0.78
8 2 8 0.8 0.5
8 2 8 0.02 0.84
-8 -2 -8 1.35 0.92
8 3 8 54.99 3.68
-8 -3 -8 55.1 3.83
8 4 8 34.61 2.58
-8 -4 -8 35.66 2.62
-8 -4 -8 35.92 2.61
8 5 8 5.46 1.01
8 6 8 5.26 1.03
9 -6 8 22.05 2.38
-9 6 -8 19.43 2.51
9 -5 8 3.98 1.41
-9 5 -8 6.24 1.47
9 -4 8 17.54 2.26
-9 4 -8 22.79 2.24
-9 4 -8 21.17 2.44
9 -3 8 16.46 1.97
-9 3 -8 17.3 1.94
-9 3 -8 17.31 2.18
9 -2 8 24.39 2.39
9 -2 8 25.85 2.09
-9 2 -8 18.3 2.06
-9 2 -8 20.41 2.22
9 -1 8 55.21 4.26
9 -1 8 55.5 3.76
9 -1 8 52.29 3.92
-9 1 -8 63.56 4.3
-9 1 -8 66.68 3.8
9 0 8 141.39 8.6
9 0 8 144.18 8.17
9 0 8 143.46 9.19
-9 0 -8 132.13 9.09
-9 0 -8 140.69 8.15
9 1 8 64 4.16
9 1 8 65 4.46
9 1 8 65.55 3.78
-9 -1 -8 51.28 4.32
9 2 8 18.93 1.88
9 2 8 18.09 2.04
-9 -2 -8 24.08 2.08
9 3 8 16.24 1.68
-9 -3 -8 17.79 1.78
9 4 8 19.84 1.75
-9 -4 -8 15.36 1.65
9 5 8 6.49 1.15
9 6 8 17.48 1.78
10 -5 8 4.39 1.45
10 -4 8 5.03 1.5
-10 4 -8 8.9 1.7
10 -3 8 26.94 2.83
-10 3 -8 33.29 2.89
10 -2 8 11.2 1.71
10 -2 8 11.68 1.46
-10 2 -8 9.98 1.65
10 -1 8 26.56 2.56
10 -1 8 24.53 2.34
10 -1 8 25.49 2.14
-10 1 -8 25.77 2.46
-10 1 -8 25.97 2.07
10 0 8 41.64 3.46
10 0 8 42.86 2.94
10 0 8 44.33 3.21
-10 0 -8 40.26 3.4
-10 0 -8 43.86 2.91
10 1 8 25.59 2.14
10 1 8 26.54 1.91
10 1 8 25.37 2.34
-10 -1 -8 22.21 2.3
10 2 8 12.24 1.57
-10 -2 -8 10.88 1.53
10 3 8 27.73 2.35
-10 -3 -8 27.34 2.39
10 4 8 8.07 1.26
-10 -4 -8 4.91 1.12
10 5 8 3.01 1.06
11 -5 8 -0.25 1.22
11 -4 8 4.12 1.49
-11 4 -8 5 1.64
11 -3 8 18.38 2.28
-11 3 -8 21.83 2.41
11 -2 8 7.71 1.33
11 -2 8 8.13 1.65
-11 2 -8 7.55 1.55
11 -1 8 8.88 1.58
11 -1 8 10.56 1.32
-11 1 -8 5.7 1.52
11 0 8 7.98 1.17
11 0 8 6.27 1.5
11 0 8 6.34 1.38
-11 0 -8 8.47 1.18
-11 0 -8 7.06 1.39
11 1 8 7.57 1.37
11 1 8 6.1 1.38
-11 -1 -8 10.64 1.55
11 2 8 7.32 1.31
-11 -2 -8 6.51 1.32
11 3 8 21.75 2.08
-11 -3 -8 18.84 2.05
-11 -3 -8 20.31 2.09
11 4 8 4.09 1.09
-11 -4 -8 3.96 1.11
11 5 8 0.79 0.98
12 -4 8 16.55 2.35
-12 4 -8 22.34 2.57
12 -3 8 10.61 1.82
-12 3 -8 9.55 1.95
12 -2 8 2.47 1.32
-12 2 -8 1.89 1.31
12 -1 8 18.27 2.05
12 -1 8 17.28 2.36
-12 1 -8 19.46 2.39
12 0 8 49.53 3.38
12 0 8 50.35 4
12 0 8 52.58 3.74
-12 0 -8 43.58 3.84
12 1 8 20.19 2.09
-12 -1 -8 15.38 2.06
12 2 8 2.49 1.22
-12 -2 -8 1.65 1.15
12 3 8 10.02 1.56
-12 -3 -8 9.89 1.59
-12 -3 -8 11.57 1.64
12 4 8 20.77 2.1
-12 -4 -8 16.62 2.02
13 -4 8 12.44 2.07
13 -3 8 15.25 2.22
-13 3 -8 12.93 2.16
13 -2 8 6.79 1.62
-13 2 -8 5.13 1.72
13 -1 8 1.75 1.36
-13 1 -8 1.62 1.41
13 0 8 1.87 1.36
-13 0 -8 2.94 1.29
13 1 8 0.96 1.2
-13 -1 -8 1.42 1.27
13 2 8 4.36 1.36
-13 -2 -8 5.55 1.48
-13 -2 -8 5.68 1.51
13 3 8 12.97 1.88
-13 -3 -8 15.62 2
13 4 8 14.71 1.87
-13 -4 -8 11.93 1.73
14 -3 8 14.97 2.28
-14 3 -8 11.46 2.17
14 -2 8 -0.35 1.28
-14 2 -8 0.16 1.37
14 -1 8 19.65 2.59
-14 1 -8 19.34 2.61
14 0 8 0.04 1.35
-14 0 -8 0.17 1.37
-14 -1 -8 17.49 2.31
-14 -1 -8 17.4 2.31
14 2 8 -0.9 1.17
-14 -2 -8 -0.63 1.28
-14 -2 -8 0.56 1.31
14 3 8 10.93 1.83
-14 -3 -8 12.64 1.86
15 -1 8 1.26 1.56
-15 1 -8 1.69 1.6
-15 0 -8 31.57 3.2
-15 0 -8 29.48 3.16
-15 -1 -8 -0.36 1.37
-15 -1 -8 0.54 1.41
-16 -1 9 12.17 2.17
-16 0 9 3.3 1.72
16 0 -9 3.4 1.65
-16 1 9 9.13 2.06
16 -1 -9 16.18 2.29
-15 -3 9 5.2 1.61
-15 -2 9 10.03 1.9
-15 -1 9 19.69 2.52
15 1 -9 17.2 2.37
-15 0 9 2.91 1.44
15 0 -9 1.91 1.45
-15 1 9 19.92 2.68
15 -1 -9 19.69 2.57
-15 2 9 10.81 2.03
15 -2 -9 10.15 1.97
15 -3 -9 4.17 1.64
-14 -3 9 7.06 1.59
14 3 -9 2.21 1.31
-14 -2 9 3.86 1.47
-14 -1 9 6.67 1.61
14 1 -9 11.43 1.78
-14 0 9 13.09 1.98
14 0 -9 14.44 2.01
-14 1 9 11.44 1.98
14 -1 -9 10.46 1.81
-14 2 9 5.4 1.66
14 -2 -9 4.64 1.45
14 -3 -9 7.49 1.72
-13 -4 9 7.07 1.53
13 4 -9 6.01 1.53
-13 -3 9 3.37 1.36
13 3 -9 3.25 1.27
-13 -2 9 5.36 1.45
13 2 -9 0.82 1.14
-13 -1 9 30.57 2.8
13 1 -9 29.98 2.89
-13 0 9 2.27 1.24
13 0 -9 0.57 1.11
-13 1 9 29.15 2.88
13 -1 -9 32.92 2.9
-13 2 9 0.72 1.4
13 -2 -9 3.1 1.35
-13 3 9 2.62 1.58
13 -3 -9 4.15 1.44
13 -4 -9 6.24 1.58
-12 -5 9 2.39 1.28
12 5 -9 1.7 1.19
-12 -4 9 24.06 2.44
12 4 -9 20.02 2.29
-12 -3 9 7.36 1.5
12 3 -9 9.13 1.51
-12 -2 9 45.22 3.78
12 2 -9 49.54 3.84
12 2 -9 50.89 3.55
-12 -1 9 7.43 1.54
12 1 -9 6.27 1.33
12 1 -9 7.29 1.42
-12 0 9 1.93 1.19
12 0 -9 2.76 1.21
-12 1 9 6.78 1.52
12 -1 -9 9 1.58
-12 2 9 47.33 3.76
12 -2 -9 45.41 3.66
-12 3 9 7.41 1.5
-12 3 9 9.52 1.74
12 -3 -9 9.35 1.55
-12 4 9 19.67 2.34
12 -4 -9 22.28 2.35
-12 5 9 1.64 1.39
12 -5 -9 1.83 1.21
-11 -5 9 11.2 1.71
11 5 -9 12.55 1.67
-11 -4 9 1.26 1.14
11 4 -9 1.63 1.08
-11 -3 9 6.17 1.33
11 3 -9 4.79 1.23
-11 -2 9 7.07 1.4
11 2 -9 4.39 1.25
11 2 -9 4.49 1.18
-11 -1 9 41.65 3.32
11 1 -9 41.16 3.37
11 1 -9 42.15 3.15
-11 0 9 4.32 1.29
11 0 -9 5.43 1.3
11 0 -9 6.04 1.17
-11 1 9 45.16 3.62
11 -1 -9 44.2 3.53
-11 2 9 6.55 1.52
-11 2 9 5.77 1.3
11 -2 -9 6.11 1.35
-11 3 9 5.61 1.37
-11 3 9 4.38 1.48
11 -3 -9 6.55 1.39
-11 4 9 1.8 1.22
11 -4 -9 0.46 1.07
-11 5 9 11.34 1.82
11 -5 -9 11.22 1.68
-10 -6 9 0.83 1.03
10 6 -9 2.69 1.15
-10 -5 9 3.34 1.17
10 5 -9 5.05 1.26
-10 -4 9 20.34 2.21
10 4 -9 23.28 2.17
-10 -3 9 17.06 1.89
10 3 -9 16.29 1.82
-10 -2 9 7.77 1.35
10 2 -9 8.22 1.32
10 2 -9 10.13 1.43
-10 -1 9 29.1 2.66
10 1 -9 31.14 2.72
10 1 -9 33.51 2.5
10 1 -9 33.07 2.51
-10 0 9 -0.06 1.05
10 0 -9 1.04 0.92
10 0 -9 1 0.86
10 0 -9 1.13 0.98
-10 1 9 32.13 2.73
-10 1 9 31.28 2.45
10 -1 -9 28.43 2.39
10 -1 -9 29.13 2.58
-10 2 9 10.35 1.6
-10 2 9 8.88 1.33
10 -2 -9 7.89 1.37
10 -2 -9 8.65 1.38
10 -2 -9 9.12 1.36
-10 3 9 15.72 1.91
-10 3 9 16.36 2.13
10 -3 -9 19.82 1.95
10 -3 -9 17.04 1.97
-10 4 9 21.14 2.15
10 -4 -9 19.33 2.1
-10 5 9 3.21 1.29
10 -5 -9 2.22 1.18
-10 6 9 1.78 1.39
10 -6 -9 1.82 1.19
-9 -6 9 0.61 0.97
9 6 -9 0.97 1.03
-9 -5 9 0.73 0.98
9 5 -9 -0.04 0.95
-9 -4 9 2.27 1.09
9 4 -9 1.39 0.96
9 4 -9 1.63 0.96
-9 -3 9 9.82 1.54
9 3 -9 16.88 1.83
9 3 -9 15.45 1.71
9 3 -9 14.13 1.61
-9 -2 9 3.14 1.09
9 2 -9 5.46 1.09
9 2 -9 4.3 1.09
9 2 -9 4.03 1.12
-9 -1 9 51.56 3.96
9 1 -9 59.23 3.81
9 1 -9 55.67 4.03
-9 0 9 32.79 2.5
-9 0 9 29.44 2.6
9 0 -9 32.32 2.46
9 0 -9 31.87 2.4
9 0 -9 30.15 2.64
-9 1 9 56.69 3.97
-9 1 9 58.96 3.74
9 -1 -9 52.27 3.57
9 -1 -9 49.96 3.87
9 -1 -9 52.62 3.66
9 -1 -9 52.61 3.85
-9 2 9 4.85 1.1
-9 2 9 4.1 1.14
9 -2 -9 3.23 1
9 -2 -9 3.76 1.01
9 -2 -9 3.21 1.06
-9 3 9 13.95 1.83
-9 3 9 14.93 1.67
9 -3 -9 9.47 1.39
9 -3 -9 10.09 1.49
9 -3 -9 11.28 1.5
-9 4 9 1.82 1.08
9 -4 -9 2.25 1.07
9 -4 -9 2.82 1.02
-9 5 9 -0.8 1.08
9 -5 -9 -0.12 1
-9 6 9 0.57 1.15
9 -6 -9 0.82 1.12
-8 -6 9 6.54 1.22
8 6 -9 7.11 1.29
-8 -5 9 12.67 1.78
8 5 -9 17.77 1.75
-8 -4 9 18.44 2.08
8 4 -9 22.62 2.05
8 4 -9 26.08 2.08
-8 -3 9 37.78 2.83
8 3 -9 34.07 2.63
8 3 -9 32.45 2.8
8 3 -9 35.95 2.76
-8 -2 9 12.98 1.62
8 2 -9 11.97 1.47
8 2 -9 12.54 1.55
8 2 -9 12.55 1.52
-8 -1 9 24.61 2.09
-8 -1 9 22.12 1.95
8 1 -9 21.33 1.93
8 1 -9 22.39 1.97
8 1 -9 21.38 2.02
8 1 -9 22.18 2.06
-8 0 9 72.48 5
-8 0 9 73.12 4.65
8 0 -9 72.03 4.96
8 0 -9 74.31 4.83
8 0 -9 69.39 4.63
8 0 -9 70.66 4.49
-8 1 9 21.2 1.92
-8 1 9 24.71 2.14
8 -1 -9 21.9 2.1
8 -1 -9 24.19 2.06
8 -1 -9 22.93 1.95
8 -1 -9 22.96 1.89
-8 2 9 12.12 1.61
-8 2 9 13.34 1.58
8 -2 -9 13.42 1.65
8 -2 -9 14.68 1.52
8 -2 -9 14.69 1.53
-8 3 9 34.12 2.72
-8 3 9 37.86 2.97
8 -3 -9 36.83 2.65
8 -3 -9 38.3 2.8
8 -3 -9 33.51 2.81
-8 4 9 21.4 1.89
8 -4 -9 15.82 1.83
8 -4 -9 17.02 1.77
8 -4 -9 18.03 1.81
-8 5 9 16.47 1.89
8 -5 -9 15.61 1.84
-8 6 9 5.93 1.33
8 -6 -9 6.07 1.25
-7 -6 9 5.62 1.1
7 6 -9 3.39 1.13
-7 -5 9 18.81 2
7 5 -9 21.84 1.92
-7 -4 9 76.39 5.38
7 4 -9 85.1 5.3
7 4 -9 77.93 5.08
-7 -3 9 39.86 3.05
7 3 -9 41.16 2.98
7 3 -9 40.55 2.88
7 3 -9 39.29 3.01
-7 -2 9 12.14 1.32
7 2 -9 7.23 1.1
7 2 -9 6.63 1.19
7 2 -9 6.98 1.11
7 2 -9 7.87 1.12
-7 -1 9 65.37 4.56
-7 -1 9 67.36 4.58
-7 -1 9 63.21 4.85
7 1 -9 78.78 4.84
7 1 -9 74.03 4.59
7 1 -9 78.74 4.63
7 1 -9 77.7 4.95
-7 0 9 72.45 4.86
-7 0 9 72.09 4.53
7 0 -9 69.31 4.85
7 0 -9 73.09 4.74
7 0 -9 71.73 4.42
7 0 -9 68.6 4.51
-7 1 9 75.56 4.48
-7 1 9 73.78 4.42
-7 1 9 74.8 4.72
7 -1 -9 63.19 4.52
7 -1 -9 62.1 4.2
7 -1 -9 62.07 4.63
7 -1 -9 65.54 4.33
-7 2 9 7.81 1.28
-7 2 9 7.65 1.37
7 -2 -9 12.9 1.24
7 -2 -9 12.04 1.49
7 -2 -9 12.64 1.41
7 -2 -9 12.57 1.3
-7 3 9 39.19 2.95
-7 3 9 42.33 3.23
7 -3 -9 42.93 2.87
7 -3 -9 42.31 3.04
7 -3 -9 40.35 3.1
-7 4 9 83.79 5.08
-7 4 9 80.15 5.2
7 -4 -9 79.72 5.47
7 -4 -9 81.31 5.09
7 -4 -9 82.66 5.37
-7 5 9 22.91 2.04
7 -5 -9 19.02 1.97
7 -5 -9 19.31 1.99
-7 6 9 2.33 1.15
7 -6 -9 4.62 1.09
6 7 -9 8.17 1.4
-6 -6 9 11.84 1.49
6 6 -9 9.86 1.38
-6 -5 9 2.31 0.98
6 5 -9 3.24 1
-6 -4 9 27.96 2.47
6 4 -9 34.71 2.47
6 4 -9 31.23 2.35
-6 -3 9 8.67 1.29
6 3 -9 12.18 1.32
6 3 -9 11.16 1.45
6 3 -9 11.8 1.36
-6 -2 9 16.34 1.61
6 2 -9 17.62 1.62
6 2 -9 15.87 1.52
6 2 -9 14.71 1.45
6 2 -9 15.77 1.58
-6 -1 9 32.82 2.67
-6 -1 9 33.86 2.86
-6 -1 9 33.41 2.64
6 1 -9 41.09 2.66
6 1 -9 41.29 2.79
6 1 -9 43.68 2.71
6 1 -9 41.34 2.88
-6 0 9 229.49 13.49
-6 0 9 228.4 14.34
6 0 -9 224.9 13.99
6 0 -9 229.28 14.34
6 0 -9 233.22 13.49
-6 1 9 42.15 2.68
-6 1 9 41.18 2.62
-6 1 9 42.49 2.85
6 -1 -9 32.27 2.67
6 -1 -9 35.62 2.53
6 -1 -9 29.54 2.58
6 -1 -9 32.54 2.42
-6 2 9 16.47 1.59
-6 2 9 17.87 1.67
-6 2 9 16.37 1.68
6 -2 -9 15.86 1.59
6 -2 -9 16.24 1.54
6 -2 -9 17.63 1.49
6 -2 -9 16.75 1.48
-6 3 9 11.48 1.35
-6 3 9 13.51 1.56
6 -3 -9 10.34 1.22
6 -3 -9 10.02 1.39
6 -3 -9 9.32 1.27
-6 4 9 34.04 2.31
-6 4 9 31.96 2.4
6 -4 -9 27.89 2.46
6 -4 -9 29.12 2.28
6 -4 -9 28.89 2.36
-6 5 9 4.06 1.05
6 -5 -9 2.08 0.93
6 -5 -9 1.67 0.93
-6 6 9 10.17 1.44
6 -6 -9 12.12 1.48
-6 7 9 7.75 1.38
5 7 -9 0.69 1.03
-5 -6 9 37.59 2.77
5 6 -9 33.45 2.67
-5 -5 9 7.94 1.23
5 5 -9 7.21 1.15
5 4 -9 6.25 1.06
5 4 -9 5.55 1.04
5 4 -9 6.39 1
-5 -3 9 3.43 0.93
5 3 -9 3.83 0.86
5 3 -9 3.21 0.86
5 3 -9 3.85 0.88
5 3 -9 3.6 0.82
-5 -2 9 49.51 3.08
-5 -2 9 44.76 3.29
5 2 -9 41.48 3.04
5 2 -9 45.52 3.29
5 2 -9 45.21 3.09
5 2 -9 46.53 3.2
-5 -1 9 8.17 1.14
-5 -1 9 7.86 1
5 1 -9 5.74 0.93
5 1 -9 6.36 1.04
5 1 -9 6.49 0.95
5 1 -9 6.96 0.95
-5 0 9 22.56 2.04
-5 0 9 24.09 1.89
-5 0 9 23.93 1.93
5 0 -9 23.84 1.9
5 0 -9 24.66 1.86
5 0 -9 22.62 1.96
-5 1 9 6.68 1.01
-5 1 9 6.41 1.1
-5 1 9 6.39 0.97
5 -1 -9 6.95 0.89
5 -1 -9 8.01 1.05
5 -1 -9 6.87 0.92
5 -1 -9 7.25 1.04
-5 2 9 42.91 3.31
-5 2 9 45.76 3.12
-5 2 9 43.85 3.07
5 -2 -9 47.32 3.22
5 -2 -9 46.12 2.95
5 -2 -9 47.98 3.05
5 -2 -9 47.67 3.31
-5 3 9 3.62 0.9
-5 3 9 2.94 0.82
-5 3 9 3.13 0.94
5 -3 -9 4.07 0.88
5 -3 -9 3.62 0.79
5 -3 -9 3.77 0.93
-5 4 9 6.18 1.05
-5 4 9 5.78 1.09
5 -4 -9 9.89 1.32
5 -4 -9 12.07 1.32
5 -4 -9 10.54 1.23
-5 5 9 7.99 1.18
-5 5 9 6 1.1
5 -5 -9 6.53 1.11
5 -5 -9 8.23 1.13
-5 6 9 32.28 2.54
5 -6 -9 34.55 2.48
-5 7 9 0.24 1
4 7 -9 11.84 1.55
-4 -6 9 0.95 0.86
4 6 -9 0.74 0.89
-4 -5 9 22.03 1.9
4 5 -9 14.71 1.68
-4 -4 9 34.7 2.62
4 4 -9 33.24 2.41
4 4 -9 33.58 2.45
4 4 -9 30.64 2.6
-4 -3 9 98.11 6.32
4 3 -9 99.27 5.96
4 3 -9 92.38 5.92
4 3 -9 94.6 6.3
4 3 -9 97.48 6.13
-4 -2 9 6.15 1
-4 -2 9 5.74 0.85
4 2 -9 4.61 0.85
4 2 -9 4.37 0.88
4 2 -9 4.65 0.86
4 2 -9 3.89 0.82
-4 -1 9 68.55 4.79
-4 -1 9 74.4 4.52
4 1 -9 71.45 4.8
4 1 -9 69.93 4.5
4 1 -9 71.93 4.68
4 1 -9 75.96 4.55
-4 0 9 122.6 7.37
-4 0 9 125.55 7.36
-4 0 9 124.04 7.84
-4 0 9 125.54 7.37
4 0 -9 118.44 7.63
4 0 -9 117.57 7.82
4 0 -9 123.03 7.35
-4 1 9 74.82 4.87
-4 1 9 78.82 4.61
-4 1 9 69.51 4.52
4 -1 -9 72.82 4.34
4 -1 -9 68.56 4.7
4 -1 -9 73.07 4.51
4 -1 -9 71.64 4.82
-4 2 9 4.38 0.89
-4 2 9 3.93 0.82
-4 2 9 3.93 0.93
4 -2 -9 6.26 0.96
4 -2 -9 5.61 0.79
4 -2 -9 5.96 0.79
4 -2 -9 5.42 0.9
-4 3 9 92.27 5.9
-4 3 9 100.85 6.34
-4 3 9 94.71 5.95
4 -3 -9 96.28 5.69
4 -3 -9 94.24 6.15
4 -3 -9 97.01 6.27
4 -3 -9 102.32 6.31
-4 4 9 31.33 2.39
-4 4 9 33.14 2.48
-4 4 9 33.22 2.33
4 -4 -9 34.45 2.53
4 -4 -9 32.75 2.31
4 -4 -9 34.89 2.52
-4 5 9 14.61 1.68
4 -5 -9 21.94 1.71
4 -5 -9 20.23 1.71
-4 6 9 0.3 0.81
4 -6 -9 0.81 0.65
-4 7 9 11.21 1.42
-3 -7 9 0.56 0.79
3 7 -9 1.09 1.06
-3 -6 9 5.67 1.06
3 6 -9 3.37 1.04
-3 -5 9 3.08 1
3 5 -9 6.41 1.03
-3 -4 9 27.92 2.58
3 4 -9 37.54 2.54
3 4 -9 35.57 2.5
3 4 -9 37.4 2.7
-3 -3 9 54.45 3.55
-3 -3 9 47.35 3.82
3 3 -9 53.65 3.86
3 3 -9 56.01 3.63
3 3 -9 60.29 3.69
3 3 -9 58.23 3.74
3 3 -9 61.33 3.7
-3 -2 9 -0.24 0.56
-3 -2 9 0.31 0.72
3 2 -9 0.39 0.6
3 2 -9 0.66 0.61
3 2 -9 0.73 0.63
3 2 -9 0.66 0.61
3 1 -9 39.23 2.59
3 1 -9 36.31 2.64
3 1 -9 35.59 2.53
3 1 -9 36.52 2.69
-3 0 9 80.54 5
-3 0 9 80.51 5.3
-3 0 9 79.27 4.96
-3 0 9 82.56 4.99
3 0 -9 81.39 5.31
3 0 -9 78.33 5.16
3 0 -9 81.52 4.97
-3 1 9 35.91 2.14
-3 1 9 36.42 2.3
3 -1 -9 25.12 2.2
3 -1 -9 24.94 2.03
3 -1 -9 27.23 2.15
3 -1 -9 25.05 1.89
-3 2 9 0.54 0.6
-3 2 9 0.44 0.63
-3 2 9 0.71 0.68
3 -2 -9 0.3 0.53
3 -2 -9 -0.18 0.59
3 -2 -9 0.1 0.45
3 -2 -9 0.35 0.55
3 -2 -9 -0.15 0.57
-3 3 9 57.81 3.66
-3 3 9 56.47 3.43
-3 3 9 54.7 3.39
3 -3 -9 47.38 3.16
3 -3 -9 50.38 3.58
3 -3 -9 49.7 3.52
3 -3 -9 49.33 3.56
-3 4 9 37.7 2.25
-3 4 9 37.56 2.38
-3 4 9 37.92 2.46
3 -4 -9 27.85 2.19
3 -4 -9 30.43 2.44
3 -4 -9 28.93 2.4
-3 5 9 5.83 0.95
3 -5 -9 3.34 0.76
3 -5 -9 3.39 0.88
-3 6 9 2.27 0.88
-3 7 9 1.63 0.93
-2 -7 9 0.54 0.82
2 7 -9 -0.55 0.98
-2 -6 9 23.05 2.14
2 6 -9 24.45 2.1
-2 -5 9 13.23 1.59
2 5 -9 13.79 1.52
-2 -4 9 1.25 0.87
2 4 -9 3.15 0.84
2 4 -9 3.21 0.76
2 4 -9 3.5 0.91
-2 -3 9 47.25 2.85
-2 -3 9 43.37 3.09
2 3 -9 41.96 2.92
2 3 -9 39.35 2.86
2 3 -9 39.92 3.04
2 3 -9 42.14 2.93
-2 -2 9 70.73 4.43
-2 -2 9 74.67 4.26
-2 -2 9 69.99 4.57
2 2 -9 61.59 4.49
2 2 -9 67.04 4.29
2 2 -9 66.94 4.4
2 2 -9 63.58 4.25
2 2 -9 66.8 4.28
-2 -1 9 10.38 1.23
-2 -1 9 10.55 1.26
-2 -1 9 9.28 1.28
2 1 -9 15.71 1.41
2 1 -9 13.3 1.19
2 1 -9 14.12 1.29
2 1 -9 12.4 1.21
-2 0 9 110.5 6.63
-2 0 9 106.68 6.61
-2 0 9 111.36 7.06
2 0 -9 108.9 6.61
2 0 -9 111.8 6.88
2 0 -9 109.88 7.04
-2 1 9 13.39 1.29
-2 1 9 12.4 1.29
-2 1 9 14.14 1.28
-2 1 9 13.76 1.25
-2 1 9 14.09 1.36
2 -1 -9 9.64 1.16
2 -1 -9 9.96 1.18
2 -1 -9 9.02 1.17
-2 2 9 64.42 4.49
-2 2 9 66.81 4.25
-2 2 9 65.47 4.2
-2 2 9 64.4 4.4
2 -2 -9 71.18 4.14
2 -2 -9 70.33 4.49
2 -2 -9 70.84 4.47
2 -2 -9 63.83 3.93
2 -2 -9 69.71 4.41
-2 3 9 43.47 3.08
-2 3 9 42.05 2.87
-2 3 9 41.38 3
-2 3 9 39.68 2.8
2 -3 -9 45.5 3.05
2 -3 -9 44.33 2.99
2 -3 -9 43.77 2.99
-2 4 9 2.83 0.73
-2 4 9 4.14 0.81
-2 4 9 3.52 0.65
2 -4 -9 1.37 0.54
2 -4 -9 1.48 0.72
2 -4 -9 1.16 0.66
-2 5 9 14.01 1.46
-2 5 9 13.74 1.34
2 -5 -9 12.84 1.27
2 -5 -9 13.07 1.44
-2 6 9 22.41 1.82
-2 7 9 0.51 0.85
-1 -7 9 5.41 1.06
1 7 -9 4.48 1.16
-1 -6 9 3.19 0.99
1 6 -9 3.97 1.06
-1 -5 9 7.53 1.17
1 5 -9 5.12 1.08
-1 -4 9 -0.38 0.78
1 4 -9 0.34 0.7
1 4 -9 0.29 0.77
1 4 -9 0.14 0.61
1 4 -9 0.12 0.77
-1 -3 9 150.77 9.44
-1 -3 9 151.67 9.73
-1 -3 9 156.06 9.1
1 3 -9 156.55 9.19
1 3 -9 154.31 9.17
1 3 -9 155.14 9.44
1 3 -9 149.28 9.73
-1 -2 9 13.44 1.3
-1 -2 9 12.52 1.28
-1 -2 9 11.65 1.4
1 2 -9 11.48 1.3
1 2 -9 11.57 1.19
1 2 -9 12.23 1.2
1 2 -9 12.45 1.41
-1 -1 9 131.6 8.18
-1 -1 9 133.09 7.99
-1 -1 9 136.22 7.69
1 1 -9 119.9 8.13
1 1 -9 123.68 7.68
1 1 -9 126.01 7.96
1 1 -9 128.47 7.69
1 1 -9 127.2 7.69
-1 0 9 0.3 0.73
-1 0 9 0.36 0.57
-1 0 9 -0.19 0.64
1 0 -9 0.21 0.56
1 0 -9 0.12 0.52
1 0 -9 -0.1 0.63
-1 1 9 117.83 7.75
-1 1 9 115.08 7.27
-1 1 9 122.48 7.6
-1 1 9 121.36 7.31
-1 1 9 116.37 7.27
1 -1 -9 128.66 7.75
1 -1 -9 127.74 7.6
1 -1 -9 126.28 7.26
-1 2 9 10.3 1.14
-1 2 9 11.42 1.28
-1 2 9 12.13 1.31
-1 2 9 11.48 1.19
1 -2 -9 11.99 0.91
1 -2 -9 13.57 1.31
1 -2 -9 11.23 1.21
1 -2 -9 11.51 1.03
1 -2 -9 11.64 1.25
-1 3 9 148.74 9.43
-1 3 9 147.28 8.86
-1 3 9 153.57 9.26
-1 3 9 154.22 8.9
1 -3 -9 146.26 9.24
1 -3 -9 144.86 8.43
1 -3 -9 159.06 9.41
1 -3 -9 144.56 9.38
-1 4 9 -0.13 0.65
-1 4 9 0.56 0.76
-1 4 9 -0.27 0.58
-1 4 9 -0.05 0.48
1 -4 -9 0.38 0.6
1 -4 -9 0.19 0.63
-1 5 9 4.84 0.89
-1 5 9 5.76 0.96
1 -5 -9 8.79 0.9
1 -5 -9 8.76 1.14
-1 6 9 3.18 0.82
-1 7 9 5.12 0.97
0 -7 9 4.39 1.04
0 7 -9 3.97 1.17
0 -6 9 16.19 1.69
0 6 -9 10.94 1.48
0 -5 9 1.06 0.89
0 5 -9 2.29 0.91
0 -4 9 96.01 6.35
0 -4 9 92.06 6.59
0 4 -9 102.97 6.65
0 4 -9 106.85 6.28
0 4 -9 108.2 6.38
0 -3 9 43.74 2.92
0 -3 9 43.64 3.01
0 -3 9 44.01 3.19
0 3 -9 43.31 3
0 3 -9 46.1 3.03
0 3 -9 43.15 2.97
0 3 -9 42.76 3.15
0 -2 9 14.65 1.58
0 -2 9 16.52 1.69
0 -2 9 14.57 1.56
0 2 -9 23.27 1.68
0 2 -9 21.88 1.62
0 2 -9 22.52 1.81
0 2 -9 25.67 1.72
0 -1 9 26.08 2.17
0 -1 9 28.46 2.12
0 -1 9 30.31 2.3
0 -1 9 28.38 2.15
0 1 -9 30.66 2.12
0 1 -9 32.53 2.32
0 1 -9 32.9 2.19
0 1 -9 31.16 2.24
0 0 9 463.84 26.32
0 0 9 449.96 27.9
0 0 9 457.94 26.32
0 0 -9 444.39 26.28
0 0 -9 461.47 27.25
0 0 -9 448.55 27.89
0 1 9 31.34 2.12
0 1 9 31.01 2.23
0 1 9 30.7 2.15
0 1 9 31.94 2.27
0 -1 -9 28.29 2.21
0 -1 -9 28.48 2.04
0 -1 -9 29.78 2.27
0 -1 -9 27.39 2.17
0 -2 -9 12.97 1.34
0 -2 -9 14 0.92
0 -2 -9 14.05 1.38
0 -2 -9 14.57 1.4
0 3 9 44.01 3.01
0 3 9 44.06 3.01
0 3 9 40.99 2.79
0 3 9 43.64 2.85
0 -3 -9 41.06 2.98
0 -3 -9 42.16 2.97
0 -3 -9 44.36 2.98
0 4 9 100.25 6.03
0 4 9 111.98 6.4
0 4 9 106.28 6.08
0 -4 -9 91.12 6.32
0 -4 -9 93.92 6.34
0 -4 -9 98.83 6.34
0 5 9 1.55 0.68
0 5 9 1.61 0.74
0 -5 -9 1.85 0.77
0 6 9 11.33 1.22
0 7 9 2.8 0.82
1 -7 9 16.69 1.81
-1 7 -9 15.32 1.92
1 -6 9 11.65 1.54
-1 6 -9 10.73 1.46
1 -5 9 1.18 0.95
-1 5 -9 3.43 0.93
1 -4 9 27.1 2.61
1 -4 9 27.74 2.37
-1 4 -9 34.61 2.45
-1 4 -9 38.68 2.44
-1 4 -9 36.43 2.65
1 -3 9 45.36 2.76
1 -3 9 47.04 2.67
-1 3 -9 35.76 2.88
-1 3 -9 32.15 2.64
-1 3 -9 35.01 2.68
-1 3 -9 34.89 2.7
1 -2 9 15.91 1.34
1 -2 9 15.73 1.44
-1 2 -9 10.6 1.2
-1 2 -9 11.29 1.27
-1 2 -9 11.47 1.45
-1 2 -9 12.32 1.38
1 -1 9 17.9 1.71
1 -1 9 19.36 1.78
1 -1 9 18.97 1.74
1 -1 9 21.33 1.93
-1 1 -9 25.81 1.76
-1 1 -9 27.31 1.82
-1 1 -9 25.48 1.91
1 0 9 11.14 1.28
1 0 9 12.02 1.26
-1 0 -9 10.61 1.18
-1 0 -9 12.45 1.19
-1 0 -9 12.16 1.35
1 1 9 25.67 1.87
1 1 9 25.54 1.85
1 1 9 26.1 1.71
-1 -1 -9 19.02 1.74
-1 -1 -9 18.62 1.56
-1 -1 -9 17.16 1.75
-1 -1 -9 19.81 1.79
1 2 9 11.53 1.31
1 2 9 10.87 1.17
1 2 9 11.82 1.29
1 2 9 10.43 1.31
-1 -2 -9 15.75 1.34
-1 -2 -9 16.3 1.32
1 3 9 31.79 2.23
1 3 9 33.31 2.25
1 3 9 33.51 2.28
1 3 9 31.12 2.41
1 3 9 32.16 2.4
1 4 9 34.19 2.34
1 4 9 32.99 2.08
-1 -4 -9 27.77 2.12
-1 -4 -9 26.18 2.24
-1 -4 -9 26.11 2.1
1 5 9 3.89 0.8
1 5 9 3.63 0.72
-1 -5 -9 1.85 0.81
1 6 9 9.31 1.1
1 7 9 13.6 1.33
2 -7 9 4.17 1.14
-2 7 -9 4.45 1.28
2 -6 9 4.11 1.1
-2 6 -9 3.83 1.16
2 -5 9 11.56 1.54
-2 5 -9 7.61 1.27
2 -4 9 28.1 2.46
2 -4 9 28.31 2.18
-2 4 -9 29.24 2.46
-2 4 -9 29.58 2.19
-2 4 -9 28.02 2.26
2 -3 9 118.79 8
2 -3 9 117.32 7.47
2 -3 9 115.34 7.72
-2 3 -9 124.86 7.54
-2 3 -9 133.07 7.37
-2 3 -9 120.99 7.98
-2 3 -9 129.59 7.76
-2 3 -9 132.62 7.57
2 -2 9 7.66 1.13
2 -2 9 8.72 1.11
2 -2 9 7.22 0.98
-2 2 -9 6.62 1.05
-2 2 -9 7.48 1
-2 2 -9 6.93 0.98
-2 2 -9 7.45 1.02
-2 2 -9 6.65 0.93
2 -1 9 45.74 3.5
2 -1 9 44.29 3.42
2 -1 9 45.2 3.31
2 -1 9 43.84 3.24
-2 1 -9 57.67 3.36
-2 1 -9 56.35 3.47
-2 1 -9 53.33 3.11
-2 1 -9 53.84 3.58
-2 1 -9 54.15 3.32
2 0 9 9.55 1.16
2 0 9 9 1.12
2 0 9 9.48 1.24
-2 0 -9 10.51 1.14
-2 0 -9 10.2 1.11
-2 0 -9 9.84 0.88
-2 0 -9 9.72 1.19
2 1 9 56.13 3.4
2 1 9 53.85 3.15
2 1 9 52.23 3.31
2 1 9 51.19 3.12
-2 -1 -9 42.85 3.25
-2 -1 -9 43.87 3.25
-2 -1 -9 44.38 3.02
-2 -1 -9 44.98 3.3
-2 -1 -9 42.37 2.72
2 2 9 7.25 1.01
2 2 9 6.06 0.86
2 2 9 6.51 0.98
2 2 9 6.76 0.92
-2 -2 -9 7.47 1
-2 -2 -9 6.95 0.93
-2 -2 -9 8.65 1.07
2 3 9 119.21 7.36
2 3 9 123.34 7.02
2 3 9 115.42 6.98
2 3 9 121.43 7.44
-2 -3 -9 110.45 7.36
-2 -3 -9 116.86 7.39
-2 -3 -9 110.11 7.32
2 4 9 26.96 2.04
2 4 9 31.41 2.14
2 4 9 30 2.31
-2 -4 -9 27.49 2.09
-2 -4 -9 29.63 2.12
-2 -4 -9 30.39 2.31
2 5 9 7.75 1.01
2 5 9 7.65 0.98
2 5 9 6.16 0.9
2 6 9 2.81 0.76
2 6 9 3.59 0.77
2 7 9 5.61 0.9
2 7 9 4.83 0.86
3 -7 9 2.4 1.14
-3 7 -9 3.16 1.25
3 -6 9 2.63 1.09
-3 6 -9 3.59 1.18
3 -5 9 4.4 1.17
-3 5 -9 5.22 1.14
3 -4 9 11.56 1.62
3 -4 9 11.12 1.37
-3 4 -9 13.71 1.35
-3 4 -9 14.7 1.7
-3 4 -9 14.69 1.57
3 -3 9 21.77 1.77
3 -3 9 20 1.99
3 -3 9 22.08 1.82
-3 3 -9 20.63 1.77
-3 3 -9 20.53 1.79
-3 3 -9 19.18 1.99
-3 3 -9 21.13 1.77
3 -2 9 51.2 3.58
3 -2 9 52.97 3.76
3 -2 9 52.63 3.46
-3 2 -9 53.1 3.46
-3 2 -9 53.06 3.35
-3 2 -9 53 3.5
-3 2 -9 49.28 3.68
-3 2 -9 54.88 3.59
3 -1 9 15.49 1.52
3 -1 9 16.09 1.47
3 -1 9 16.5 1.55
3 -1 9 15.22 1.53
-3 1 -9 13.09 1.57
-3 1 -9 14.89 1.26
-3 1 -9 15.05 1.44
-3 1 -9 14.12 1.42
3 0 9 375.42 22.03
3 0 9 380.93 23.38
3 0 9 398.25 22.07
-3 0 -9 357.8 23.34
-3 0 -9 378.97 22.01
-3 0 -9 379.17 21.14
-3 0 -9 383.18 22.85
3 1 9 15.03 1.39
3 1 9 14.69 1.52
3 1 9 13.98 1.37
3 1 9 13.65 1.5
-3 -1 -9 15.79 1.42
-3 -1 -9 14.47 1.48
-3 -1 -9 14.81 1.31
-3 -1 -9 14.6 0.95
3 2 9 52.23 3.53
3 2 9 53.8 3.56
3 2 9 50.18 3.3
3 2 9 52.14 3.32
-3 -2 -9 49.74 3.48
-3 -2 -9 49.86 3.51
-3 -2 -9 48.71 3.5
3 3 9 19.89 1.8
3 3 9 18.93 1.57
3 3 9 18.75 1.57
3 3 9 19.74 1.71
-3 -3 -9 19.31 1.74
-3 -3 -9 19.44 1.67
-3 -3 -9 18.51 1.63
3 4 9 11.37 1.2
3 4 9 14.8 1.29
3 4 9 13.02 1.51
-3 -4 -9 11.77 1.21
-3 -4 -9 10.98 1.45
3 5 9 6.11 0.9
3 5 9 4.98 0.83
3 6 9 1.82 0.73
3 7 9 3.26 0.78
4 -7 9 4.39 1.3
-4 7 -9 7.53 1.52
4 -6 9 9.4 1.49
-4 6 -9 7.74 1.46
4 -5 9 13.15 1.76
-4 5 -9 18.49 1.79
4 -4 9 9.97 1.35
4 -4 9 8.57 1.39
-4 4 -9 12.1 1.64
-4 4 -9 11.55 1.47
4 -3 9 49.55 3.37
4 -3 9 48.79 3.67
4 -3 9 50.73 3.46
-4 3 -9 48.59 3.3
-4 3 -9 47.5 3.6
-4 3 -9 50.56 3.41
-4 3 -9 51.92 3.46
4 -2 9 18.34 1.96
4 -2 9 20.78 1.83
4 -2 9 18.83 1.74
-4 2 -9 19.01 1.76
-4 2 -9 19.87 1.88
-4 2 -9 22.38 1.77
-4 2 -9 21.4 1.68
-4 2 -9 22.12 1.87
-4 1 -9 54.84 3.7
-4 1 -9 58.04 3.5
-4 1 -9 55.93 3.99
-4 1 -9 58.61 3.85
4 0 9 47.43 3.16
4 0 9 47.97 3.17
4 0 9 47.3 3.36
-4 0 -9 47.75 2.84
-4 0 -9 43.55 3.24
-4 0 -9 45.85 3.37
-4 0 -9 48.21 3.1
-4 -1 -9 37.91 2.48
-4 -1 -9 36.47 2.72
-4 -1 -9 38.01 2.74
-4 -1 -9 35.6 2.16
4 2 9 22.64 1.86
4 2 9 21.57 1.68
4 2 9 20.73 1.71
4 2 9 21.94 1.9
-4 -2 -9 20.41 1.84
-4 -2 -9 19.66 1.78
-4 -2 -9 18.76 1.74
4 3 9 45.16 3.12
4 3 9 48.57 3.17
4 3 9 47.64 3.4
4 3 9 50.15 3.38
-4 -3 -9 49.48 3.32
-4 -3 -9 46.01 3.28
-4 -3 -9 47.8 3.38
4 4 9 9.91 1.17
4 4 9 11.39 1.26
4 4 9 10.1 1.36
-4 -4 -9 8.18 1.11
4 5 9 18.24 1.58
4 5 9 17.71 1.54
4 6 9 6.8 0.95
4 7 9 5.94 0.93
5 -6 9 1.16 1.11
-5 6 -9 2.89 1.21
5 -5 9 15.87 1.85
-5 5 -9 13.51 1.73
5 -4 9 18.6 1.9
5 -4 9 21.69 1.87
-5 4 -9 17.59 1.88
-5 4 -9 15.97 2.02
5 -3 9 5.68 1.06
5 -3 9 5.33 1.2
-5 3 -9 9.3 1.22
-5 3 -9 7.18 1.19
-5 3 -9 6.06 1.21
5 -2 9 58.09 4.24
5 -2 9 56.25 4.03
5 -2 9 59.13 3.91
-5 2 -9 60.46 3.76
-5 2 -9 61.29 3.94
-5 2 -9 61.26 4.07
-5 2 -9 58.56 4.19
5 -1 9 72.43 4.68
5 -1 9 70.36 4.8
5 -1 9 70.66 4.49
-5 1 -9 68.52 4.2
-5 1 -9 68.03 4.8
-5 1 -9 68.35 4.46
-5 1 -9 71.05 4.68
5 0 9 28.9 2.14
5 0 9 27.35 2.31
5 0 9 26.55 2.1
-5 0 -9 26.06 1.8
-5 0 -9 25.58 2.02
-5 0 -9 27.05 2.17
-5 0 -9 27.36 2.27
5 1 9 68.9 4.41
5 1 9 70.94 4.42
5 1 9 67.18 4.7
5 1 9 66.45 4.61
-5 -1 -9 66.25 4.67
-5 -1 -9 71.22 3.98
-5 -1 -9 69.19 4.61
-5 -1 -9 71.64 4.33
5 2 9 59.62 3.98
5 2 9 56.69 3.67
5 2 9 56.73 3.93
5 2 9 58.76 3.73
-5 -2 -9 57.75 3.91
-5 -2 -9 51.42 3.87
-5 -2 -9 56.22 3.94
5 3 9 6.34 0.98
5 3 9 5.91 1.11
5 3 9 6.46 0.95
-5 -3 -9 5.34 0.96
5 4 9 18.69 1.85
5 4 9 16.78 1.59
5 4 9 17.48 1.65
-5 -4 -9 20.44 1.6
5 5 9 10.78 1.27
5 6 9 1.48 0.77
6 -6 9 19.33 2.13
-6 6 -9 17.45 2.12
6 -5 9 24.83 2.5
-6 5 -9 24.4 2.32
6 -4 9 43.96 3.13
6 -4 9 40.92 3.35
-6 4 -9 41.67 3.17
-6 4 -9 42.61 3.37
6 -3 9 10.53 1.42
6 -3 9 9.44 1.46
-6 3 -9 12.61 1.53
-6 3 -9 11.62 1.61
6 -2 9 86.04 5.7
6 -2 9 85.33 5.3
6 -2 9 90.82 5.53
-6 2 -9 84.14 5.09
-6 2 -9 76.77 5.66
-6 2 -9 75.35 5.26
6 -1 9 103.24 6.15
6 -1 9 99.63 6.38
6 -1 9 102.83 6.6
-6 1 -9 95.19 5.79
-6 1 -9 95.02 6.09
-6 1 -9 95.1 6.54
6 0 9 30.68 2.31
6 0 9 29.86 2.48
6 0 9 28.91 2.27
-6 0 -9 31.76 2.53
-6 0 -9 31.05 2.4
-6 0 -9 30.04 2.26
-6 0 -9 29.95 2
6 1 9 97.2 6.29
6 1 9 89.66 5.97
6 1 9 94.33 6.37
6 1 9 101.14 6.02
-6 -1 -9 98.74 5.9
-6 -1 -9 100.66 6.39
-6 -1 -9 94.7 6.27
-6 -1 -9 97.38 5.54
6 2 9 75.37 5.24
6 2 9 79.96 5.33
6 2 9 75.31 4.95
6 2 9 75.57 4.95
-6 -2 -9 86.85 5.29
6 3 9 11.68 1.52
6 3 9 11.09 1.34
6 3 9 11.06 1.38
-6 -3 -9 10.29 1.31
6 4 9 39.63 2.74
6 4 9 40.93 3.05
-6 -4 -9 38.57 2.8
6 5 9 19.81 1.74
6 6 9 14.83 1.52
7 -6 9 1.52 1.28
-7 6 -9 2.95 1.35
7 -5 9 6.06 1.4
-7 5 -9 8.25 1.51
7 -4 9 10.84 1.46
7 -4 9 9.35 1.57
-7 4 -9 10.26 1.69
-7 4 -9 9.64 1.52
7 -3 9 36.33 2.83
7 -3 9 40.19 2.75
-7 3 -9 27.32 2.85
-7 3 -9 28.64 2.54
7 -2 9 6.65 1.28
7 -2 9 6.94 1.17
7 -2 9 7.89 1.3
-7 2 -9 5.91 1.3
-7 2 -9 8.76 1.18
-7 2 -9 7.84 1.24
7 -1 9 6.74 1.21
7 -1 9 6.78 1.27
7 -1 9 7.47 1.17
-7 1 -9 9.45 1.16
-7 1 -9 9.01 1.21
-7 1 -9 8.65 1.39
7 0 9 35.2 2.62
7 0 9 35.75 2.58
7 0 9 36.63 2.85
-7 0 -9 32.24 2.72
-7 0 -9 33 2.29
-7 0 -9 33.44 2.51
7 1 9 8.44 1.16
7 1 9 7.65 1.26
7 1 9 7.61 1.24
-7 -1 -9 7.09 1.23
-7 -1 -9 7.1 0.8
7 2 9 7.54 1.23
7 2 9 5.91 1.06
-7 -2 -9 6.56 1.13
7 3 9 26.43 2.37
-7 -3 -9 38 2.57
7 4 9 8.58 1.2
-7 -4 -9 8.76 1.13
7 5 9 7.12 1.11
7 6 9 1.93 0.88
8 -6 9 15.65 2.1
-8 6 -9 15.42 2.07
8 -5 9 1.26 1.21
-8 5 -9 0.46 1.18
8 -4 9 25.78 2.72
-8 4 -9 31.89 2.82
-8 4 -9 32.24 2.69
8 -3 9 16.24 2.15
-8 3 -9 21.45 2.17
-8 3 -9 20.32 2.04
8 -2 9 11.65 1.65
-8 2 -9 10.3 1.29
-8 2 -9 9.46 1.52
-8 2 -9 10.27 1.46
8 -1 9 0.71 0.93
8 -1 9 1.21 0.95
-8 1 -9 0.98 0.98
-8 1 -9 1.74 0.93
-8 1 -9 1.67 0.75
8 0 9 30.89 2.47
8 0 9 30.27 2.6
8 0 9 30.27 2.16
-8 0 -9 31.25 2.63
-8 0 -9 29.09 2.1
8 1 9 1.43 0.99
8 1 9 0.92 0.87
8 1 9 1.68 0.61
-8 -1 -9 0.95 0.93
8 2 9 10.37 1.44
8 2 9 8.73 1.31
-8 -2 -9 11.16 1.45
8 3 9 18.38 1.8
-8 -3 -9 17.95 1.8
8 4 9 27.66 2.18
-8 -4 -9 26.63 2.17
-8 -4 -9 25.57 2.17
8 5 9 0.85 0.85
8 6 9 13.93 1.57
9 -5 9 18.27 2.21
-9 5 -9 13.6 2
9 -4 9 10.73 1.78
-9 4 -9 15.18 1.9
-9 4 -9 16.11 2.14
9 -3 9 4.7 1.39
-9 3 -9 3.65 1.3
9 -2 9 27.56 2.68
-9 2 -9 26.92 2.66
9 -1 9 45.72 3.47
9 -1 9 46.64 3.18
9 -1 9 45.96 2.93
-9 1 -9 35.59 3.26
-9 1 -9 36.78 2.83
9 0 9 -0.21 0.68
9 0 9 -0.25 0.94
9 0 9 0.1 0.94
-9 0 -9 -0.53 0.97
-9 0 -9 0.04 0.7
9 1 9 38.81 2.92
9 1 9 36.39 2.54
9 1 9 35.71 3.12
-9 -1 -9 43.73 3.13
9 2 9 25.55 2.18
-9 -2 -9 24.41 2.25
9 3 9 2.73 1
-9 -3 -9 4.39 1.08
9 4 9 14.88 1.62
-9 -4 -9 13.14 1.58
-9 -4 -9 11.57 1.57
9 5 9 13.05 1.63
10 -5 9 0.84 1.31
10 -4 9 10.84 1.83
-10 4 -9 8.26 1.83
10 -3 9 18.72 2.27
-10 3 -9 15.34 2.19
10 -2 9 13.89 1.64
10 -2 9 11.7 1.9
-10 2 -9 16.16 2
10 -1 9 35.93 3.32
10 -1 9 37.18 2.82
-10 1 -9 40.14 3.26
-10 1 -9 43.25 2.84
10 0 9 12.76 1.71
10 0 9 16.84 2.1
10 0 9 16.48 1.64
-10 0 -9 15.52 1.98
-10 0 -9 16.25 1.54
10 1 9 43.44 3.1
10 1 9 43.3 3.37
-10 -1 -9 33.97 3.16
10 2 9 15.8 1.75
-10 -2 -9 12.18 1.72
10 3 9 16.18 1.84
-10 -3 -9 19.39 1.94
10 4 9 7.44 1.36
-10 -4 -9 10.38 1.37
10 5 9 0.96 1
11 -4 9 25.15 2.83
-11 4 -9 28.57 2.9
11 -3 9 3.94 1.4
-11 3 -9 3.49 1.57
11 -2 9 11.23 1.94
-11 2 -9 14.9 2.11
11 -1 9 4.77 1.14
11 -1 9 4.22 1.31
-11 1 -9 4.39 1.47
11 0 9 18.16 2.03
11 0 9 15.97 2.02
-11 0 -9 15.68 1.98
11 1 9 4.47 1.37
11 1 9 4.91 1.23
-11 -1 -9 2.86 1.22
11 2 9 16.07 1.76
-11 -2 -9 9.97 1.61
11 3 9 3.1 1.18
-11 -3 -9 4.01 1.22
-11 -3 -9 4.37 1.23
11 4 9 28.05 2.4
-11 -4 -9 23.96 2.36
12 -4 9 7.09 1.78
12 -3 9 16.58 2.36
-12 3 -9 19.52 2.45
12 -2 9 1.45 1.29
-12 2 -9 3.37 1.56
12 -1 9 30.29 2.55
12 -1 9 28.21 2.78
-12 1 -9 24.51 2.81
12 0 9 0.95 1.32
-12 0 -9 2.25 1.33
12 1 9 25.19 2.45
-12 -1 -9 23.75 2.5
12 2 9 1.41 1.21
-12 -2 -9 3.68 1.26
12 3 9 16.82 1.95
-12 -3 -9 15.79 2.02
-12 -3 -9 16.71 2.05
12 4 9 8.17 1.47
-12 -4 -9 5.57 1.34
13 -3 9 1.73 1.52
-13 3 -9 3.05 1.73
13 -2 9 36.49 3.45
-13 2 -9 34.38 3.33
13 -1 9 2.01 1.51
-13 1 -9 1.7 1.45
13 0 9 0.64 1.37
-13 0 -9 -0.18 1.27
13 1 9 1.36 1.28
-13 -1 -9 1.83 1.32
13 2 9 36.53 3.15
-13 -2 -9 38.99 3.27
-13 -2 -9 36.98 3.24
13 3 9 3.34 1.37
-13 -3 -9 1.74 1.23
-13 -3 -9 2.53 1.24
14 -2 9 2.64 1.6
-14 2 -9 1.24 1.62
14 -1 9 1.35 1.5
-14 1 -9 -0.12 1.45
-14 0 -9 6.77 1.76
-14 -1 -9 1.35 1.45
14 2 9 1.54 1.4
-14 -2 -9 1.34 1.42
-14 -2 -9 1.45 1.37
-15 -2 10 7.25 1.8
-15 -1 10 2.85 1.64
15 1 -10 4.14 1.54
-15 0 10 29.69 3.05
15 0 -10 31.3 3.04
-15 1 10 4.83 1.75
15 -1 -10 3.19 1.43
-15 2 10 8.77 2.07
15 -2 -10 6.25 1.67
-14 -3 10 5.72 1.66
14 3 -10 5.12 1.51
-14 -2 10 16.47 2.3
-14 -1 10 21.24 2.5
14 1 -10 24.37 2.67
-14 0 10 0.58 1.44
14 0 -10 0.11 1.25
-14 1 10 23.13 2.56
14 -1 -10 21.46 2.58
-14 2 10 16.22 2.42
14 -2 -10 16.48 2.25
14 -3 -10 5.57 1.62
-13 -4 10 2.17 1.32
13 4 -10 1.89 1.31
-13 -3 10 17.82 2.33
13 3 -10 24.99 2.38
-13 -2 10 1 1.32
13 2 -10 -0.1 1.18
-13 -1 10 38.1 3.37
13 1 -10 36.59 3.21
-13 0 10 6.79 1.69
13 0 -10 6.5 1.5
-13 1 10 38.36 3.49
13 -1 -10 40.17 3.36
-13 2 10 2.19 1.39
13 -2 -10 0.42 1.24
13 -3 -10 20.24 2.41
13 -4 -10 0.85 1.28
-12 -4 10 4.46 1.46
12 4 -10 8.57 1.53
-12 -3 10 3.98 1.31
12 3 -10 4.08 1.34
-12 -2 10 2.18 1.3
12 2 -10 2.42 1.19
12 2 -10 2.25 1.26
-12 -1 10 3.65 1.4
12 1 -10 3.64 1.21
-12 0 10 17.53 2.1
12 0 -10 16.23 2.02
-12 1 10 3.88 1.38
12 -1 -10 3.59 1.31
-12 2 10 1.8 1.29
12 -2 -10 1.27 1.22
-12 3 10 3.67 1.55
12 -3 -10 3.7 1.35
-12 4 10 6.05 1.62
12 -4 -10 5.16 1.44
-11 -5 10 6.61 1.45
11 5 -10 6.74 1.42
-11 -4 10 -0.02 1.15
11 4 -10 1.49 1.11
-11 -3 10 8.39 1.48
11 3 -10 6.34 1.35
-11 -2 10 3.48 1.27
11 2 -10 2.87 1.12
11 2 -10 1.64 1.15
-11 -1 10 15.86 2.16
11 1 -10 23.28 2.11
11 1 -10 20.22 2.1
-11 0 10 13.94 1.84
11 0 -10 13.38 1.8
-11 1 10 20.23 2.18
11 -1 -10 17.04 2.02
-11 2 10 3.04 1.23
-11 2 10 1.74 1.19
11 -2 -10 4.04 1.19
-11 3 10 5.4 1.45
-11 3 10 7.23 1.45
11 -3 -10 7.32 1.45
-11 4 10 1.64 1.27
11 -4 -10 1.07 1.09
-11 5 10 7.71 1.65
11 -5 -10 7.35 1.55
-10 -5 10 1.3 1.18
10 5 -10 -0.24 0.99
-10 -4 10 8.37 1.47
10 4 -10 5.25 1.29
-10 -3 10 8.09 1.5
10 3 -10 11.57 1.51
-10 -2 10 5.05 1.29
10 2 -10 5.49 1.2
10 2 -10 6.55 1.33
10 1 -10 16.99 1.96
10 1 -10 15.32 1.69
-10 0 10 22.28 2.22
10 0 -10 21.69 2.22
10 0 -10 22.54 2.1
10 0 -10 20.86 1.92
10 -1 -10 8.33 1.39
10 -1 -10 10.09 1.39
-10 2 10 5.5 1.44
-10 2 10 5.58 1.26
10 -2 -10 4.67 1.18
10 -2 -10 6.12 1.23
-10 3 10 12.75 1.61
-10 3 10 13.53 1.83
10 -3 -10 8.48 1.52
-10 4 10 7.79 1.51
10 -4 -10 9.01 1.51
-10 5 10 0.2 1.15
10 -5 -10 1.26 1.15
-9 -6 10 3.8 1.23
9 6 -10 5.26 1.31
-9 -5 10 5.66 1.33
9 5 -10 5.63 1.24
-9 -4 10 13.82 1.83
9 4 -10 18.25 1.85
9 4 -10 17.96 1.91
-9 -3 10 3.62 1.17
9 3 -10 4.92 1.16
9 3 -10 4.22 1.2
9 3 -10 7.34 1.28
-9 -2 10 2.65 1.07
9 2 -10 1.22 0.93
9 2 -10 0.99 0.92
9 2 -10 1.41 0.98
-9 -1 10 28.43 2.53
9 1 -10 27.12 2.34
9 1 -10 26.85 2.47
9 1 -10 26.39 2.3
-9 0 10 77.43 5.32
-9 0 10 78.41 5.01
9 0 -10 73.04 5.31
9 0 -10 80.14 5.01
9 0 -10 74.57 4.84
9 0 -10 76.99 5.18
-9 1 10 27.9 2.55
-9 1 10 26.66 2.43
9 -1 -10 29.99 2.32
9 -1 -10 29.63 2.51
9 -1 -10 32.05 2.55
-9 2 10 1.74 1.18
-9 2 10 0.9 0.98
9 -2 -10 2.9 0.97
9 -2 -10 2.41 0.97
9 -2 -10 2.85 1.04
-9 3 10 6 1.42
-9 3 10 4.78 1.19
9 -3 -10 3.98 1.15
9 -3 -10 4 1.08
9 -3 -10 2.99 1.05
-9 4 10 17.27 1.98
9 -4 -10 13.99 1.8
9 -4 -10 13.24 1.78
-9 5 10 5.47 1.43
9 -5 -10 6.75 1.38
-9 6 10 4.33 1.42
9 -6 -10 4.54 1.25
-8 -6 10 3.14 1.13
8 6 -10 2.72 1.13
-8 -5 10 2.76 1.14
8 5 -10 1.47 1.01
-8 -4 10 1.58 1.07
8 4 -10 1.66 0.93
8 4 -10 1.55 0.93
-8 -3 10 52.75 3.8
8 3 -10 50.93 3.82
8 3 -10 51.49 3.71
8 3 -10 50.1 3.59
-8 -2 10 24.51 2.44
8 2 -10 31.13 2.58
8 2 -10 31.38 2.45
8 2 -10 29.6 2.29
-8 -1 10 6.65 1.19
-8 -1 10 5.51 1.27
-8 -1 10 6.69 1.19
8 1 -10 11.76 1.4
8 1 -10 12.11 1.5
8 1 -10 9.49 1.35
-8 0 10 49.14 3.61
-8 0 10 47.42 3.34
8 0 -10 46.12 3.19
8 0 -10 47.07 3.47
8 0 -10 44.73 3.48
8 0 -10 49.37 3.32
-8 1 10 9.39 1.22
-8 1 10 11.47 1.51
8 -1 -10 6.79 1.11
8 -1 -10 7.1 1.18
8 -1 -10 6.99 1.12
8 -1 -10 5.85 1.17
-8 2 10 28.76 2.59
-8 2 10 30.17 2.39
8 -2 -10 28.49 2.42
8 -2 -10 28.08 2.35
8 -2 -10 27.76 2.24
-8 3 10 49.6 3.6
-8 3 10 51.48 3.91
8 -3 -10 52.04 3.82
8 -3 -10 52.49 3.73
8 -3 -10 54.11 3.53
-8 4 10 1.25 1.09
8 -4 -10 0.81 1
8 -4 -10 1.2 0.91
8 -4 -10 1.43 0.93
-8 5 10 2.21 1.12
8 -5 -10 1.1 1.03
-8 6 10 2.97 1.28
8 -6 -10 2.65 1.13
-7 -6 10 6.65 1.28
7 6 -10 7.15 1.32
-7 -5 10 13.92 1.73
7 5 -10 13.1 1.67
-7 -4 10 5.63 1.23
7 4 -10 7.68 1.2
7 4 -10 9.43 1.25
-7 -3 10 13.75 1.74
7 3 -10 15.6 1.61
7 3 -10 16.75 1.69
7 3 -10 15.8 1.8
-7 -2 10 79.9 5.8
7 2 -10 85.41 5.45
7 2 -10 90.56 5.85
7 2 -10 90.05 5.7
-7 -1 10 2.98 0.92
-7 -1 10 2.43 0.9
-7 -1 10 2.37 1.01
7 1 -10 5.26 1
7 1 -10 4.59 0.94
7 1 -10 3.87 1.05
7 1 -10 5.38 0.98
-7 0 10 30.03 2.37
-7 0 10 29.91 2.5
7 0 -10 29.03 2.38
7 0 -10 31.18 2.23
7 0 -10 29.5 2.32
7 0 -10 32.58 2.51
-7 1 10 4.03 0.95
-7 1 10 4.27 1.12
-7 1 10 4.69 0.98
7 -1 -10 2.62 0.89
7 -1 -10 3.21 0.85
7 -1 -10 1.67 0.79
7 -1 -10 2.32 0.95
-7 2 10 84.04 5.74
-7 2 10 84.06 5.31
7 -2 -10 85.46 5.68
7 -2 -10 84.71 5.55
7 -2 -10 82.08 5.15
-7 3 10 17.31 1.65
-7 3 10 17.37 1.87
7 -3 -10 12.31 1.53
7 -3 -10 11.08 1.43
7 -3 -10 11.59 1.61
-7 4 10 9.3 1.3
7 -4 -10 7.83 1.25
7 -4 -10 6.82 1.27
7 -4 -10 6.2 1.17
-7 5 10 11.34 1.6
7 -5 -10 14.36 1.68
7 -5 -10 15.06 1.76
-7 6 10 7.05 1.38
7 -6 -10 5.34 1.2
-6 -6 10 5.85 1.2
6 6 -10 6.25 1.24
-6 -5 10 49.95 3.55
6 5 -10 43.88 3.27
-6 -4 10 3.91 1.06
6 4 -10 2.55 0.86
6 4 -10 1.85 0.89
-6 -3 10 37.87 3.24
6 3 -10 46.51 3.11
6 3 -10 47.58 3.34
6 3 -10 44.37 3.18
-6 -2 10 48.7 3.11
-6 -2 10 48.34 3.32
6 2 -10 42.79 3.13
6 2 -10 43.78 3.28
6 2 -10 40.47 3.06
6 2 -10 43.86 3.22
-6 -1 10 62.05 4.09
6 1 -10 57.34 3.82
6 1 -10 55.8 3.78
6 1 -10 55.95 3.94
6 1 -10 55.95 4.01
-6 0 10 27.66 2.28
-6 0 10 27.08 2.09
6 0 -10 27.81 2.34
6 0 -10 26.93 2.22
6 0 -10 26.32 2.06
-6 1 10 58.5 4.26
-6 1 10 58.45 4.04
-6 1 10 57.04 4
6 -1 -10 65.97 3.98
6 -1 -10 64.41 4.27
6 -1 -10 62.3 4.15
6 -1 -10 61.04 3.83
-6 2 10 41.77 3.32
-6 2 10 42.45 3.09
-6 2 10 43.1 3.2
6 -2 -10 49.95 3.3
6 -2 -10 45.74 3.32
6 -2 -10 47.29 3.02
6 -2 -10 47.46 3.06
-6 3 10 42.1 3.14
-6 3 10 43.63 2.91
6 -3 -10 37.27 2.74
6 -3 -10 39.21 3.04
6 -3 -10 40.02 2.99
-6 4 10 2.84 0.97
6 -4 -10 3.22 0.94
6 -4 -10 4.33 1.01
6 -4 -10 3.76 0.95
-6 5 10 41.96 3.34
6 -5 -10 53.14 3.37
6 -5 -10 50.3 3.51
-6 6 10 6.15 1.32
6 -6 -10 5.54 1.07
5 7 -10 2.19 1.12
-5 -6 10 11.09 1.48
5 6 -10 14.31 1.65
-5 -5 10 14.25 1.73
5 5 -10 15.68 1.61
-5 -4 10 19.67 1.84
5 4 -10 16.88 1.69
5 4 -10 17.89 1.68
-5 -3 10 75.42 4.58
5 3 -10 61.31 4.49
5 3 -10 61.97 4.22
5 3 -10 62.98 4.35
-5 -2 10 26.61 2.2
-5 -2 10 25.65 2.32
5 2 -10 27.5 2.26
5 2 -10 29.02 2.16
5 2 -10 29.66 2.16
5 2 -10 27.65 2.22
-5 -1 10 15.94 1.56
-5 -1 10 16.17 1.51
5 1 -10 13.96 1.48
5 1 -10 13.86 1.43
5 1 -10 13.93 1.38
5 1 -10 12.26 1.47
-5 0 10 14.61 1.7
-5 0 10 17.27 1.65
-5 0 10 17.92 1.61
5 0 -10 15.76 1.55
5 0 -10 17.27 1.72
5 0 -10 17.53 1.56
-5 1 10 16.24 1.52
-5 1 10 14.9 1.6
-5 1 10 15.14 1.56
5 -1 -10 17.12 1.48
5 -1 -10 16.32 1.53
5 -1 -10 14.85 1.36
5 -1 -10 15.85 1.65
-5 2 10 26.39 2.11
-5 2 10 28.62 2.33
-5 2 10 27.91 2.18
5 -2 -10 24.83 1.93
5 -2 -10 27.6 2.02
5 -2 -10 27.25 2.19
5 -2 -10 27.15 2.19
-5 3 10 59.5 4.38
-5 3 10 63.55 4.72
5 -3 -10 75.45 4.72
5 -3 -10 72.75 4.25
5 -3 -10 73.48 4.62
-5 4 10 18.58 1.78
5 -4 -10 21.86 1.75
5 -4 -10 21.63 1.92
5 -4 -10 20.06 1.85
-5 5 10 13.1 1.59
5 -5 -10 15.17 1.54
-5 6 10 13.56 1.6
5 -6 -10 11.3 1.41
-5 7 10 3.56 1.18
-4 -7 10 10.66 1.33
4 7 -10 10.32 1.53
-4 -6 10 7.25 1.21
4 6 -10 4.02 1.13
-4 -5 10 13.07 1.63
4 5 -10 11.21 1.46
-4 -4 10 7.89 1.27
4 4 -10 8.81 1.16
4 4 -10 8.51 1.26
4 4 -10 8.42 1.17
-4 -3 10 4.29 1.02
4 3 -10 3.54 0.88
4 3 -10 3.92 0.87
4 3 -10 3.72 0.94
-4 -2 10 5.34 1.04
-4 -2 10 4.57 0.86
4 2 -10 4.37 0.84
4 2 -10 4.42 0.84
4 2 -10 3.3 0.86
4 2 -10 3.3 0.83
-4 -1 10 13.86 1.32
-4 -1 10 13.04 1.46
4 1 -10 12.98 1.45
4 1 -10 13 1.39
4 1 -10 14 1.44
4 1 -10 12.9 1.29
-4 0 10 48.36 3.45
-4 0 10 48.54 3.29
-4 0 10 48.34 3.25
-4 0 10 47.58 3.26
4 0 -10 48.44 3.22
4 0 -10 49.22 3.38
4 0 -10 49.84 3.48
-4 1 10 13.97 1.39
-4 1 10 10.82 1.47
-4 1 10 15.08 1.49
4 -1 -10 11.92 1.36
4 -1 -10 12.93 1.16
4 -1 -10 11.3 1.26
4 -1 -10 12.65 1.37
-4 2 10 3.96 0.91
-4 2 10 2.96 0.83
-4 2 10 3.53 0.9
4 -2 -10 5.58 0.81
4 -2 -10 5.01 0.77
4 -2 -10 5.43 0.93
4 -2 -10 4.9 0.93
-4 3 10 5.67 1.05
-4 3 10 4.18 0.96
-4 3 10 3.53 0.9
4 -3 -10 3.46 0.73
4 -3 -10 2.75 0.85
4 -3 -10 3.7 0.91
-4 4 10 7.55 1.15
4 -4 -10 10.19 1.29
4 -4 -10 10.14 1.31
4 -4 -10 10.1 1.16
-4 5 10 10.84 1.39
4 -5 -10 12.16 1.34
-4 6 10 5.12 1.13
4 -6 -10 7.17 0.97
-4 7 10 9.96 1.4
-3 -7 10 3.71 1.03
3 7 -10 4.67 1.21
-3 -6 10 18.42 1.87
3 6 -10 16.64 1.83
-3 -5 10 52.41 3.7
3 5 -10 49.41 3.5
-3 -4 10 22.54 2.22
3 4 -10 25.48 2.05
3 4 -10 25 2.05
3 4 -10 27.41 2.25
-3 -3 10 12.7 1.28
-3 -3 10 13.12 1.42
3 3 -10 7.77 1.13
3 3 -10 8.63 1.17
3 3 -10 9.08 1.19
3 3 -10 8.82 1.25
3 3 -10 9.7 1.22
-3 -2 10 22.84 2.02
3 2 -10 25.14 1.99
3 2 -10 23.71 1.93
3 2 -10 24.48 1.87
3 2 -10 22.43 1.97
-3 -1 10 116.21 6.99
-3 -1 10 120.18 6.55
-3 -1 10 118.14 6.8
3 1 -10 95.25 6.47
3 1 -10 105.99 6.54
3 1 -10 94.99 6.71
3 1 -10 99.31 6.89
-3 0 10 34.86 2.44
-3 0 10 31.52 2.31
-3 0 10 35.51 2.61
3 0 -10 30.39 2.41
3 0 -10 33.88 2.52
3 0 -10 33.36 2.35
-3 1 10 103.6 6.56
-3 1 10 97.44 6.51
-3 1 10 96.6 6.94
-3 1 10 95.67 6.77
3 -1 -10 116.82 6.25
3 -1 -10 119.52 6.53
3 -1 -10 119.03 6.98
3 -1 -10 111.03 6.8
-3 2 10 23.85 1.96
-3 2 10 24.91 1.96
-3 2 10 25.32 1.92
-3 2 10 26.37 1.93
3 -2 -10 21.98 1.94
3 -2 -10 22.12 1.63
3 -2 -10 21.36 1.9
3 -2 -10 21.28 1.74
-3 3 10 9.04 1.22
-3 3 10 8.7 1.25
-3 3 10 8.89 1.2
3 -3 -10 11.49 1.33
3 -3 -10 12.22 1.05
3 -3 -10 12.13 1.32
-3 4 10 25.2 1.87
3 -4 -10 21.09 1.88
3 -4 -10 23.26 1.68
3 -4 -10 21.63 1.91
-3 5 10 47.57 3.33
3 -5 -10 51.56 3.42
-3 6 10 18.56 1.76
3 -6 -10 19.04 1.51
-3 7 10 3.91 1.08
-2 -7 10 13.56 1.68
2 7 -10 13.17 1.7
-2 -6 10 16.13 1.85
2 6 -10 17.2 1.75
-2 -5 10 30.01 2.46
2 5 -10 27.49 2.29
-2 -4 10 12.65 1.55
2 4 -10 7.69 1.25
2 4 -10 8.13 1.19
2 4 -10 8.27 1.1
-2 -3 10 32.55 2.79
-2 -3 10 36.12 2.6
2 3 -10 38.03 2.68
2 3 -10 38.55 2.68
2 3 -10 38.97 2.86
2 3 -10 37.2 2.64
-2 -2 10 56.16 3.9
-2 -2 10 58.35 3.74
-2 -2 10 59.17 3.61
2 2 -10 53.78 3.73
2 2 -10 54.31 3.61
2 2 -10 49.77 3.79
2 2 -10 54.26 3.67
2 2 -10 56.98 3.66
-2 -1 10 123.38 7.71
-2 -1 10 123.61 8.23
-2 -1 10 125.38 8.01
2 1 -10 133.32 8.23
2 1 -10 131.48 7.73
2 1 -10 132.17 7.74
2 1 -10 128.3 8.01
-2 0 10 35.2 2.41
-2 0 10 34.78 2.61
-2 0 10 35.18 2.44
2 0 -10 32.36 2.36
2 0 -10 34.69 2.5
2 0 -10 29.77 2.47
-2 1 10 132.13 7.56
-2 1 10 129.46 7.86
-2 1 10 126.35 7.52
-2 1 10 130.76 7.54
-2 1 10 129.61 8.03
2 -1 -10 119.81 7.96
2 -1 -10 104.97 7.12
2 -1 -10 128.85 7.86
2 -1 -10 125.89 7.49
-2 2 10 53.91 3.6
-2 2 10 54.05 3.81
-2 2 10 55.17 3.77
-2 2 10 49.19 3.51
2 -2 -10 56.8 3.74
2 -2 -10 56.36 3.44
2 -2 -10 54.69 3.74
2 -2 -10 58.75 3.81
-2 3 10 38.74 2.68
-2 3 10 35.7 2.51
-2 3 10 35.64 2.5
-2 3 10 37.02 2.68
2 -3 -10 35.19 2.66
2 -3 -10 32.95 2.59
2 -3 -10 33.16 2.6
-2 4 10 8.03 1.16
-2 4 10 7.39 1.12
2 -4 -10 13.05 1.02
2 -4 -10 12.49 1.3
2 -4 -10 11.71 1.29
-2 5 10 27.29 2.14
2 -5 -10 28.58 2.11
-2 6 10 16.44 1.6
-2 7 10 12.44 1.5
-1 -7 10 2.72 1.07
1 7 -10 2.78 1.13
-1 -6 10 6.81 1.22
1 6 -10 3.62 1.13
-1 -5 10 22.6 2.1
1 5 -10 20.74 1.93
-1 -4 10 50.59 3.66
1 4 -10 51.86 3.48
1 4 -10 50.87 3.47
1 4 -10 50.03 3.69
-1 -3 10 14.25 1.52
-1 -3 10 13.32 1.47
-1 -3 10 13.46 1.64
1 3 -10 16.15 1.69
1 3 -10 16.08 1.49
1 3 -10 17.12 1.6
1 3 -10 16.74 1.54
-1 -2 10 47.55 3.88
-1 -2 10 52.82 3.77
-1 -2 10 50.73 3.6
1 2 -10 61.94 3.71
1 2 -10 59.15 3.8
1 2 -10 61.26 3.71
1 2 -10 61.03 3.97
-1 -1 10 55.22 3.72
-1 -1 10 54.27 3.61
1 1 -10 49.05 3.43
1 1 -10 51.13 3.6
1 1 -10 51.96 3.72
1 1 -10 55.92 3.51
1 1 -10 54.25 3.52
-1 0 10 143.32 8.39
-1 0 10 139.31 8.37
-1 0 10 140.41 8.93
1 0 -10 144.68 8.37
1 0 -10 135.96 8.89
1 0 -10 136.45 8.69
-1 1 10 51.25 3.41
-1 1 10 54.08 3.46
-1 1 10 51 3.63
-1 1 10 49.92 3.57
1 -1 -10 53.71 3.64
1 -1 -10 52.51 3.56
1 -1 -10 55.39 3.38
-1 2 10 59.17 3.59
-1 2 10 56.78 3.84
-1 2 10 56.64 3.58
-1 2 10 58.76 3.61
-1 2 10 62.92 3.83
1 -2 -10 49.85 3.75
1 -2 -10 51.69 3.24
1 -2 -10 50.27 3.72
1 -2 -10 54.89 3.81
-1 3 10 17.21 1.56
-1 3 10 16.26 1.44
-1 3 10 16.51 1.59
-1 3 10 15.13 1.34
1 -3 -10 13.3 1.42
1 -3 -10 13.8 1.44
1 -3 -10 14.51 1.5
1 -3 -10 12.18 1.02
-1 4 10 53.99 3.32
-1 4 10 47.56 3.25
-1 4 10 50.95 3.51
1 -4 -10 47.84 3.36
1 -4 -10 47.22 3.41
-1 5 10 21.04 1.78
1 -5 -10 23.49 1.94
1 -5 -10 21.32 1.69
-1 6 10 3.37 0.88
-1 7 10 2.58 0.9
0 -7 10 4.35 1.16
0 7 -10 5.1 1.27
0 -6 10 1.56 1.01
0 6 -10 0.6 0.96
0 -5 10 47.4 3.79
0 5 -10 57.71 3.64
0 -4 10 21.06 2.03
0 -4 10 21.91 1.9
0 4 -10 22.13 2.07
0 4 -10 22.5 1.92
0 4 -10 21.04 1.84
0 -3 10 27.99 2.16
0 -3 10 30.13 2.22
0 -3 10 29.11 2.37
0 3 -10 28.41 2.19
0 3 -10 26.27 2.36
0 3 -10 28 2.2
0 3 -10 27.38 2.22
0 -2 10 14.99 1.42
0 -2 10 13.34 1.61
0 -2 10 13.79 1.44
0 2 -10 16.81 1.48
0 2 -10 14.92 1.5
0 2 -10 14.04 1.35
0 2 -10 12.97 1.47
0 -1 10 26.11 2.24
0 -1 10 28.86 2.42
0 1 -10 31.44 2.28
0 1 -10 33.75 2.25
0 1 -10 32.08 2.23
0 1 -10 30.95 2.25
0 1 -10 30.39 2.36
0 0 10 0.14 0.64
0 0 10 0.56 0.66
0 0 10 -0.29 0.7
0 0 -10 0.42 0.65
0 0 -10 0.5 0.58
0 0 -10 0.69 0.61
0 1 10 28.38 2.16
0 1 10 31.99 2.35
0 1 10 31.58 2.24
0 1 10 32.24 2.4
0 -1 -10 29.19 2.29
0 -1 -10 30.28 2.15
0 -1 -10 28.65 2.33
0 2 10 15.45 1.51
0 2 10 15.2 1.53
0 2 10 14.91 1.46
0 2 10 13.33 1.33
0 -2 -10 14.27 1.55
0 -2 -10 14.15 0.95
0 -2 -10 13.38 1.43
0 -2 -10 13.73 1.41
0 3 10 27.01 2.2
0 3 10 28.37 2.06
0 3 10 27.34 2.06
0 3 10 26.88 2.23
0 3 10 27.05 2.04
0 -3 -10 28.31 2.17
0 -3 -10 28.12 2.14
0 -3 -10 27.1 2.17
0 4 10 21.74 1.88
0 4 10 20.89 1.76
0 4 10 18.82 1.61
0 -4 -10 20 1.68
0 -4 -10 20.29 1.81
0 5 10 53.38 3.31
0 -5 -10 49.81 3.29
0 -5 -10 47.99 3.52
0 6 10 0.1 0.72
0 7 10 5.22 0.99
1 -7 10 -0.54 0.98
-1 7 -10 -0.51 1.07
1 -6 10 8.52 1.39
-1 6 -10 10.37 1.51
1 -5 10 0.4 0.96
-1 5 -10 0.63 0.88
1 -4 10 26.21 2.09
1 -4 10 27.77 2.29
-1 4 -10 25.19 2.04
-1 4 -10 23.84 2.24
-1 4 -10 23.02 2.1
1 -3 10 11.02 1.46
1 -3 10 11.45 1.26
1 -3 10 10.99 1.32
-1 3 -10 8.88 1.19
-1 3 -10 8.47 1.31
-1 3 -10 8.78 1.22
-1 3 -10 9.48 1.21
1 -2 10 138.84 8.92
1 -2 10 134.08 9.15
1 -2 10 137.71 8.6
-1 2 -10 153.68 8.95
-1 2 -10 149.99 8.66
-1 2 -10 144.68 8.62
-1 2 -10 146.2 9.19
1 -1 10 0.36 0.63
1 -1 10 0.18 0.59
1 -1 10 0.43 0.79
-1 1 -10 1.27 0.62
-1 1 -10 0.48 0.6
-1 1 -10 0.57 0.69
-1 1 -10 0.38 0.64
1 0 10 1.36 0.73
1 0 10 2.84 0.82
1 0 10 2.46 0.75
-1 0 -10 2.26 0.71
-1 0 -10 2.18 0.69
-1 0 -10 2.05 0.8
1 1 10 0.41 0.73
1 1 10 0.6 0.73
1 1 10 0.76 0.66
1 1 10 0.75 0.67
-1 -1 -10 -0.07 0.51
-1 -1 -10 -0.3 0.63
-1 -1 -10 -0.05 0.64
1 2 10 139.05 8.76
1 2 10 152.59 8.44
1 2 10 141.49 8.39
1 2 10 144.25 8.92
-1 -2 -10 138.68 8.89
-1 -2 -10 132.72 8.74
-1 -2 -10 134.83 8.88
1 3 10 7.58 1.16
1 3 10 6.91 0.99
1 3 10 7.92 1.11
1 3 10 8.2 1.08
-1 -3 -10 10.87 1.23
-1 -3 -10 10.76 1.19
-1 -3 -10 10.55 1.26
1 4 10 24.66 1.93
1 4 10 23.01 1.92
1 4 10 24.9 1.94
1 4 10 23.14 2.08
-1 -4 -10 26.69 1.96
-1 -4 -10 28.59 2.15
1 5 10 -0.11 0.74
1 5 10 -0.08 0.67
-1 -5 -10 0.11 0.8
1 6 10 10.97 1.23
1 7 10 0.63 0.79
2 -7 10 2.76 1.14
-2 7 -10 0.97 1.18
2 -6 10 -0.15 0.97
-2 6 -10 -0.14 0.98
2 -5 10 6.44 1.3
-2 5 -10 7.59 1.28
2 -4 10 66.14 4.51
2 -4 10 67.85 4.28
-2 4 -10 59.03 4.49
-2 4 -10 60.51 4.24
-2 4 -10 65.21 4.25
2 -3 10 5.01 0.99
2 -3 10 5.39 1.15
2 -3 10 7.17 1.05
-2 3 -10 6.72 1.09
-2 3 -10 5.88 1.1
-2 3 -10 8.07 1.14
-2 3 -10 7.16 1.03
2 -2 10 29.2 2.03
2 -2 10 30.15 2.11
2 -2 10 27.96 2.17
-2 2 -10 22.01 1.99
-2 2 -10 21.99 2.16
-2 2 -10 23.36 2.02
-2 2 -10 22.57 2.06
-2 2 -10 23.03 1.92
2 -1 10 81.76 4.85
2 -1 10 76.72 5.04
2 -1 10 76.29 5.15
-2 1 -10 79.02 4.83
-2 1 -10 75.08 5
-2 1 -10 72.77 4.55
-2 1 -10 76.23 5.14
2 0 10 69.3 4.79
2 0 10 72.01 4.49
2 0 10 71.22 4.49
-2 0 -10 71.65 4.15
-2 0 -10 71.78 4.8
-2 0 -10 68.85 4.66
-2 0 -10 72.37 4.46
2 1 10 78.03 4.76
2 1 10 69.81 4.99
2 1 10 71.94 4.69
2 1 10 76.1 4.98
-2 -1 -10 75.67 4.27
-2 -1 -10 77.68 4.66
-2 -1 -10 74.85 4.93
-2 -1 -10 78.37 5.03
2 2 10 23.92 1.98
2 2 10 23.33 1.9
2 2 10 23.44 2.03
2 2 10 22.09 2.05
-2 -2 -10 27.59 2.05
-2 -2 -10 26.18 2.01
-2 -2 -10 28.2 2.06
2 3 10 6.93 1.1
2 3 10 7.59 1.07
2 3 10 5.89 0.91
2 3 10 6.58 0.98
-2 -3 -10 7.27 0.98
-2 -3 -10 5.88 1.04
-2 -3 -10 5.76 0.93
2 4 10 56.88 3.85
2 4 10 59.76 4.13
2 4 10 61.91 3.92
-2 -4 -10 61.21 4
-2 -4 -10 63.85 4.15
2 5 10 5.89 0.93
-2 -5 -10 6.56 1.14
2 6 10 0.52 0.74
2 7 10 1.54 0.81
3 -7 10 3.43 1.27
-3 7 -10 2.98 1.29
3 -6 10 3.79 1.21
-3 6 -10 3.31 1.23
3 -5 10 45.72 3.39
-3 5 -10 41.48 3.2
3 -4 10 21.1 2.14
3 -4 10 21.91 1.93
-3 4 -10 20.48 2.16
-3 4 -10 22.26 1.92
-3 4 -10 22.06 2
3 -3 10 2.64 1.03
3 -3 10 2.93 0.87
-3 3 -10 2.61 0.91
-3 3 -10 2.98 0.84
-3 3 -10 2.59 0.96
-3 3 -10 2.12 0.91
3 -2 10 0.71 0.75
3 -2 10 1.02 0.8
3 -2 10 1.67 0.87
-3 2 -10 2.55 0.93
-3 2 -10 2.74 0.85
-3 2 -10 2.75 0.82
-3 2 -10 2.86 0.85
-3 2 -10 3.09 0.77
3 -1 10 62.98 3.85
-3 1 -10 49.85 3.62
-3 1 -10 51.68 3.48
-3 1 -10 51.06 3.24
-3 1 -10 48.26 3.68
3 0 10 0.2 0.71
3 0 10 0.04 0.69
3 0 10 0.77 0.71
-3 0 -10 0.91 0.77
-3 0 -10 0.11 0.64
-3 0 -10 0 0.61
-3 0 -10 0.25 0.46
3 1 10 48.51 3.61
3 1 10 49.16 3.83
3 1 10 51.56 3.66
3 1 10 48.77 3.88
-3 -1 -10 63.48 3.22
-3 -1 -10 60.43 3.91
-3 -1 -10 63.3 3.6
-3 -1 -10 61.25 3.87
3 2 10 2.8 0.79
3 2 10 2.16 0.83
3 2 10 2.74 0.81
3 2 10 3.79 0.89
-3 -2 -10 1.41 0.72
-3 -2 -10 1.73 0.81
-3 -2 -10 1.47 0.78
3 3 10 2.74 0.79
3 3 10 3.22 0.83
3 3 10 2.97 0.84
3 3 10 2.11 0.93
-3 -3 -10 3.44 0.92
-3 -3 -10 3.1 0.78
3 4 10 22.55 1.83
3 4 10 20.46 1.77
3 4 10 22.54 2.05
-3 -4 -10 22.36 1.81
-3 -4 -10 23.68 2.02
3 5 10 41.2 2.79
3 6 10 3.87 0.86
3 7 10 2.93 0.85
4 -6 10 19.18 2.21
-4 6 -10 21.55 2.16
4 -5 10 4.12 1.26
-4 5 -10 3.88 1.15
-4 4 -10 19.01 1.91
-4 4 -10 20.1 1.77
-4 4 -10 18.3 2.08
4 -3 10 5.23 1.02
4 -3 10 3.14 1.03
-4 3 -10 4.98 1.17
-4 3 -10 3.37 0.98
-4 3 -10 4.15 1
-4 3 -10 1.7 0.85
4 -2 10 168.74 10.31
4 -2 10 170.75 11.02
4 -2 10 176.56 10.72
-4 2 -10 177.21 9.96
-4 2 -10 170.68 11.01
-4 2 -10 176.43 10.71
-4 2 -10 166.18 10.32
4 -1 10 6.78 1.07
4 -1 10 5.42 1.02
4 -1 10 6.08 1.15
-4 1 -10 7.67 1.18
-4 1 -10 7.15 1.01
-4 1 -10 7.44 0.91
-4 1 -10 7.37 1.08
4 0 10 2.78 0.94
4 0 10 2.51 0.78
4 0 10 2.07 0.81
-4 0 -10 2.1 0.9
-4 0 -10 1.6 0.72
-4 0 -10 2.54 0.56
-4 0 -10 2.05 0.83
4 1 10 6.5 1
4 1 10 6.76 1.02
4 1 10 6.95 1.08
4 1 10 6.2 1.08
-4 -1 -10 6.32 0.91
-4 -1 -10 6.35 1.02
-4 -1 -10 5.81 1.03
-4 -1 -10 6.18 0.63
4 2 10 166.11 9.91
4 2 10 163.94 10.52
4 2 10 167.85 9.91
4 2 10 170.97 10.39
-4 -2 -10 167.92 10.37
-4 -2 -10 165.56 10.49
-4 -2 -10 162.01 10.48
4 3 10 3.57 1.01
4 3 10 2.86 0.84
4 3 10 4.44 0.88
-4 -3 -10 3.93 0.89
-4 -3 -10 4.64 1.04
4 4 10 18.11 1.63
4 4 10 16.84 1.91
4 4 10 19.53 1.69
4 5 10 3.34 0.85
4 6 10 20.03 1.74
5 -6 10 1.85 1.24
-5 6 -10 2.51 1.27
-5 5 -10 41.56 3.23
5 -4 10 29.68 2.7
5 -4 10 33.39 2.52
-5 4 -10 30.67 2.77
-5 4 -10 28.59 2.53
5 -3 10 20.97 2.23
-5 3 -10 27.3 2.53
-5 3 -10 31.36 2.37
-5 3 -10 30.88 2.31
5 -2 10 4.67 1.06
5 -2 10 4.71 1.23
5 -2 10 5.63 1.13
-5 2 -10 6.67 1.02
-5 2 -10 6.66 1.08
-5 2 -10 6.72 1.15
-5 2 -10 7.5 1.3
5 -1 10 204.39 12.25
5 -1 10 208.17 11.96
5 -1 10 206.01 11.52
-5 1 -10 184.38 10.96
-5 1 -10 184.2 11.9
-5 1 -10 178.43 11.43
-5 1 -10 182.73 12.19
5 0 10 0.65 0.77
5 0 10 -0.5 0.73
5 0 10 -0.01 0.85
-5 0 -10 0.17 0.49
-5 0 -10 0.66 0.83
-5 0 -10 -0.28 0.66
-5 0 -10 0.17 0.7
5 1 10 178.15 12.1
5 1 10 178.91 11.85
5 1 10 187.59 11.4
5 1 10 180.51 11.39
-5 -1 -10 203.54 11.33
-5 -1 -10 200.75 12.11
-5 -1 -10 197.25 10.73
-5 -1 -10 206.04 11.93
5 2 10 6.43 1.07
5 2 10 5.88 1.09
5 2 10 6.14 1.17
5 2 10 6.14 1
-5 -2 -10 5.39 1.11
-5 -2 -10 4.81 1.04
-5 -3 -10 18.09 1.72
-5 -3 -10 19.25 1.81
5 4 10 26.21 2.09
5 4 10 28.16 2.4
-5 -4 -10 28.2 2.13
5 5 10 36.2 2.58
5 6 10 3.24 0.91
6 -6 10 4.2 1.42
-6 6 -10 6.61 1.55
6 -5 10 8.59 1.55
-6 5 -10 10.54 1.63
6 -4 10 19.62 1.94
6 -4 10 17.74 2.12
-6 4 -10 20.57 2.07
-6 4 -10 19.27 2.14
6 -3 10 20.42 1.93
6 -3 10 19.95 2.1
-6 3 -10 15.39 1.85
-6 3 -10 16.13 2.07
6 -2 10 37.68 3.06
6 -2 10 38.6 2.92
6 -2 10 38.93 2.88
-6 2 -10 40.63 3.16
-6 2 -10 36.69 2.8
-6 2 -10 38.8 2.71
6 -1 10 29.41 2.7
6 -1 10 34.05 2.57
6 -1 10 31.45 2.66
-6 1 -10 34.59 2.67
-6 1 -10 35.25 2.32
-6 1 -10 33.5 2.77
-6 1 -10 32.2 2.5
6 0 10 42.92 3.3
6 0 10 42.53 3
6 0 10 40.26 2.98
-6 0 -10 40.36 2.94
-6 0 -10 41.87 2.68
-6 0 -10 45.19 3.22
-6 0 -10 44.82 3.18
6 1 10 34.62 2.71
6 1 10 31.27 2.59
6 1 10 33.61 2.47
-6 -1 -10 30.26 2.61
-6 -1 -10 31.56 2.02
-6 -1 -10 33.28 2.59
6 2 10 36.57 2.89
6 2 10 35.84 2.69
-6 -2 -10 38.14 2.83
6 3 10 12.72 1.49
-6 -3 -10 17.81 1.64
6 4 10 18.69 1.74
-6 -4 -10 19.72 1.74
6 5 10 9.92 1.24
6 6 10 4.82 1.03
7 -6 10 8.12 1.66
-7 6 -10 11.34 1.86
7 -5 10 3.13 1.3
-7 5 -10 5.57 1.41
7 -4 10 8.37 1.45
-7 4 -10 3.95 1.44
-7 4 -10 5.2 1.36
7 -3 10 27.05 2.57
-7 3 -10 24.75 2.34
-7 3 -10 27.15 2.64
7 -2 10 17.76 2.27
-7 2 -10 25.57 2.01
-7 2 -10 25.67 2.32
-7 2 -10 24.7 2.15
7 -1 10 7.63 1.42
7 -1 10 8.6 1.33
-7 1 -10 11.05 1.56
-7 1 -10 11.36 1.36
-7 1 -10 9.67 1.23
7 0 10 3.2 1.06
7 0 10 3.25 1.03
-7 0 -10 2.97 1.1
-7 0 -10 3.47 0.74
7 1 10 10.08 1.45
7 1 10 10.1 1.32
-7 -1 -10 8.47 0.95
-7 -1 -10 7.75 1.34
7 2 10 24.42 2.08
7 2 10 22.29 1.89
-7 -2 -10 15.24 1.84
7 3 10 24.82 2.06
-7 -3 -10 24.62 2.14
7 4 10 4.89 1.12
-7 -4 -10 9.4 1.15
7 5 10 4.51 1.03
7 6 10 9.93 1.31
8 -5 10 36.99 3.19
-8 5 -10 33.77 3.08
8 -4 10 2.35 1.28
-8 4 -10 3.06 1.29
-8 4 -10 2.32 1.25
8 -3 10 18.48 2.18
-8 3 -10 23.37 2.2
-8 3 -10 20.72 2.27
8 -2 10 -0.23 0.98
-8 2 -10 0.28 1.1
8 -1 10 29.03 2.62
8 -1 10 31.84 2.42
-8 1 -10 25.1 2.08
-8 1 -10 22.54 2.5
8 0 10 18.31 1.84
8 0 10 18.33 2.12
-8 0 -10 19.8 1.99
-8 0 -10 18.25 1.51
8 1 10 25.03 2.37
8 1 10 21.15 2.12
-8 -1 -10 26.53 2.3
8 2 10 0.59 0.94
-8 -2 -10 0.84 0.92
8 3 10 19.71 1.83
-8 -3 -10 17.35 1.86
8 4 10 3.4 1.02
-8 -4 -10 2.32 0.93
8 5 10 31.08 2.48
9 -5 10 8.47 1.73
9 -4 10 33.67 2.99
-9 4 -10 27.96 3.06
9 -3 10 -0.46 1.08
-9 3 -10 0.7 1.27
9 -2 10 35.88 3.1
-9 2 -10 31.86 2.96
9 -1 10 6.22 1.42
9 -1 10 8.35 1.32
-9 1 -10 7.87 1.53
-9 1 -10 7.59 1.15
9 0 10 45.25 3.28
9 0 10 42.34 3.51
-9 0 -10 42.76 2.84
-9 0 -10 42.19 3.39
9 1 10 7.7 1.44
9 1 10 6.98 1.29
-9 -1 -10 7.04 1.37
9 2 10 33.97 2.87
-9 -2 -10 39.16 3
9 3 10 0.16 0.98
-9 -3 -10 0.23 0.98
9 4 10 25.37 2.4
-9 -4 -10 31.14 2.49
-9 -4 -10 31.04 2.46
9 5 10 8.95 1.35
10 -5 10 5.17 1.62
10 -4 10 3.35 1.5
-10 4 -10 3.73 1.63
10 -3 10 11.86 1.89
-10 3 -10 17.41 2.33
10 -2 10 25.67 2.59
-10 2 -10 24.18 2.55
-10 1 -10 16.45 1.63
-10 1 -10 16.05 2.17
10 0 10 2.32 1.11
10 0 10 2.21 1.28
-10 0 -10 0.8 1.18
10 1 10 17.41 1.99
10 1 10 17.75 2.2
10 2 10 24.26 2.23
-10 -2 -10 21.24 2.21
10 3 10 14.4 1.82
-10 -3 -10 12.82 1.73
10 4 10 3.67 1.19
-10 -4 -10 2.54 1.06
-10 -4 -10 3.67 1.14
10 5 10 5.37 1.24
11 -4 10 0.17 1.38
-11 4 -10 -0.08 1.37
11 -3 10 10.03 1.98
-11 3 -10 15.8 2.25
11 -2 10 5.35 1.48
-11 2 -10 4.42 1.56
11 -1 10 40.46 3.37
-11 1 -10 32.1 3.25
11 0 10 31.85 2.76
11 0 10 31.39 3
-11 0 -10 29.44 2.92
11 1 10 32.35 2.91
-11 -1 -10 39.57 3.15
11 2 10 4.16 1.26
-11 -2 -10 5.15 1.37
11 3 10 13.91 1.74
-11 -3 -10 8.25 1.52
11 4 10 0.2 1.08
-11 -4 -10 -0.27 1.05
12 -3 10 10.89 1.98
-12 3 -10 13.48 2.15
12 -2 10 28.17 3.04
-12 2 -10 29.5 3.1
12 -1 10 7.32 1.74
-12 1 -10 6.02 1.69
12 0 10 51.83 4.16
-12 0 -10 47.76 4.01
12 1 10 5.5 1.46
-12 -1 -10 8.01 1.6
12 2 10 30.49 2.63
-12 -2 -10 25.29 2.61
12 3 10 11.58 1.68
-12 -3 -10 10.55 1.69
-12 -3 -10 11.03 1.72
13 -3 10 3.31 1.55
-13 3 -10 3.96 1.83
13 -2 10 0.02 1.46
-13 2 -10 -0.38 1.35
13 -1 10 26.31 2.93
-13 1 -10 30.69 3.11
-13 0 -10 0.47 1.24
-13 -1 -10 25.39 2.66
13 2 10 0.32 1.31
-13 -2 -10 0.29 1.23
13 3 10 2.38 1.33
-13 -3 -10 3.88 1.4
-13 -3 -10 2.83 1.39
14 -1 10 1.35 1.56
-14 1 -10 0.89 1.53
-14 0 -10 30.14 3.1
-14 -1 -10 0.51 1.42
-15 -1 11 9.87 1.96
15 1 -11 5.98 1.68
-15 0 11 1.74 1.5
15 0 -11 -0.07 1.37
-15 1 11 6.49 1.88
15 -1 -11 11.32 2.03
-14 -3 11 1.56 1.39
-14 -2 11 17.93 2.44
-14 -1 11 7.94 1.82
14 1 -11 10.58 1.89
-14 0 11 5.39 1.73
14 0 -11 5.2 1.57
-14 1 11 9.49 2
14 -1 -11 6.78 1.73
-14 2 11 18.27 2.5
14 -2 -11 17.57 2.4
14 -3 -11 -0.27 1.19
-13 -4 11 5.35 1.52
13 4 -11 3.28 1.42
-13 -3 11 1.81 1.33
13 3 -11 1.67 1.29
-13 -2 11 0.96 1.34
-13 -1 11 10.87 1.91
13 1 -11 9.62 1.79
-13 0 11 11.91 1.91
13 0 -11 9.8 1.73
-13 1 11 7.84 1.85
13 -1 -11 9.8 1.7
-13 2 11 0.67 1.51
13 -2 -11 0.68 1.25
13 -3 -11 2.12 1.36
-12 -4 11 6.74 1.55
12 4 -11 8.43 1.59
-12 -3 11 0.81 1.24
12 3 -11 1.78 1.22
-12 -2 11 3.3 1.37
12 2 -11 5.07 1.36
12 2 -11 5.72 1.46
-12 -1 11 7.2 1.6
12 1 -11 6.44 1.45
-12 0 11 10.08 1.8
12 0 -11 9.39 1.61
-12 1 11 5.44 1.52
12 -1 -11 6.36 1.48
-12 2 11 5.77 1.65
12 -2 -11 3.43 1.34
12 -3 -11 0.48 1.2
12 -4 -11 8.37 1.65
-11 -5 11 2.78 1.33
11 5 -11 2.94 1.29
-11 -4 11 3.24 1.31
11 4 -11 1.77 1.17
-11 -3 11 2.38 1.26
11 3 -11 3.32 1.23
-11 -2 11 85.47 6.41
11 2 -11 98.73 6.58
11 2 -11 98.91 6.17
-11 -1 11 0.86 1.23
11 1 -11 0.27 1.01
11 1 -11 0.64 1.04
-11 0 11 -0.37 1.06
11 0 -11 -0.1 1.07
-11 1 11 1.63 1.23
11 -1 -11 1.52 1.16
-11 2 11 93.34 6.37
11 -2 -11 87.93 6.29
-11 3 11 4.2 1.37
-11 3 11 2.56 1.48
11 -3 -11 1.96 1.23
-11 4 11 3.38 1.39
11 -4 -11 3.73 1.32
-11 5 11 2.92 1.45
11 -5 -11 2.42 1.3
-10 -5 11 14.61 1.98
10 5 -11 12.54 1.75
-10 -4 11 19.11 2.24
10 4 -11 20.39 2.08
-10 -3 11 15.92 2.09
10 3 -11 23.37 2.11
-10 -2 11 9.66 1.55
10 2 -11 7.61 1.51
10 2 -11 8.28 1.38
-10 -1 11 8.75 1.46
10 1 -11 5.65 1.34
10 1 -11 5.51 1.25
-10 0 11 0.27 1.15
10 0 -11 -0.01 0.93
-10 1 11 5.02 1.25
-10 1 11 3.55 1.3
10 -1 -11 9.33 1.4
-10 2 11 7.66 1.53
-10 2 11 7.78 1.46
10 -2 -11 9.07 1.52
-10 3 11 22.68 2.23
-10 3 11 23.11 2.48
10 -3 -11 17.97 2.17
-10 4 11 17.92 2.12
10 -4 -11 18.05 2.09
-10 5 11 14.73 2
10 -5 -11 18.56 2.18
-9 -5 11 10.68 1.65
9 5 -11 12.08 1.66
-9 -4 11 4.14 1.24
9 4 -11 4.08 1.15
-9 -3 11 33.56 2.77
9 3 -11 29.08 2.54
-9 -2 11 28.03 2.5
9 2 -11 26.66 2.44
9 2 -11 25.8 2.32
-9 -1 11 6.34 1.28
9 1 -11 5.22 1.09
9 1 -11 5.66 1.23
-9 0 11 6.12 1.32
9 0 -11 6 1.29
9 0 -11 5.44 1.13
9 0 -11 4.36 1.05
9 0 -11 5.96 1.19
-9 1 11 3.95 1.07
-9 1 11 3.49 1.31
9 -1 -11 4.57 0.99
9 -1 -11 6.85 1.25
-9 2 11 26.27 2.65
-9 2 11 27.27 2.45
9 -2 -11 27.33 2.44
9 -2 -11 28.27 2.3
-9 3 11 27.1 2.49
-9 3 11 29.65 2.87
9 -3 -11 32.56 2.73
9 -3 -11 35.18 2.55
-9 4 11 5.01 1.31
9 -4 -11 4.02 1.23
-9 5 11 13.08 1.77
9 -5 -11 10.32 1.65
-8 -6 11 10.24 1.55
8 6 -11 9.03 1.53
-8 -5 11 0.64 1.06
8 5 -11 0.73 1
-8 -4 11 28.71 2.46
8 4 -11 25.08 2.24
8 4 -11 20.91 2.15
-8 -3 11 6.69 1.32
8 3 -11 6.77 1.32
8 3 -11 7.09 1.26
8 3 -11 7.66 1.25
-8 -2 11 58.95 4.82
8 2 -11 72.38 4.79
8 2 -11 76.25 4.94
8 2 -11 69.54 4.57
-8 -1 11 18.85 2.13
8 1 -11 24.91 2.24
8 1 -11 27.08 2.35
8 1 -11 24.74 2.12
-8 0 11 6.51 1.14
-8 0 11 8.06 1.36
8 0 -11 8.5 1.18
8 0 -11 7.59 1.19
8 0 -11 6.62 1.2
8 0 -11 7.22 1.33
-8 1 11 24.5 2.19
-8 1 11 25.24 2.13
8 -1 -11 20.77 1.81
8 -1 -11 19.98 2.06
8 -1 -11 18.56 2.02
-8 2 11 77.83 4.94
-8 2 11 75.96 4.6
8 -2 -11 61.27 4.77
8 -2 -11 63.06 4.34
8 -2 -11 63.88 4.68
-8 3 11 7.9 1.3
-8 3 11 7.58 1.5
8 -3 -11 5.54 1.17
8 -3 -11 6.49 1.22
8 -3 -11 5.39 1.23
-8 4 11 23.91 2.41
8 -4 -11 27.84 2.5
8 -4 -11 29.03 2.47
8 -4 -11 26.79 2.3
-8 5 11 1.3 1.11
8 -5 -11 0.78 1.04
-8 6 11 7.57 1.57
8 -6 -11 9.18 1.47
-7 -6 11 2.53 1.16
7 6 -11 2.37 1.09
-7 -5 11 23.52 2.31
7 5 -11 24.03 2.23
-7 -4 11 2.6 1.08
7 4 -11 2.66 1.03
7 4 -11 2.66 0.96
-7 -3 11 6.47 1.22
7 3 -11 2.62 0.98
7 3 -11 2.3 0.97
7 3 -11 2.81 1.05
-7 -2 11 1.18 1.01
7 2 -11 1.15 0.86
7 2 -11 0.99 0.88
7 2 -11 1.22 0.9
-7 -1 11 115.74 6.65
-7 -1 11 117.91 6.65
-7 -1 11 105.34 7.02
7 1 -11 101.25 6.6
7 1 -11 96.95 7.01
7 1 -11 100.69 6.86
-7 0 11 5.54 1.09
-7 0 11 5.08 1.2
7 0 -11 5.33 0.99
7 0 -11 5.04 1.02
7 0 -11 4.74 1.08
7 0 -11 5.33 1.1
-7 1 11 98.23 7.15
-7 1 11 100.47 6.7
7 -1 -11 111.51 6.5
7 -1 -11 111.95 7
7 -1 -11 111.66 7.19
7 -1 -11 115.06 6.7
-7 2 11 1.86 0.95
-7 2 11 1.31 0.99
7 -2 -11 0.73 0.78
7 -2 -11 1.02 0.95
7 -2 -11 1.03 0.79
-7 3 11 2.69 1.18
-7 3 11 2.53 1.05
7 -3 -11 6.07 1.15
7 -3 -11 6.61 1.2
7 -3 -11 6.69 1.07
-7 4 11 1.71 1.03
7 -4 -11 2.02 0.94
7 -4 -11 1.89 1.02
7 -4 -11 2.94 0.99
-7 5 11 24.7 2.32
7 -5 -11 25.84 2.37
-7 6 11 3.49 1.27
7 -6 -11 3.17 1.1
-6 -6 11 1.29 1.05
6 6 -11 1.03 1.07
-6 -5 11 2.93 1.12
6 5 -11 3.28 1.08
-6 -4 11 16.29 1.91
6 4 -11 17.94 1.88
6 4 -11 21.45 1.91
-6 -3 11 2.12 1.02
6 3 -11 2.51 0.92
6 3 -11 3.59 1.05
6 3 -11 3.27 0.97
-6 -2 11 2.77 1.07
6 2 -11 4.07 1.08
6 2 -11 4.57 0.94
6 2 -11 4.44 0.96
-6 -1 11 26.24 2.02
-6 -1 11 24.67 2.21
6 1 -11 19.93 1.92
6 1 -11 21.91 2.05
6 1 -11 21.95 1.98
-6 0 11 11.72 1.59
-6 0 11 11.77 1.35
-6 0 11 9.29 1.27
6 0 -11 11 1.38
6 0 -11 11.03 1.37
6 0 -11 11.79 1.44
-6 1 11 20.24 1.96
-6 1 11 23.88 2.07
-6 1 11 19.71 2.07
6 -1 -11 24.37 1.85
6 -1 -11 24.47 1.94
6 -1 -11 25.2 2.1
6 -1 -11 24.94 2.09
-6 2 11 3.65 0.93
-6 2 11 4.7 1.17
6 -2 -11 2.71 0.94
6 -2 -11 3.19 0.93
6 -2 -11 3.02 0.83
-6 3 11 3.82 1.13
-6 3 11 4.02 1.02
6 -3 -11 1.32 0.81
6 -3 -11 2.6 0.96
6 -3 -11 2.24 0.93
-6 4 11 18.86 1.81
6 -4 -11 18.78 1.84
6 -4 -11 16.25 1.8
6 -4 -11 18.48 1.7
-6 5 11 4.12 1.16
6 -5 -11 3.86 1.06
-6 6 11 -0.01 1.04
6 -6 -11 2.22 0.93
-5 -6 11 0.98 1.03
5 6 -11 0.98 1.05
-5 -5 11 11.35 1.58
5 5 -11 14.09 1.61
-5 -4 11 13.48 1.56
5 4 -11 8.58 1.23
5 4 -11 7.51 1.25
-5 -3 11 23.33 2.13
5 3 -11 21.46 2.08
5 3 -11 20.5 1.91
5 3 -11 22.39 1.96
-5 -2 11 126.62 8.48
-5 -2 11 135.82 8
5 2 -11 131.79 8.28
5 2 -11 128.42 7.98
5 2 -11 133.56 8.51
-5 -1 11 70.97 5.04
-5 -1 11 71.05 4.7
5 1 -11 77.36 5.06
5 1 -11 75.91 4.92
5 1 -11 72.86 4.7
-5 0 11 0.74 0.89
-5 0 11 0.31 0.79
-5 0 11 0.05 0.78
5 0 -11 0.66 0.74
5 0 -11 0.2 0.69
5 0 -11 0.34 0.79
-5 1 11 76.45 4.64
-5 1 11 71.71 4.89
-5 1 11 71.72 4.6
5 -1 -11 70.04 4.39
5 -1 -11 73.55 4.57
5 -1 -11 68.22 4.75
5 -1 -11 70.71 4.91
-5 2 11 131.27 7.82
-5 2 11 125.91 8.29
5 -2 -11 130.77 8.28
5 -2 -11 133.96 8.14
5 -2 -11 119.67 7.46
-5 3 11 21.74 1.93
-5 3 11 22.72 2.12
5 -3 -11 20.98 1.97
5 -3 -11 21.46 1.73
5 -3 -11 21.93 1.99
-5 4 11 9.17 1.36
5 -4 -11 11.72 1.53
5 -4 -11 12.32 1.33
5 -4 -11 12.93 1.51
-5 5 11 13.51 1.58
5 -5 -11 10.03 1.37
-5 6 11 1.59 1.09
5 -6 -11 1.36 0.84
-4 -6 11 12.26 1.61
4 6 -11 11.47 1.55
-4 -5 11 39.96 2.99
4 5 -11 33.4 2.74
-4 -4 11 15.44 1.85
4 4 -11 20.5 1.76
4 4 -11 18.39 1.84
-4 -3 11 23.32 2.38
4 3 -11 29.05 2.37
4 3 -11 29.73 2.27
4 3 -11 31.83 2.31
-4 -2 11 35.1 2.4
-4 -2 11 33.64 2.63
4 2 -11 31.3 2.57
4 2 -11 31.22 2.49
4 2 -11 30.73 2.46
4 2 -11 29.33 2.38
-4 -1 11 46.75 3.11
-4 -1 11 46.63 2.85
4 1 -11 38.47 2.78
4 1 -11 35.88 2.77
4 1 -11 36.74 2.88
4 1 -11 34.87 2.92
-4 0 11 7.01 1.02
-4 0 11 8.18 1.25
4 0 -11 7.78 1.01
4 0 -11 6.78 1.03
4 0 -11 7.76 1.18
-4 1 11 36.39 2.95
-4 1 11 41.91 3.04
-4 1 11 36.18 3.12
4 -1 -11 45.22 3.09
4 -1 -11 47.91 3.22
4 -1 -11 47.98 2.96
4 -1 -11 46.1 2.8
-4 2 11 28.12 2.48
-4 2 11 29.32 2.43
-4 2 11 28.12 2.3
4 -2 -11 32.48 2.18
4 -2 -11 34.45 2.5
4 -2 -11 36.87 2.35
4 -2 -11 32.75 2.53
-4 3 11 27.41 2.13
-4 3 11 29.57 2.32
4 -3 -11 26.35 1.93
4 -3 -11 25.15 2.2
4 -3 -11 24.75 2.21
-4 4 11 19.23 1.64
4 -4 -11 15.53 1.63
4 -4 -11 14.8 1.68
4 -4 -11 13.41 1.39
-4 5 11 34.49 2.68
4 -5 -11 37.98 2.77
-4 6 11 11.05 1.47
4 -6 -11 13.34 1.39
3 7 -11 31.74 2.7
-3 -6 11 1.94 1.03
3 6 -11 2.92 1.13
-3 -5 11 24.03 2.25
3 5 -11 23.7 2.13
-3 -4 11 53.25 4.05
3 4 -11 58.46 3.9
3 4 -11 62.24 4.16
3 4 -11 53.97 3.81
-3 -3 11 19.19 1.91
3 3 -11 21.2 1.87
3 3 -11 21.39 1.94
3 3 -11 22.56 1.89
3 2 -11 9.4 1.27
3 2 -11 10.43 1.44
3 2 -11 9.5 1.21
3 2 -11 11.12 1.43
-3 -1 11 7.58 1.18
-3 -1 11 8.23 1.12
-3 -1 11 9.43 1.31
3 1 -11 8.15 1.1
3 1 -11 8.48 1.14
3 1 -11 11.34 1.38
3 1 -11 7.89 1.18
-3 0 11 60.06 3.81
-3 0 11 61.42 3.86
-3 0 11 57.72 4.08
3 0 -11 55.12 4
3 0 -11 54.81 3.91
3 0 -11 59.08 3.75
-3 1 11 9.23 1.16
-3 1 11 9.14 1.17
-3 1 11 9.95 1.23
-3 1 11 8.65 1.24
-3 1 11 8.25 1.18
3 -1 -11 8.81 1.15
3 -1 -11 9.07 0.98
3 -1 -11 10.42 1.29
3 -1 -11 9.26 1.22
-3 2 11 8.5 1.18
3 -2 -11 5.39 0.98
3 -2 -11 5.23 0.85
3 -2 -11 4.28 0.74
3 -2 -11 4.63 0.93
-3 3 11 21.39 1.96
-3 3 11 20.36 1.82
3 -3 -11 20.42 1.87
3 -3 -11 19.96 1.8
3 -3 -11 19.99 1.53
-3 4 11 56.01 3.72
3 -4 -11 54.54 3.88
3 -4 -11 57.6 3.46
3 -4 -11 57.25 3.92
-3 5 11 20.68 1.93
3 -5 -11 24.33 1.95
-3 6 11 4.04 1.06
3 -6 -11 2.49 0.72
-2 -7 11 20.02 1.97
2 7 -11 12.75 1.81
-2 -6 11 6.22 1.28
2 6 -11 4.4 1.2
2 5 -11 5.81 1.23
-2 -4 11 16.65 1.89
2 4 -11 16.56 1.63
2 4 -11 14.4 1.66
2 4 -11 16.25 1.8
-2 -3 11 83.55 5.11
2 3 -11 72.66 4.89
2 3 -11 70.23 5.08
2 3 -11 71.09 4.76
-2 -2 11 2.25 0.8
-2 -2 11 2.18 0.86
-2 -2 11 2.59 0.8
2 2 -11 2.74 0.92
2 2 -11 3.13 0.84
2 2 -11 4.33 0.91
2 2 -11 2.16 0.84
2 2 -11 3.43 0.88
-2 -1 11 188.52 12.31
-2 -1 11 182.17 11.85
-2 -1 11 183.1 12.6
2 1 -11 227.77 11.94
2 1 -11 205.05 12.62
2 1 -11 217.31 12.36
-2 0 11 19.85 1.72
-2 0 11 19 1.77
-2 0 11 20.93 1.92
2 0 -11 20.26 1.78
2 0 -11 19.19 1.67
2 0 -11 16.78 1.73
-2 1 11 218.62 12.22
-2 1 11 211.96 11.73
-2 1 11 215.28 11.74
-2 1 11 215.79 12.48
2 -1 -11 180.41 11.17
2 -1 -11 180.12 12.12
2 -1 -11 179.54 12.39
2 -1 -11 182.94 11.64
-2 2 11 3.62 0.88
-2 2 11 3.38 0.86
-2 2 11 3.43 0.91
-2 2 11 3.74 0.85
-2 2 11 2.87 0.84
2 -2 -11 2 0.64
2 -2 -11 2.06 0.8
2 -2 -11 2.62 0.83
-2 3 11 70.84 5.07
-2 3 11 70.8 4.75
-2 3 11 73.72 5.02
-2 3 11 73.19 4.81
2 -3 -11 80.32 5.03
2 -3 -11 85.35 5.05
-2 4 11 16.21 1.57
2 -4 -11 15.91 1.62
2 -4 -11 15.99 1.57
-2 5 11 4.77 1
2 -5 -11 2.5 0.79
-2 6 11 3.99 0.99
-2 7 11 13.33 1.58
-1 -7 11 1.12 1.02
1 7 -11 0.85 1.1
-1 -6 11 12.39 1.71
1 6 -11 12.32 1.58
-1 -5 11 5.71 1.24
1 5 -11 4.85 1.16
-1 -4 11 60.93 4.7
1 4 -11 73.39 4.81
1 4 -11 73.6 4.57
1 4 -11 65.2 4.46
-1 -3 11 18.81 1.92
-1 -3 11 17.7 2.02
1 3 -11 25.22 1.97
1 3 -11 22.87 1.9
1 3 -11 25.22 2.11
-1 -2 11 0.09 0.76
-1 -2 11 0.43 0.75
-1 -2 11 0.39 0.69
1 2 -11 0.55 0.75
1 2 -11 -0.19 0.66
1 2 -11 0.23 0.75
1 2 -11 0.45 0.74
1 2 -11 0.36 0.72
-1 -1 11 32.15 2.27
-1 -1 11 33.14 2.42
1 1 -11 24.37 2.2
1 1 -11 26.78 2.13
1 1 -11 25.16 2.25
-1 0 11 198.24 12.93
-1 0 11 206.11 12.16
-1 0 11 221.22 12.22
1 0 -11 206.11 12.93
1 0 -11 200.35 12.61
1 0 -11 201.95 12.14
-1 1 11 24.38 2.21
-1 1 11 25.95 2.15
-1 1 11 23.98 2.24
-1 1 11 23.94 2.07
1 -1 -11 32.34 2.25
1 -1 -11 29.91 2.02
1 -1 -11 33.1 2.28
-1 2 11 -0.43 0.67
-1 2 11 -0.54 0.69
-1 2 11 0.12 0.76
-1 2 11 0.83 0.83
-1 2 11 0.69 0.71
1 -2 -11 0.01 0.69
1 -2 -11 0.69 0.43
1 -2 -11 0.99 0.74
-1 3 11 25.11 1.83
-1 3 11 23.91 1.91
-1 3 11 26.06 2.03
-1 3 11 24.06 1.99
1 -3 -11 17.31 1.76
1 -3 -11 16.34 1.78
1 -3 -11 17.88 1.34
-1 4 11 71.52 4.56
-1 4 11 64.15 4.24
1 -4 -11 68.01 4.5
1 -4 -11 64.05 4.44
-1 5 11 5.48 0.98
1 -5 -11 5.62 0.88
-1 6 11 11.65 1.4
-1 7 11 0.67 0.89
0 -7 11 0.05 1.06
0 7 -11 0.3 1.16
0 -6 11 12.84 1.71
0 6 -11 13.39 1.75
0 -5 11 6.5 1.25
0 5 -11 4.3 1.11
0 4 -11 17.44 1.75
0 4 -11 17.07 1.63
0 4 -11 17 1.91
0 -3 11 62.48 4.35
0 -3 11 60.84 4.49
0 3 -11 67.6 4.54
0 3 -11 65.27 4.24
0 3 -11 65.82 4.33
0 -2 11 73.9 4.43
0 -2 11 66.29 4.71
0 -2 11 67.6 4.58
0 2 -11 67.77 4.44
0 2 -11 69.39 4.58
0 2 -11 65.74 4.7
0 2 -11 71.63 4.49
0 -1 11 2.33 0.94
0 -1 11 2.39 0.83
0 1 -11 5.61 0.92
0 1 -11 5.33 0.95
0 1 -11 6.25 1.07
0 0 11 88.78 5.49
0 0 11 85.86 5.79
0 0 11 91.1 5.47
0 0 -11 89.07 5.82
0 0 -11 84.68 5.4
0 0 -11 87.2 5.68
0 1 11 5.71 0.94
0 1 11 4.88 0.96
0 1 11 5.28 0.9
0 1 11 4.43 0.94
0 -1 -11 2.96 0.72
0 -1 -11 1.72 0.81
0 -1 -11 2.78 0.79
0 2 11 70.01 4.38
0 2 11 67.71 4.31
0 2 11 66.21 4.53
0 2 11 70.74 4.64
0 -2 -11 66.43 4.56
0 -2 -11 71.56 4.64
0 -2 -11 66.08 4.51
0 -2 -11 65.52 3.86
0 3 11 64.35 4.12
0 3 11 63.12 4.1
0 3 11 66.94 4.39
0 3 11 65.42 4.12
0 3 11 66.66 4.37
0 -3 -11 61.13 4.31
0 -3 -11 60.34 4.31
0 4 11 16.44 1.52
0 4 11 17.32 1.73
0 4 11 17.12 1.56
0 -4 -11 10.86 1.52
0 5 11 3.47 0.87
0 6 11 13.79 1.43
0 7 11 0.95 0.88
1 -7 11 6.82 1.39
-1 7 -11 6.71 1.5
1 -6 11 1.52 1.07
-1 6 -11 1.58 1.09
1 -5 11 1.36 1.01
-1 5 -11 1.76 0.98
1 -4 11 44.75 3.43
1 -4 11 45.7 3.24
-1 4 -11 43.41 3.17
-1 4 -11 44.75 3.19
-1 4 -11 44.84 3.43
1 -3 11 54.81 4.07
1 -3 11 51.04 4.23
-1 3 -11 67.1 4.14
-1 3 -11 64.21 4.34
-1 3 -11 65.7 4.04
1 -2 11 18.26 1.81
1 -2 11 19.56 1.75
1 -2 11 20.37 1.74
-1 2 -11 15.74 1.64
-1 2 -11 17.56 1.88
-1 2 -11 18.05 1.7
-1 2 -11 17.04 1.65
1 -1 11 104.18 7.18
1 -1 11 106.85 7.02
1 -1 11 103.35 6.72
-1 1 -11 118.56 7.06
-1 1 -11 113.64 6.74
-1 1 -11 115.94 7.21
1 0 11 5.08 1.09
1 0 11 5.17 0.97
1 0 11 7.07 1.05
-1 0 -11 6.34 0.9
-1 0 -11 6.35 1.03
-1 0 -11 5.3 1
1 1 11 119.5 6.84
1 1 11 110.81 7.09
1 1 11 115.01 7.25
1 1 11 112.18 6.8
-1 -1 -11 106.86 7.2
-1 -1 -11 109.36 6.71
-1 -1 -11 106.43 7.08
1 2 11 15.76 1.52
1 2 11 18.45 1.69
1 2 11 15.32 1.7
1 2 11 18 1.73
-1 -2 -11 19.42 1.73
-1 -2 -11 17.6 1.68
-1 -2 -11 15.63 1.63
1 3 11 63.2 3.9
1 3 11 64.69 3.95
1 3 11 62.84 4.15
1 3 11 66.57 4.17
-1 -3 -11 52.96 4.05
-1 -3 -11 51.85 4.07
1 4 11 41 2.88
1 4 11 42.06 3.1
-1 -4 -11 41.84 2.97
-1 -4 -11 42.15 3.07
1 5 11 1.53 0.81
1 5 11 0.46 0.79
-1 -5 -11 1.51 0.62
1 6 11 1.27 0.86
1 6 11 1.13 0.84
1 7 11 7.88 1.17
1 7 11 7.44 1.17
2 -6 11 14.17 1.87
-2 6 -11 11.72 1.71
2 -5 11 3.74 1.18
-2 5 -11 3.47 1.16
2 -4 11 46.95 3.57
2 -4 11 43.63 3.77
-2 4 -11 54.61 3.91
-2 4 -11 57.85 3.67
-2 4 -11 56.07 3.64
2 -3 11 16.86 1.92
2 -3 11 17.99 1.72
-2 3 -11 18.9 1.82
-2 3 -11 16.09 1.88
-2 3 -11 16.29 1.75
-2 3 -11 16.39 1.66
-2 2 -11 26.28 2.19
-2 2 -11 24.58 2.14
-2 2 -11 27.8 2.07
-2 2 -11 25.22 2.26
-2 2 -11 27.87 2.2
2 -1 11 34.55 2.51
2 -1 11 36.65 2.65
2 -1 11 34.02 2.68
-2 1 -11 31.34 2.47
-2 1 -11 33.89 2.56
-2 1 -11 34.63 2.73
-2 1 -11 32.51 2.26
2 0 11 213.01 12.06
2 0 11 202.78 12.78
2 0 11 199.81 12
-2 0 -11 198.47 12.47
-2 0 -11 199.17 11.41
-2 0 -11 197.6 12.74
-2 0 -11 207.12 11.98
2 1 11 32.83 2.62
2 1 11 34.72 2.73
2 1 11 36.07 2.56
-2 -1 -11 34.17 2.61
-2 -1 -11 34.12 2.06
-2 -1 -11 34.76 2.67
-2 -1 -11 35.14 2.43
2 2 11 27.06 2.07
2 2 11 24.78 2.19
2 2 11 24.92 2.18
2 2 11 25.72 2.01
2 3 11 14.23 1.53
2 3 11 16.86 1.76
2 3 11 18.12 1.69
2 3 11 16.79 1.76
-2 -3 -11 15.74 1.68
-2 -3 -11 18.1 1.68
2 4 11 49.92 3.44
2 4 11 50.51 3.18
-2 -4 -11 44.87 3.38
-2 -4 -11 43.6 3.24
2 5 11 2.54 0.84
-2 -5 -11 3.63 0.65
2 6 11 10.49 1.34
3 -6 11 5.59 1.37
-3 6 -11 5.38 1.35
3 -5 11 1.21 1.07
-3 5 -11 2.26 1.11
3 -4 11 3.22 1.15
3 -4 11 4.71 1.05
-3 4 -11 2.61 0.94
-3 4 -11 1.7 1.02
-3 4 -11 3.17 1.08
3 -3 11 114.96 7.29
3 -3 11 108.17 7.53
-3 3 -11 115.5 7.09
-3 3 -11 115.11 7.56
-3 3 -11 115.52 7.28
3 -2 11 8.37 1.29
3 -2 11 7.69 1.19
3 -2 11 8.2 1.41
-3 2 -11 10.98 1.37
-3 2 -11 12.03 1.34
-3 2 -11 8.58 1.25
-3 2 -11 10.45 1.43
3 -1 11 100.93 6.62
3 -1 11 103.05 7.07
3 -1 11 106.17 6.9
-3 1 -11 108.95 6.9
-3 1 -11 112.9 6.3
-3 1 -11 109.71 7.08
-3 1 -11 109.47 6.62
3 0 11 1.38 0.9
3 0 11 1.87 0.82
3 0 11 2.36 0.88
-3 0 -11 1.9 0.74
-3 0 -11 1.08 0.79
-3 0 -11 1.54 0.54
-3 0 -11 2.51 0.89
3 1 11 104.39 6.68
3 1 11 106.58 6.4
3 1 11 102.74 6.77
3 1 11 109.16 6.38
-3 -1 -11 100.97 6.64
-3 -1 -11 100.1 5.82
-3 -1 -11 99.04 6.73
-3 -1 -11 104.21 6.27
3 2 11 10.04 1.3
3 2 11 8.82 1.16
3 2 11 11.2 1.42
3 2 11 9.35 1.18
-3 -2 -11 8.16 1.26
-3 -2 -11 8.59 1.2
3 3 11 109.06 6.7
3 3 11 112.89 7.08
3 3 11 107.06 6.68
-3 -3 -11 106.38 7.03
-3 -3 -11 111.9 7.05
3 4 11 2.88 1.01
3 4 11 2.85 0.87
-3 -4 -11 3.56 0.82
-3 -4 -11 3.95 1.06
3 5 11 1.89 0.81
-3 -5 -11 2.69 0.6
3 6 11 3.99 0.96
4 -6 11 1.91 1.24
-4 6 -11 1.25 1.2
4 -5 11 -0.32 1.03
-4 5 -11 1.29 1.09
4 -4 11 3.59 1.04
4 -4 11 3.17 1.16
-4 4 -11 1.63 1.13
-4 4 -11 1.14 0.91
-4 4 -11 2.23 1.06
4 -3 11 93.06 6.32
4 -3 11 96.3 6.1
-4 3 -11 93.03 5.88
-4 3 -11 86.87 6.26
-4 3 -11 94.5 6.07
4 -2 11 0.65 0.75
4 -2 11 0.52 0.8
4 -2 11 0.13 0.99
-4 2 -11 2.08 0.79
-4 2 -11 1.71 0.83
-4 2 -11 2.34 0.96
-4 2 -11 2.71 0.92
4 -1 11 22.33 2.4
4 -1 11 21.05 2.2
-4 1 -11 30.49 2.4
-4 1 -11 29.37 2.22
-4 1 -11 30.02 1.97
-4 1 -11 30.38 2.35
4 0 11 56.64 3.89
4 0 11 51.73 3.55
4 0 11 55.24 3.6
-4 0 -11 52.73 3.19
-4 0 -11 52.66 3.5
-4 0 -11 50.9 3.77
-4 0 -11 49.61 3.68
-4 -1 -11 20.66 1.3
-4 -1 -11 19.73 1.72
-4 -1 -11 20.68 1.94
-4 -1 -11 19 1.9
4 2 11 2.46 1.01
4 2 11 2.52 0.92
4 2 11 1.59 0.81
-4 -2 -11 0.63 0.85
-4 -2 -11 0.64 0.81
4 3 11 94.5 6.04
4 3 11 86.16 5.62
-4 -3 -11 90.5 5.99
-4 -3 -11 92.06 5.95
4 4 11 1.73 0.83
-4 -4 -11 3.29 1.06
-4 -4 -11 3.66 0.86
4 5 11 1.78 0.87
4 6 11 1.92 0.87
5 -6 11 14.73 1.93
-5 6 -11 9 1.71
5 -5 11 2.74 1.2
-5 5 -11 2.06 1.3
5 -4 11 23.83 2.18
5 -4 11 19.08 2.21
-5 4 -11 27.02 2.32
-5 4 -11 26.35 2.51
5 -3 11 42.01 3.39
5 -3 11 47.16 3.31
-5 3 -11 42.92 3.23
-5 3 -11 41.12 3.44
-5 3 -11 42.78 3.2
-5 2 -11 31.06 2.33
-5 2 -11 30.02 2.51
-5 2 -11 30.93 2.47
-5 2 -11 28.59 2.65
5 -1 11 -0.12 0.75
5 -1 11 1.19 0.86
5 -1 11 -0.6 0.84
-5 1 -11 0.48 0.66
-5 1 -11 -0.31 0.78
-5 1 -11 0.1 0.9
-5 1 -11 0.12 0.82
5 0 11 116.88 7.2
5 0 11 119 7.71
-5 0 -11 114.1 7.64
-5 0 -11 116.34 6.7
-5 0 -11 116.09 7.49
-5 0 -11 116.86 7.13
5 1 11 0.35 0.92
5 1 11 0.09 0.8
5 1 11 -0.03 0.9
-5 -1 -11 0.15 0.37
-5 -1 -11 0.03 0.83
-5 -1 -11 0.49 0.84
5 2 11 27.3 2.21
5 2 11 28.67 2.44
5 3 11 39.77 3.03
-5 -3 -11 44.85 3.33
-5 -3 -11 45.83 3.22
5 4 11 25.06 1.99
-5 -4 -11 22.1 1.94
5 5 11 3.27 0.97
5 6 11 7.84 1.18
6 -6 11 7.15 1.62
-6 6 -11 9.55 1.78
6 -5 11 6.26 1.43
-6 5 -11 3.29 1.33
6 -4 11 26.04 2.81
-6 4 -11 34.12 2.77
-6 4 -11 35.67 3.04
6 -3 11 59.26 4.7
-6 3 -11 67.35 4.46
-6 3 -11 68.15 4.8
6 -2 11 6.04 1.27
-6 2 -11 5.02 1
-6 2 -11 4.18 1.11
-6 2 -11 4.66 1.11
-6 2 -11 5.29 1.24
-6 1 -11 44.93 3.18
-6 1 -11 46.15 2.99
-6 1 -11 45.92 3.38
-6 1 -11 44.86 3.49
6 0 11 0.53 0.8
6 0 11 -0.04 0.87
-6 0 -11 0.62 0.92
-6 0 -11 0.26 0.93
-6 0 -11 1.09 0.59
-6 -1 -11 29.37 2.56
-6 -1 -11 30.59 2.54
-6 -1 -11 29.63 1.89
6 2 11 3.66 1.12
6 2 11 5.05 1.08
-6 -2 -11 5.77 1.15
-6 -2 -11 4.81 1.08
6 3 11 62.19 4.02
-6 -3 -11 57.73 4.15
6 4 11 30.39 2.34
-6 -4 -11 28.45 2.36
6 5 11 2.33 0.97
-6 -5 -11 5.93 0.77
6 6 11 6.88 1.19
7 -5 11 5.48 1.52
-7 5 -11 7.56 1.61
7 -4 11 1.98 1.26
-7 4 -11 4.29 1.37
-7 4 -11 5.71 1.52
7 -3 11 29.61 2.77
-7 3 -11 27.56 2.46
-7 3 -11 29.9 2.72
7 -2 11 27.77 2.77
-7 2 -11 31.67 2.86
-7 2 -11 32.83 2.4
7 -1 11 29.4 2.54
7 -1 11 26.23 2.64
-7 1 -11 34.6 2.83
-7 1 -11 32.73 2.26
7 0 11 26.99 2.36
7 0 11 30.07 2.54
-7 0 -11 27.51 1.97
-7 0 -11 26.19 2.53
7 1 11 32.67 2.74
7 1 11 32.15 2.5
-7 -1 -11 26.91 2.58
7 2 11 29.76 2.31
-7 -2 -11 25.52 2.36
7 3 11 27.25 2.33
-7 -3 -11 27.95 2.36
7 4 11 4.3 1.07
-7 -4 -11 1.69 0.89
7 5 11 8.16 1.29
8 -5 11 3.25 1.39
8 -4 11 50.38 4.21
-8 4 -11 56.8 4.36
8 -3 11 8.7 1.58
-8 3 -11 7.29 1.63
8 -2 11 1.18 1.13
-8 2 -11 1.68 1.17
8 -1 11 11.62 1.73
8 -1 11 12.41 1.59
-8 1 -11 9.61 1.24
-8 1 -11 10.04 1.61
8 0 11 230.36 14.66
8 0 11 231.56 13.79
-8 0 -11 228.59 14.62
8 1 11 10.43 1.49
8 1 11 9.79 1.61
-8 -1 -11 13.3 1.6
8 2 11 1.06 0.96
-8 -2 -11 1.99 1.04
8 3 11 4.25 1.14
-8 -3 -11 8.47 1.32
8 4 11 51.91 3.54
-8 -4 -11 47.18 3.56
8 5 11 3.05 1.06
9 -5 11 6.07 1.65
9 -4 11 38.95 3.58
-9 4 -11 43.2 3.74
9 -3 11 39.84 3.26
-9 3 -11 32.5 3.17
9 -2 11 4.39 1.43
-9 2 -11 4.93 1.49
9 -1 11 29.14 2.91
-9 1 -11 39.25 3.13
9 0 11 9.6 1.54
9 0 11 8.97 1.63
-9 0 -11 9.68 1.55
9 1 11 42.34 3.01
9 1 11 41.46 3.25
-9 -1 -11 28.91 2.99
9 2 11 5.28 1.26
-9 -2 -11 3.96 1.18
9 3 11 30.29 2.78
-9 -3 -11 39.8 2.93
9 4 11 38.63 2.92
-9 -4 -11 35.74 2.89
9 5 11 8.49 1.39
10 -4 11 5.54 1.66
-10 4 -11 6.75 1.82
10 -3 11 16.24 2.19
-10 3 -11 15.54 2.29
10 -2 11 29.48 2.78
-10 2 -11 23.89 2.68
10 -1 11 5.1 1.44
-10 1 -11 4.99 1.52
10 0 11 9.01 1.71
10 0 11 9.07 1.56
-10 0 -11 8.84 1.65
10 1 11 4.9 1.34
-10 -1 -11 6.28 1.4
10 2 11 26.9 2.45
-10 -2 -11 25.97 2.48
10 3 11 14.63 1.82
-10 -3 -11 13.7 1.86
10 4 11 5.96 1.35
-10 -4 -11 5.84 1.25
-10 -4 -11 5.25 1.24
11 -4 11 7.71 1.9
11 -3 11 0.16 1.4
-11 3 -11 2.3 1.56
11 -2 11 0.5 1.24
-11 2 -11 -0.01 1.35
11 -1 11 15.09 2.11
-11 1 -11 8.71 1.83
11 0 11 18.41 2.45
-11 0 -11 18.98 2.36
11 1 11 11.78 1.76
-11 -1 -11 13.72 1.89
11 2 11 -0.72 1.06
-11 -2 -11 0.23 1.1
11 3 11 0.68 1.13
-11 -3 -11 0.55 1.12
11 4 11 9.77 1.61
-11 -4 -11 9.02 1.5
-11 -4 -11 8.97 1.5
12 -3 11 27.79 2.96
-12 3 -11 27.75 3.22
12 -2 11 12.89 2.09
-12 2 -11 13.37 2.25
12 -1 11 15.19 2.27
-12 1 -11 16.95 2.32
12 0 11 -0.49 1.32
-12 0 -11 -0.25 1.29
12 1 11 17.37 2.17
-12 -1 -11 15.44 2.12
12 2 11 11.19 1.75
-12 -2 -11 10.98 1.81
12 3 11 23.86 2.46
-12 -3 -11 27.17 2.6
13 -2 11 9.59 2.05
-13 2 -11 9.07 2.08
13 -1 11 3.85 1.69
-13 1 -11 3.79 1.7
-13 0 -11 -0.65 1.25
-13 -1 -11 3.31 1.5
13 2 11 8.58 1.75
-13 -2 -11 7.73 1.72
-15 0 12 8.07 1.93
15 0 -12 10.96 2.05
-14 -2 12 11.25 2.03
-14 -1 12 14.12 2.2
14 1 -12 17.01 2.33
-14 0 12 1.44 1.44
14 0 -12 0.59 1.36
-14 1 12 20.1 2.69
14 -1 -12 15.07 2.22
-14 2 12 9.33 2.14
14 -2 -12 11.67 1.99
-13 -3 12 0.59 1.35
-13 -2 12 3.83 1.52
-13 -1 12 3.02 1.53
13 1 -12 3.1 1.45
-13 0 12 33.85 3.31
13 0 -12 35.52 3.27
-13 1 12 3.33 1.54
13 -1 -12 2.79 1.45
-13 2 12 0.56 1.58
13 -2 -12 2.28 1.4
13 -3 -12 -0.5 1.24
12 4 -12 11.54 1.84
-12 -3 12 3.84 1.46
12 3 -12 5.01 1.45
-12 -2 12 1.25 1.31
12 2 -12 1.96 1.35
-12 -1 12 0.6 1.22
12 1 -12 2.32 1.32
-12 0 12 10.69 1.86
12 0 -12 8.24 1.67
-12 1 12 1.82 1.47
12 -1 -12 0.57 1.21
-12 2 12 2.28 1.45
12 -2 -12 0.56 1.22
12 -3 -12 2.97 1.38
12 -4 -12 7.69 1.65
-11 -4 12 1.25 1.3
11 4 -12 2.96 1.24
-11 -3 12 52.09 4.11
11 3 -12 52.91 3.89
-11 -2 12 5.62 1.44
11 2 -12 7.09 1.54
11 2 -12 5.52 1.29
-11 -1 12 18.26 2.31
11 1 -12 21.17 2.36
-11 0 12 0.75 1.2
11 0 -12 0.16 1.13
-11 1 12 19.74 2.25
11 -1 -12 18.14 2.24
-11 2 12 6.35 1.68
11 -2 -12 5.19 1.44
11 -3 -12 49.99 3.96
-11 4 12 1.15 1.34
11 -4 -12 1.71 1.24
-10 -5 12 2.17 1.3
10 5 -12 1.41 1.2
-10 -4 12 36.28 3.27
10 4 -12 43.65 3.21
-10 -3 12 1.08 1.18
10 3 -12 1.82 1.1
-10 -2 12 2.62 1.26
10 2 -12 0.87 1.14
10 2 -12 1.79 1.06
-10 -1 12 9.38 1.64
10 1 -12 8.74 1.6
-10 0 12 73.08 5.29
10 0 -12 74.81 5.33
-10 1 12 10.52 1.71
10 -1 -12 11.03 1.61
-10 2 12 0.66 1.19
-10 2 12 1.26 1.16
10 -2 -12 5.01 1.25
-10 3 12 1.07 1.18
10 -3 -12 0.4 1.12
-10 4 12 46.66 3.45
10 -4 -12 39.27 3.45
-10 5 12 1.82 1.36
10 -5 -12 0.88 1.24
-9 -5 12 -0.03 1.17
9 5 -12 1.06 1.16
-9 -4 12 8.34 1.51
9 4 -12 7.55 1.46
-9 -3 12 22.22 2.38
9 3 -12 26.07 2.28
-9 -2 12 21.44 2.28
9 2 -12 20.77 2.27
9 2 -12 19.77 2.05
-9 -1 12 22.89 2.41
9 1 -12 24.11 2.34
9 1 -12 25.73 2.25
-9 0 12 12.87 1.79
9 0 -12 14.8 1.64
9 0 -12 13.69 1.9
-9 1 12 24.68 2.41
-9 1 12 23.83 2.2
9 -1 -12 23.86 2.41
9 -1 -12 23.85 2.09
-9 2 12 18.56 2.37
-9 2 12 22.52 2.21
9 -2 -12 24.4 2.33
9 -2 -12 21.65 2.05
-9 3 12 26.4 2.6
-9 3 12 25.78 2.39
9 -3 -12 20.8 2.36
-9 4 12 6.9 1.47
9 -4 -12 9.1 1.51
-9 5 12 -0.39 1.17
9 -5 -12 -0.36 1.04
-8 -5 12 4.92 1.31
8 5 -12 2.16 1.13
-8 -4 12 4.95 1.31
8 4 -12 2.62 1.12
-8 -3 12 23.1 2.29
8 3 -12 21.75 2.3
8 3 -12 22.74 2.15
-8 -2 12 6.35 1.41
8 2 -12 7.76 1.25
8 2 -12 9.49 1.43
8 1 -12 8.5 1.45
8 1 -12 8.72 1.28
8 1 -12 8.14 1.38
-8 0 12 12.39 1.57
-8 0 12 13.52 1.74
8 0 -12 13.5 1.64
8 0 -12 12 1.66
8 0 -12 12.59 1.4
8 0 -12 13.35 1.74
-8 1 12 8 1.47
-8 1 12 7.59 1.28
8 -1 -12 3.68 1.19
8 -1 -12 3.5 0.98
8 -1 -12 4.66 1.11
-8 2 12 8.12 1.38
-8 2 12 8.07 1.55
8 -2 -12 7.75 1.24
8 -2 -12 8.07 1.35
-8 3 12 21.47 2.18
-8 3 12 19.24 2.34
8 -3 -12 22.73 2.21
8 -3 -12 22.09 1.96
-8 4 12 2.17 1.2
8 -4 -12 6.88 1.3
8 -4 -12 4.7 1.18
-8 5 12 2.13 1.25
8 -5 -12 4.46 1.25
-7 -6 12 0.98 1.16
7 6 -12 -0.57 1.1
-7 -5 12 10.76 1.63
7 5 -12 11.69 1.56
-7 -4 12 27.02 2.72
7 4 -12 29.92 2.58
7 4 -12 34.25 2.64
-7 -3 12 4.11 1.2
7 3 -12 2.47 1.1
7 3 -12 2.45 1.01
7 3 -12 3.12 1.04
-7 -2 12 18.62 1.89
7 2 -12 11.74 1.57
7 2 -12 11.42 1.63
7 2 -12 12.07 1.53
-7 -1 12 13.36 1.84
7 1 -12 15.18 1.65
7 1 -12 12.88 1.78
7 1 -12 14.13 1.64
-7 0 12 69.37 4.99
-7 0 12 74.73 4.73
7 0 -12 70.54 4.65
7 0 -12 70.07 4.95
7 0 -12 69.26 4.84
7 0 -12 71.98 4.48
-7 1 12 15.14 1.76
-7 1 12 13.5 1.7
7 -1 -12 11.79 1.54
7 -1 -12 14.08 1.66
7 -1 -12 13.78 1.46
-7 2 12 11.3 1.77
-7 2 12 13.16 1.76
7 -2 -12 17.82 1.62
7 -2 -12 16.72 1.84
7 -2 -12 17.55 1.73
-7 3 12 2.05 1.08
-7 3 12 3.34 1.26
7 -3 -12 4.07 1.1
7 -3 -12 4.67 1
7 -3 -12 4.7 1.15
-7 4 12 27.09 2.36
7 -4 -12 27.15 2.48
7 -4 -12 26.79 2.47
7 -4 -12 26.48 2.21
-7 5 12 10.47 1.63
7 -5 -12 13.46 1.72
-7 6 12 0.38 1.19
7 -6 -12 1.36 1.07
-6 -6 12 11.08 1.64
6 6 -12 12.57 1.7
-6 -5 12 7.05 1.39
6 5 -12 4.46 1.2
-6 -4 12 25.29 2.35
6 4 -12 24.95 2.2
6 4 -12 23.51 2.17
-6 -3 12 32.26 2.71
6 3 -12 30.51 2.68
6 3 -12 28.98 2.47
6 3 -12 33.46 2.62
-6 -2 12 6.26 1.33
6 2 -12 9.27 1.42
6 2 -12 8.79 1.26
6 2 -12 8.27 1.2
-6 -1 12 48.93 3.67
-6 -1 12 46.59 3.93
6 1 -12 57.75 3.96
6 1 -12 58.89 3.86
6 1 -12 59.04 3.73
-6 0 12 -0.12 0.87
-6 0 12 -0.22 0.86
-6 0 12 0.89 0.92
6 0 -12 0.08 0.78
6 0 -12 -0.7 0.7
6 0 -12 0.32 0.86
-6 1 12 58.02 3.55
-6 1 12 59.22 3.87
6 -1 -12 45.83 3.3
6 -1 -12 45.09 3.65
6 -1 -12 49.05 3.72
-6 2 12 6.67 1.28
-6 2 12 7.18 1.24
6 -2 -12 7.1 1.09
6 -2 -12 7.67 1.26
6 -2 -12 8.39 1.31
-6 3 12 31.62 2.78
-6 3 12 28.19 2.51
6 -3 -12 33.56 2.66
6 -3 -12 34.82 2.66
6 -3 -12 32.07 2.37
-6 4 12 23.1 2.25
6 -4 -12 23.63 2.24
6 -4 -12 25.06 2.22
-6 5 12 4.03 1.16
6 -5 -12 6.15 1.18
-6 6 12 12.46 1.68
6 -6 -12 12.15 1.62
-5 -6 12 19.2 2.18
5 6 -12 20.69 2.13
-5 -5 12 0.57 0.99
5 5 -12 0.62 0.97
-5 -4 12 9.16 1.45
5 4 -12 8.57 1.34
5 4 -12 7.96 1.25
-5 -3 12 27.07 2.38
5 3 -12 27 2.27
5 3 -12 28.37 2.32
5 3 -12 26.59 2.43
-5 -2 12 36.12 2.79
5 2 -12 30.25 2.67
5 2 -12 31.45 2.58
5 2 -12 32.45 2.51
-5 -1 12 41.13 3.22
5 1 -12 40.15 3.2
5 1 -12 44.49 3.19
5 1 -12 43.7 2.99
-5 0 12 14.21 1.7
-5 0 12 16.07 1.71
-5 0 12 14.09 1.62
5 0 -12 14.89 1.57
5 0 -12 14.59 1.57
5 0 -12 14.53 1.73
-5 1 12 43.3 2.98
-5 1 12 42.71 3.22
5 -1 -12 42.15 3.21
5 -1 -12 41.45 3.12
5 -1 -12 40.88 2.94
5 -1 -12 40.89 2.81
-5 2 12 34.03 2.82
-5 2 12 31.88 2.62
5 -2 -12 34.26 2.74
5 -2 -12 36.66 2.72
5 -2 -12 33.47 2.39
-5 3 12 26.27 2.18
-5 3 12 28.6 2.38
5 -3 -12 24.03 2.22
5 -3 -12 24.77 2.23
5 -3 -12 23.63 1.94
-5 4 12 7.93 1.26
5 -4 -12 7.72 1.27
5 -4 -12 8.91 1.36
-5 5 12 0.58 1.01
5 -5 -12 0.1 0.88
-5 6 12 22.67 2.1
5 -6 -12 17.73 1.89
-4 -6 12 10.01 1.57
4 6 -12 8.68 1.46
-4 -5 12 25.71 2.39
4 5 -12 22.95 2.17
-4 -4 12 28.88 2.68
4 4 -12 34.02 2.59
4 4 -12 34.43 2.58
-4 -3 12 26.32 2.6
4 3 -12 32.9 2.49
4 3 -12 31.12 2.65
4 3 -12 34.81 2.55
-4 -2 12 3.63 1.06
4 2 -12 4.42 1.07
4 2 -12 4.26 0.98
4 2 -12 2.66 0.88
-4 -1 12 12.28 1.43
-4 -1 12 12.46 1.6
4 1 -12 8.78 1.18
4 1 -12 8.13 1.26
4 1 -12 8.3 1.25
-4 0 12 85.64 5.7
-4 0 12 80.97 5.27
4 0 -12 86.53 5.54
4 0 -12 83.49 5.28
4 0 -12 82.48 5.65
-4 1 12 7.25 1.19
-4 1 12 7.63 1.17
-4 1 12 7.21 1.34
-4 1 12 9.18 1.32
4 -1 -12 11.34 1.3
4 -1 -12 10.81 1.29
4 -1 -12 10.49 1.08
4 -1 -12 11.22 1.36
-4 2 12 3.93 1.12
-4 2 12 3.33 0.96
4 -2 -12 4.85 1
4 -2 -12 4.39 0.8
4 -2 -12 5.59 1.06
-4 3 12 33.83 2.44
-4 3 12 31.59 2.64
4 -3 -12 28.44 2.11
4 -3 -12 30.37 2.52
4 -3 -12 30.27 2.52
-4 4 12 33.43 2.39
4 -4 -12 26.95 2.4
4 -4 -12 29.57 2.47
-4 5 12 21.38 2
4 -5 -12 21.72 1.97
-4 6 12 6.92 1.37
4 -6 -12 11.25 1.36
-3 -6 12 3.93 1.24
3 6 -12 6.68 1.34
-3 -5 12 5.06 1.24
3 5 -12 9.45 1.39
-3 -4 12 24.74 2.23
3 4 -12 20.68 2.12
3 4 -12 22.18 1.99
-3 -3 12 10.66 1.52
3 3 -12 13.03 1.51
3 3 -12 11.92 1.45
3 3 -12 13.43 1.7
-3 -2 12 51.62 3.89
3 2 -12 57.98 3.8
3 2 -12 53.41 3.88
3 2 -12 53.81 3.67
-3 -1 12 61.05 4.52
-3 -1 12 61.73 4.42
-3 -1 12 62.73 4.28
3 1 -12 71.24 4.31
3 1 -12 68.22 4.54
3 1 -12 67.66 4.44
-3 0 12 80.29 5.61
-3 0 12 82.98 5.28
3 0 -12 86.05 5.52
3 0 -12 89.86 5.29
3 0 -12 78.9 5.56
-3 1 12 69.45 4.54
-3 1 12 68.29 4.31
-3 1 12 71.34 4.67
-3 1 12 77.28 4.44
-3 1 12 72.66 4.35
3 -1 -12 61.43 4.46
3 -1 -12 60.23 4.01
3 -1 -12 62.56 4.25
3 -1 -12 58.56 4.53
-3 2 12 54.4 3.84
-3 2 12 54.4 3.8
-3 2 12 55.82 3.64
3 -2 -12 49.01 3.29
3 -2 -12 53.65 3.78
3 -2 -12 55.22 3.76
-3 3 12 11.87 1.6
-3 3 12 12.42 1.52
3 -3 -12 11 1.43
3 -3 -12 11.36 1.13
3 -3 -12 12.48 1.5
-3 4 12 17.89 1.89
3 -4 -12 22.4 1.96
3 -4 -12 22.26 2
-3 5 12 7.92 1.24
3 -5 -12 5.12 1.04
-3 6 12 4.9 1.17
3 -6 -12 4.53 0.87
-2 -6 12 20.41 2.15
2 6 -12 19.34 2.11
-2 -5 12 26.16 2.42
2 5 -12 27.88 2.37
-2 -4 12 24.27 2.39
2 4 -12 26.47 2.43
2 4 -12 27.13 2.29
2 4 -12 28.19 2.25
-2 -3 12 10.45 1.55
2 3 -12 13.3 1.48
2 3 -12 14.12 1.75
2 3 -12 14.15 1.59
-2 -2 12 98.9 5.78
-2 -2 12 90.72 6.16
-2 -2 12 96.51 6
2 2 -12 87.26 5.94
2 2 -12 87 5.77
2 2 -12 90.84 6.17
-2 -1 12 15.15 1.55
-2 -1 12 15.56 1.69
-2 -1 12 15.53 1.67
2 1 -12 14.35 1.67
2 1 -12 13.52 1.56
2 1 -12 12.79 1.5
-2 0 12 2.06 0.81
-2 0 12 0.88 0.86
-2 0 12 0.53 0.77
2 0 -12 0.72 0.8
2 0 -12 1.87 0.77
2 0 -12 0.62 0.7
-2 1 12 14.46 1.72
-2 1 12 14.44 1.63
-2 1 12 14.94 1.54
-2 1 12 13.58 1.45
2 -1 -12 15.88 1.63
2 -1 -12 13.85 1.64
2 -1 -12 16.73 1.27
2 -1 -12 16 1.48
-2 2 12 90.03 5.61
-2 2 12 89.54 5.96
-2 2 12 86.17 5.58
-2 2 12 88.03 5.88
-2 2 12 85.27 5.56
2 -2 -12 85.68 5.17
2 -2 -12 96.71 5.88
2 -2 -12 93.04 5.91
-2 3 12 13.02 1.52
-2 3 12 12.13 1.6
-2 3 12 14.2 1.61
2 -3 -12 11.55 1.49
2 -3 -12 11.1 1.44
-2 4 12 29.48 2.18
2 -4 -12 24.93 2.23
2 -4 -12 25.3 2.3
-2 5 12 27.18 2.2
2 -5 -12 27.2 2.19
-2 6 12 17.43 1.79
-1 -6 12 2.69 1.17
1 6 -12 2.2 1.12
-1 -5 12 20.11 2.1
1 5 -12 19.99 2
-1 -4 12 11.26 1.59
1 4 -12 12.22 1.57
1 4 -12 12.8 1.74
1 4 -12 13.97 1.55
-1 -3 12 1.79 0.92
-1 -3 12 2.22 0.96
1 3 -12 3.58 1.08
1 3 -12 3.37 0.89
1 3 -12 3.76 1.01
-1 -2 12 9.21 1.26
-1 -2 12 10.55 1.36
-1 -2 12 10.39 1.42
1 2 -12 8.24 1.22
1 2 -12 8.62 1.3
1 2 -12 9 1.23
1 2 -12 9.41 1.23
1 2 -12 10.89 1.34
-1 -1 12 94.13 5.6
-1 -1 12 93.91 5.74
1 1 -12 79.69 5.67
1 1 -12 77.87 5.47
1 1 -12 76.76 5.27
-1 0 12 40.66 2.9
-1 0 12 38.96 2.99
-1 0 12 40.01 2.85
1 0 -12 37.88 2.99
1 0 -12 39.83 2.77
1 0 -12 38.62 2.92
-1 1 12 74.74 5.47
-1 1 12 77.79 5.59
-1 1 12 79.81 5.3
-1 1 12 73.91 5.2
1 -1 -12 94.88 5.66
1 -1 -12 92.34 5.21
1 -1 -12 93.97 5.54
-1 2 12 8.24 1.15
-1 2 12 8.62 1.33
-1 2 12 8.77 1.33
-1 2 12 8.49 1.22
1 -2 -12 10.07 1.35
1 -2 -12 10.35 0.88
1 -2 -12 9.58 1.27
-1 3 12 3.79 1.07
-1 3 12 3.53 0.94
-1 3 12 2.69 1.01
-1 3 12 3.35 0.95
1 -3 -12 2.06 0.89
1 -3 -12 2.26 0.86
1 -3 -12 1.51 0.43
-1 4 12 13.14 1.73
-1 4 12 9.8 1.31
1 -4 -12 11.62 1.45
1 -4 -12 12.01 1.57
-1 5 12 18.65 1.82
1 -5 -12 23.33 1.85
-1 6 12 2.43 0.94
0 -6 12 1.5 1.17
0 6 -12 -0.08 1.02
0 -5 12 1.19 1.05
0 5 -12 2.39 1.11
0 -4 12 17.81 2.02
0 -4 12 22.71 1.96
0 4 -12 17.68 2.1
0 4 -12 19.02 1.81
0 4 -12 20.23 1.92
0 -3 12 8.85 1.29
0 -3 12 8.77 1.42
0 3 -12 9.46 1.26
0 3 -12 10.99 1.35
0 3 -12 8.59 1.39
0 -2 12 15.79 1.82
0 -2 12 17.15 1.96
0 -2 12 16.67 1.91
0 2 -12 23.97 1.93
0 2 -12 27.05 2.03
0 2 -12 25.73 2.15
0 2 -12 23.33 1.95
0 -1 12 21.5 2.1
0 -1 12 23.43 2.09
0 -1 12 20.7 2.26
0 1 -12 29.73 2.26
0 1 -12 29.29 2.16
0 1 -12 30.66 2.13
0 0 12 15.78 1.59
0 0 12 16.04 1.78
0 0 12 14.23 1.66
0 0 -12 15.54 1.61
0 0 -12 16.36 1.52
0 0 -12 15.48 1.71
0 1 12 28.46 2.18
0 1 12 30.13 2.13
0 1 12 32.48 2.35
0 1 12 30.72 2.28
0 -1 -12 21.98 2.19
0 -1 -12 21.93 2.14
0 -1 -12 20.91 1.94
0 2 12 24.37 2.03
0 2 12 24.94 1.89
0 2 12 22.39 1.79
0 2 12 24.69 2.03
0 -2 -12 17.2 1.77
0 -2 -12 16.59 1.26
0 -2 -12 16.37 1.78
0 3 12 7.55 1.3
0 3 12 8.09 1.12
0 3 12 9.32 1.3
0 -3 -12 7.97 1.16
0 -3 -12 10.45 1.38
0 4 12 18.92 1.97
0 4 12 19.67 1.79
0 4 12 18.07 1.75
0 -4 -12 19.8 1.81
0 -4 -12 20.65 1.99
0 5 12 2.44 0.91
0 5 12 1.95 0.89
0 -5 -12 1.31 0.76
0 6 12 0.63 0.9
0 6 12 0.2 0.92
1 -6 12 10.45 1.64
-1 6 -12 11.72 1.68
1 -5 12 29.17 2.71
-1 5 -12 32.62 2.62
-1 4 -12 20.41 2.19
-1 4 -12 23.55 2.06
-1 4 -12 20.89 1.94
1 -3 12 60.28 3.98
1 -3 12 58.64 3.77
-1 3 -12 47.43 3.6
-1 3 -12 49.81 3.69
-1 3 -12 49.01 3.85
1 -2 12 167.09 10.79
1 -2 12 172.78 10.51
1 -2 12 171.51 10.13
-1 2 -12 154.86 10.07
-1 2 -12 172.33 10.8
-1 2 -12 170.91 10.49
1 -1 12 21.91 2.03
1 -1 12 20.38 1.98
1 -1 12 23.27 2.24
-1 1 -12 26.28 2.01
-1 1 -12 24.31 2.03
-1 1 -12 25.63 2.2
1 0 12 56.01 3.68
1 0 12 54.84 3.92
-1 0 -12 51.67 3.56
-1 0 -12 53.32 3.75
-1 0 -12 53.91 3.88
1 1 12 28.23 2.11
1 1 12 23.04 1.98
1 1 12 25.76 2.21
1 1 12 24.64 2.15
-1 -1 -12 21.49 2.08
-1 -1 -12 22.33 2.02
-1 -1 -12 22.95 1.92
1 2 12 160.78 10.4
1 2 12 160.28 10.23
1 2 12 175.32 9.86
1 2 12 154.86 9.76
-1 -2 -12 168.84 10.24
-1 -2 -12 161.07 10.37
1 3 12 48.17 3.8
1 3 12 46.72 3.55
-1 -3 -12 60.27 3.81
-1 -3 -12 60.91 3.87
1 4 12 20.84 2.02
1 4 12 22.54 2.23
-1 -4 -12 29.35 2.27
-1 -4 -12 29.36 2.13
1 5 12 30.4 2.24
-1 -5 -12 27.45 2.15
1 6 12 10.77 1.41
2 -6 12 6.02 1.41
-2 6 -12 4.54 1.33
2 -5 12 69.32 4.88
-2 5 -12 65.55 4.64
2 -4 12 10.66 1.63
2 -4 12 12.75 1.58
-2 4 -12 9.77 1.37
-2 4 -12 11 1.62
-2 4 -12 10.32 1.49
2 -3 12 46.26 3.74
2 -3 12 45.69 3.96
-2 3 -12 59.71 3.75
-2 3 -12 55 4
-2 3 -12 62.85 3.85
2 -2 12 10.7 1.59
2 -2 12 11.48 1.47
2 -2 12 11.48 1.54
-2 2 -12 15.65 1.61
-2 2 -12 16.11 1.53
-2 2 -12 13.29 1.75
-2 2 -12 14.37 1.5
2 -1 12 120.23 6.49
2 -1 12 112.31 6.89
2 -1 12 114.25 6.75
-2 1 -12 95.02 6.38
-2 1 -12 96.8 6.64
-2 1 -12 94.79 6.05
-2 1 -12 92.28 6.78
2 0 12 0.02 0.81
2 0 12 0.68 0.87
2 0 12 0.69 0.8
-2 0 -12 0.06 0.7
-2 0 -12 0.66 0.86
-2 0 -12 0.38 0.71
-2 0 -12 0.77 0.51
2 1 12 99.26 6.51
2 1 12 96.75 6.9
2 1 12 92.34 6.44
2 1 12 97.72 6.78
-2 -1 -12 118.09 6.85
-2 -1 -12 113.03 6.43
-2 -1 -12 111.07 6.91
-2 -1 -12 110.58 5.95
2 2 12 15.15 1.69
2 2 12 11.97 1.48
2 2 12 14.16 1.65
-2 -2 -12 10.27 1.42
-2 -2 -12 11.24 1.44
2 3 12 55.68 3.66
2 3 12 56.33 3.42
-2 -3 -12 42.37 3.48
-2 -3 -12 45.8 3.55
2 4 12 9.46 1.24
-2 -4 -12 11.82 1.4
-2 -4 -12 11.15 1.46
2 5 12 62.05 4.34
-2 -5 -12 72.33 4.42
2 6 12 4.32 1.03
3 -6 12 3.29 1.3
-3 6 -12 7.35 1.54
3 -5 12 1.72 1.16
-3 5 -12 2.34 1.17
3 -4 12 7.38 1.21
3 -4 12 6.17 1.36
-3 4 -12 3.72 1.22
-3 4 -12 4.09 1.08
-3 4 -12 3.94 1.2
3 -3 12 -0.01 1.03
3 -3 12 0.89 0.9
-3 3 -12 0.27 0.92
-3 3 -12 0.54 0.95
-3 3 -12 0.29 0.82
3 -2 12 138.21 9.31
3 -2 12 144.99 9.05
3 -2 12 141.88 8.71
-3 2 -12 143.85 9.02
-3 2 -12 148.19 8.37
-3 2 -12 137.63 9.25
-3 2 -12 144.77 8.73
3 -1 12 22.62 2.16
3 -1 12 21.66 2.16
3 -1 12 23.31 2.08
-3 1 -12 24.12 1.82
-3 1 -12 24.2 2.12
-3 1 -12 24 2.03
-3 1 -12 23.18 2.14
3 0 12 0.5 0.88
3 0 12 0.84 0.84
3 0 12 1.25 0.96
-3 0 -12 1.39 0.76
-3 0 -12 0.68 0.86
-3 0 -12 0.17 0.72
-3 0 -12 0.62 0.54
3 1 12 23.97 2.18
3 1 12 22.86 2.07
3 1 12 23.53 1.96
-3 -1 -12 21.79 1.41
-3 -1 -12 20.4 2.02
-3 -1 -12 22.01 1.99
3 2 12 136.41 8.64
-3 -2 -12 132.18 8.57
-3 -2 -12 131.46 8.47
3 3 12 0.13 0.84
-3 -3 -12 0.55 0.9
-3 -3 -12 0.56 0.8
3 4 12 4.7 1.05
-3 -4 -12 8.27 1.09
-3 -4 -12 7.6 1.29
3 5 12 2.08 0.93
-3 -5 -12 1.87 0.7
3 6 12 6.94 1.18
4 -6 12 2.55 1.27
-4 6 -12 4.77 1.42
4 -5 12 24.72 2.58
-4 5 -12 30.18 2.56
4 -4 12 3.41 1.28
-4 4 -12 3.54 1.18
-4 4 -12 3.81 1.21
-4 4 -12 3.04 1.02
-4 3 -12 21.67 2.03
-4 3 -12 19.84 2.04
-4 3 -12 20.81 2.24
4 -2 12 4.23 1.18
-4 2 -12 3.03 0.92
-4 2 -12 3.77 1.19
-4 2 -12 2.72 0.99
-4 2 -12 3.81 1.06
4 -1 12 40.57 3
4 -1 12 42.46 2.77
-4 1 -12 33.91 2.91
-4 1 -12 33.44 2.83
-4 1 -12 35.67 2.47
-4 1 -12 33.39 2.69
4 0 12 16.82 1.96
4 0 12 17.21 1.68
-4 0 -12 18.72 1.85
-4 0 -12 16.26 1.73
-4 0 -12 16.8 1.66
-4 0 -12 17.17 1.37
4 1 12 33.72 2.75
4 1 12 33.66 2.91
-4 -1 -12 42.6 3.02
-4 -1 -12 37.17 2.91
-4 -1 -12 40.89 2.26
4 2 12 2.8 1.01
4 2 12 2.51 0.91
-4 -2 -12 2.81 1.03
-4 -2 -12 3.24 0.96
4 3 12 18.98 1.97
-4 -3 -12 26.8 2.16
-4 -3 -12 28.45 2.32
4 4 12 2.92 0.96
-4 -4 -12 4.58 1.2
-4 -4 -12 3.53 0.92
4 5 12 26.41 2.2
-4 -5 -12 27.36 2.03
4 6 12 4.07 1.05
5 -6 12 3.33 1.42
-5 6 -12 4.27 1.48
5 -5 12 37.76 3.35
-5 5 -12 42.73 3.3
5 -4 12 13.72 1.96
-5 4 -12 16.3 2.21
-5 4 -12 20.51 2.06
5 -3 12 8.05 1.47
-5 3 -12 5.91 1.35
-5 3 -12 6.32 1.27
-5 3 -12 8.58 1.39
5 -2 12 15.4 1.82
-5 2 -12 13.06 1.75
-5 2 -12 15.17 1.75
-5 2 -12 13.94 1.73
-5 2 -12 12.98 1.59
5 -1 12 31.04 2.35
5 -1 12 27.58 2.44
-5 1 -12 25.57 2.28
-5 1 -12 24.3 1.96
-5 1 -12 22.95 2.41
-5 1 -12 26.75 2.16
5 0 12 5.63 1.23
5 0 12 6.01 1.16
-5 0 -12 7.02 1.24
-5 0 -12 5.59 0.8
-5 0 -12 5.51 1.16
5 1 12 23.08 2.22
5 1 12 25.06 2.46
-5 -1 -12 30.41 2.42
-5 -1 -12 28.78 2.37
5 2 12 12.55 1.7
5 2 12 13.77 1.62
-5 -2 -12 13.13 1.6
-5 -2 -12 12.8 1.71
5 3 12 6.33 1.19
-5 -3 -12 8.89 1.28
-5 -3 -12 8.89 1.44
5 4 12 15.65 1.64
-5 -4 -12 13.96 1.61
5 5 12 37.56 2.88
-5 -5 -12 40.72 2.75
5 6 12 3.09 1.02
6 -5 12 13.06 1.93
-6 5 -12 13.64 1.92
6 -4 12 25.74 2.49
-6 4 -12 19.76 2.28
-6 4 -12 20.56 2.52
6 -3 12 1.69 1.11
-6 3 -12 2.14 1.14
-6 3 -12 1.58 1.24
6 -2 12 20.94 2.39
-6 2 -12 26.41 2.57
-6 2 -12 26.36 2.11
-6 2 -12 27.08 2.37
6 -1 12 0.82 0.99
6 -1 12 1.85 1.15
-6 1 -12 1.26 0.77
-6 1 -12 1.4 0.95
-6 1 -12 1.68 1.12
6 0 12 7.57 1.33
6 0 12 9.44 1.54
-6 0 -12 8.27 1.45
-6 0 -12 9.27 1.08
-6 0 -12 9.86 1.46
6 1 12 0.94 0.98
6 1 12 1.08 0.95
-6 -1 -12 1.32 0.99
-6 -1 -12 1.4 1.03
6 2 12 25.33 2.18
-6 -2 -12 20.96 2.14
6 3 12 0.76 0.97
-6 -3 -12 1.4 0.95
6 4 12 18.81 1.99
-6 -4 -12 25 2.03
6 5 12 13.13 1.65
-6 -5 -12 12.7 1.36
7 -5 12 30.73 2.98
7 -4 12 5.42 1.44
-7 4 -12 6.69 1.7
7 -3 12 8.41 1.55
-7 3 -12 5.25 1.45
7 -2 12 19.15 2.32
-7 2 -12 22.05 2.39
7 -1 12 21.36 1.97
7 -1 12 22.35 2.31
-7 1 -12 17.4 2.19
-7 1 -12 17.07 1.68
7 0 12 3.36 1.09
7 0 12 2.23 1.18
-7 0 -12 3.26 1.24
7 1 12 17.2 2.17
7 1 12 18.15 1.95
-7 -1 -12 21.91 2.12
7 2 12 19.51 1.94
-7 -2 -12 18.68 1.99
7 3 12 4.88 1.22
-7 -3 -12 8.76 1.31
7 4 12 4.11 1.16
-7 -4 -12 4.35 1.09
7 5 12 33.25 2.58
-7 -5 -12 29.79 2.28
-7 -5 -12 29.16 2.28
8 -5 12 6.91 1.68
8 -4 12 10.89 1.93
-8 4 -12 13.02 1.99
8 -3 12 2.38 1.36
-8 3 -12 4.23 1.43
8 -2 12 45.6 3.83
-8 2 -12 47.22 3.77
8 -1 12 66.69 4.7
-8 1 -12 56.75 4.6
8 0 12 9.2 1.59
8 0 12 10.09 1.54
-8 0 -12 10.43 1.67
8 1 12 59.03 4.21
8 1 12 58.89 4.51
-8 -1 -12 63.75 4.48
8 2 12 49.97 3.54
-8 -2 -12 46.3 3.68
8 3 12 3.4 1.19
-8 -3 -12 3.11 1.13
8 4 12 9.33 1.51
-8 -4 -12 13.76 1.63
8 5 12 4.88 1.26
9 -4 12 5.08 1.65
-9 4 -12 2.97 1.6
9 -3 12 21.45 2.66
-9 3 -12 25.97 2.65
-9 2 -12 60.09 4.61
9 -1 12 56.36 4.16
-9 1 -12 45.68 3.93
9 0 12 2.18 1.33
9 0 12 2.99 1.23
-9 0 -12 4.85 1.38
9 1 12 46.7 3.78
9 1 12 46.91 3.59
-9 -1 -12 50.51 3.8
9 2 12 60.1 4.09
-9 -2 -12 53.76 4.18
9 3 12 27.37 2.37
-9 -3 -12 20.33 2.25
9 4 12 3.4 1.21
-9 -4 -12 6.12 1.22
10 -4 12 2.54 1.54
10 -3 12 2.16 1.51
-10 3 -12 2.21 1.56
10 -2 12 14.76 2.19
-10 2 -12 14.75 2.17
10 -1 12 17.67 2.38
-10 1 -12 16.53 2.3
10 0 12 11.55 1.82
-10 0 -12 9.97 1.78
10 1 12 19.2 2.19
-10 -1 -12 17.22 2.19
10 2 12 13.95 1.88
-10 -2 -12 17.22 2.12
10 3 12 3.34 1.21
-10 -3 -12 -0.37 1.09
10 4 12 3.17 1.21
-10 -4 -12 3.13 1.17
11 -3 12 4.8 1.61
-11 3 -12 8.07 1.95
11 -2 12 1.71 1.53
-11 2 -12 1.69 1.53
11 -1 12 12.33 2.08
-11 1 -12 10.39 1.89
11 0 12 57 4.51
-11 0 -12 53.26 4.34
11 1 12 12.33 1.81
-11 -1 -12 11.43 1.87
11 2 12 1.18 1.25
-11 -2 -12 1.73 1.3
11 3 12 6.82 1.57
-11 -3 -12 5.82 1.43
12 -2 12 23.38 2.9
-12 2 -12 25.01 3.02
12 -1 12 6.51 1.81
-12 1 -12 8.86 1.94
-12 0 -12 19.31 2.5
-12 -1 -12 8.92 1.78
12 2 12 19.89 2.31
-12 -2 -12 20.66 2.37
13 -1 12 17.45 2.51
-13 1 -12 12 2.25
-13 0 -12 2.21 1.57
-13 -1 -12 12.84 2.06
-14 -1 13 10.85 2.1
14 1 -13 13.12 2.17
-14 0 13 5.44 1.78
14 0 -13 8.04 1.74
-14 1 13 10.59 2.05
14 -1 -13 9.01 1.92
-13 -3 13 26.43 2.96
-13 -2 13 3.83 1.56
-13 -1 13 27.9 2.91
13 1 -13 24.32 2.85
-13 0 13 13.34 2.2
13 0 -13 9.66 1.84
-13 1 13 26.61 3.07
13 -1 -13 30.34 2.89
-13 2 13 2.1 1.54
13 -2 -13 3.09 1.4
13 -3 -13 23.67 2.7
-12 -3 13 12.79 2
-12 -2 13 7.63 1.71
-12 -1 13 4.07 1.46
12 1 -13 5.68 1.49
-12 0 13 1.34 1.48
12 0 -13 1.22 1.34
-12 1 13 7.25 1.77
12 -1 -13 4.25 1.51
-12 2 13 11.17 1.99
12 -2 -13 8.1 1.73
12 -3 -13 13.73 2.06
-11 -4 13 12.29 1.93
11 4 -13 13.74 1.91
-11 -3 13 6.4 1.55
11 3 -13 3.66 1.33
-11 -2 13 9 1.76
11 2 -13 9.32 1.68
-11 -1 13 1.05 1.21
11 1 -13 2 1.31
-11 0 13 1.87 1.39
11 0 -13 0.84 1.26
-11 1 13 1.99 1.45
11 -1 -13 0.13 1.21
-11 2 13 10.26 1.81
11 -2 -13 8.96 1.72
11 -3 -13 4.6 1.49
11 -4 -13 11.8 1.87
-10 -4 13 5.87 1.49
10 4 -13 4.55 1.41
-10 -3 13 0.94 1.24
10 3 -13 3.26 1.24
-10 -2 13 1.19 1.29
10 2 -13 1.86 1.14
10 2 -13 0.7 1.08
-10 -1 13 32.49 2.89
10 1 -13 28.04 2.74
-10 0 13 11.46 1.84
10 0 -13 12.11 1.75
-10 1 13 31.19 2.89
10 -1 -13 30.67 2.81
-10 2 13 1.46 1.39
10 -2 -13 1.61 1.22
-10 3 13 1.18 1.27
10 -3 -13 2.93 1.28
-10 4 13 5.81 1.55
10 -4 -13 5.24 1.48
-9 -5 13 -0.22 1.22
9 5 -13 -0.35 1.18
-9 -4 13 9.7 1.63
9 4 -13 6.82 1.45
-9 -3 13 1.86 1.21
9 3 -13 1.48 1.14
-9 -2 13 26.79 2.74
9 2 -13 31.74 2.6
9 2 -13 29.52 2.77
-9 -1 13 2.71 1.29
9 1 -13 4 1.28
-9 0 13 7.86 1.56
9 0 -13 7.26 1.51
-9 1 13 4.05 1.31
9 -1 -13 3.51 1.26
9 -1 -13 3.94 1.09
-9 2 13 28.8 2.71
-9 2 13 29.7 2.63
9 -2 -13 27.45 2.65
9 -2 -13 26.52 2.36
-9 3 13 0.41 1.14
9 -3 -13 0.42 1.07
-9 4 13 7.18 1.6
9 -4 -13 12.27 1.74
-9 5 13 -0.12 1.29
9 -5 -13 0.74 1.19
-8 -5 13 21.53 2.38
8 5 -13 21.98 2.24
-8 -4 13 4.56 1.33
8 4 -13 3.19 1.2
-8 -3 13 14.5 1.94
8 3 -13 13.56 1.79
8 3 -13 14.68 1.93
-8 -2 13 1.37 1.09
8 2 -13 1.93 1.03
8 2 -13 1.9 1.03
-8 -1 13 15.75 2.11
8 1 -13 19.47 2.01
8 1 -13 18.08 1.94
-8 0 13 7.61 1.49
8 0 -13 6.58 1.12
8 0 -13 6.46 1.32
-8 1 13 16.84 2.17
-8 1 13 18.2 1.99
8 -1 -13 17.7 1.76
8 -1 -13 17.16 1.92
-8 2 13 1.75 1.27
-8 2 13 1.76 1.04
8 -2 -13 1.7 0.94
8 -2 -13 2.74 1.05
-8 3 13 11.46 1.67
8 -3 -13 13.96 1.65
8 -3 -13 14.43 1.85
-8 4 13 2.84 1.23
8 -4 -13 3.91 1.28
-8 5 13 23 2.42
8 -5 -13 19.26 2.22
-7 -5 13 16.92 2.2
7 5 -13 21.23 2.11
-7 -4 13 1.65 1.15
7 4 -13 -0.09 1.03
-7 -3 13 2.76 1.2
7 3 -13 4.39 1.24
7 3 -13 3.81 1.14
-7 -2 13 29.7 2.56
7 2 -13 28.21 2.61
7 2 -13 26.47 2.37
-7 -1 13 43.1 3.27
7 1 -13 36.58 3.09
7 1 -13 37.39 2.92
-7 0 13 16.15 1.89
-7 0 13 15.64 1.92
7 0 -13 14.75 1.79
7 0 -13 15.5 1.61
-7 1 13 34.55 3.1
-7 1 13 38.18 3.01
7 -1 -13 41.7 3.14
7 -1 -13 42.22 2.82
-7 2 13 26.79 2.56
-7 2 13 26.56 2.47
7 -2 -13 28.31 2.29
7 -2 -13 31.77 2.61
-7 3 13 4.62 1.22
7 -3 -13 1.37 0.86
7 -3 -13 2.43 1.09
-7 4 13 0.43 1.12
7 -4 -13 1.57 1.09
-7 5 13 18.59 2.11
7 -5 -13 20.38 2.12
-6 -6 13 8.07 1.52
6 6 -13 8.55 1.54
-6 -5 13 3.67 1.26
6 5 -13 4.53 1.24
-6 -4 13 18.31 2.04
6 4 -13 16.93 1.99
-6 -3 13 9.35 1.66
6 3 -13 13.62 1.69
6 3 -13 16.23 1.74
6 3 -13 15.79 1.87
-6 -2 13 9.64 1.47
6 2 -13 5.51 1.28
6 2 -13 6.76 1.27
6 2 -13 5.99 1.2
-6 -1 13 8.31 1.37
6 1 -13 5.92 1.15
6 1 -13 5.86 1.22
6 1 -13 5.44 1.14
-6 0 13 11.24 1.48
-6 0 13 11.18 1.47
-6 0 13 10.49 1.62
6 0 -13 10.74 1.48
6 0 -13 10.34 1.39
6 0 -13 11.01 1.52
-6 1 13 5.68 1.19
-6 1 13 6.14 1.39
6 -1 -13 11.71 1.46
6 -1 -13 8.75 1.31
6 -1 -13 8.92 1.16
-6 2 13 6.41 1.4
-6 2 13 6.8 1.28
6 -2 -13 7.48 1.12
6 -2 -13 9.02 1.35
6 -2 -13 8.85 1.37
-6 3 13 15.67 1.73
6 -3 -13 10.08 1.31
6 -3 -13 11.66 1.62
-6 4 13 15.25 1.88
6 -4 -13 19.5 2
-6 5 13 2.16 1.14
6 -5 -13 3.29 1.09
-6 6 13 9.83 1.6
6 -6 -13 7.6 1.33
-5 -6 13 21.74 2.27
5 6 -13 18.97 2.24
-5 -5 13 34.63 2.9
5 5 -13 32.4 2.74
-5 -4 13 3.7 1.23
5 4 -13 6.5 1.25
5 4 -13 6.84 1.27
-5 -3 13 11.1 1.56
5 3 -13 7.94 1.4
5 3 -13 7.99 1.3
5 3 -13 6.73 1.29
-5 -2 13 5.1 1.21
5 2 -13 6.27 1.19
5 2 -13 5.78 1.18
5 2 -13 6.52 1.2
-5 -1 13 54.48 4.19
-5 -1 13 56.35 3.86
5 1 -13 56.6 4.18
5 1 -13 60.03 3.94
5 1 -13 60.57 4.1
-5 0 13 -0.08 0.92
-5 0 13 1.18 0.91
5 0 -13 0.38 0.81
5 0 -13 0.5 0.84
5 0 -13 1.36 0.95
-5 1 13 61.84 4.01
-5 1 13 61.82 4.32
-5 1 13 62.2 4.04
5 -1 -13 54.04 4.16
5 -1 -13 55.31 3.72
5 -1 -13 56.97 4.13
-5 2 13 6.05 1.32
-5 2 13 5.93 1.18
5 -2 -13 5.56 0.96
5 -2 -13 6.07 1.19
5 -2 -13 6.47 1.22
-5 3 13 6.92 1.47
5 -3 -13 12.87 1.62
5 -3 -13 11.74 1.33
5 -3 -13 11.18 1.48
-5 4 13 4.16 1.16
5 -4 -13 4.57 1.09
5 -4 -13 5.26 1.2
-5 5 13 36.86 2.82
5 -5 -13 32.07 2.76
-5 6 13 20.23 2.16
5 -6 -13 21.6 2.06
-4 -6 13 5.78 1.43
4 6 -13 4.11 1.36
-4 -5 13 3.39 1.27
4 5 -13 4.96 1.25
-4 -4 13 24.89 2.49
4 4 -13 27.03 2.28
4 4 -13 24.69 2.26
-4 -3 13 30.36 2.7
4 3 -13 31.21 2.71
4 3 -13 29.58 2.5
4 3 -13 33.13 2.58
-4 -2 13 24.25 2.54
4 2 -13 32.67 2.5
4 2 -13 33.19 2.57
4 2 -13 33.63 2.71
-4 -1 13 2.41 0.88
-4 -1 13 1.77 1.08
4 1 -13 1.56 0.88
4 1 -13 2.39 0.95
4 1 -13 2.57 0.94
-4 0 13 52.43 3.55
-4 0 13 49.24 3.74
4 0 -13 49.8 3.76
4 0 -13 50.64 3.64
4 0 -13 52.56 3.53
-4 1 13 1.55 0.96
-4 1 13 1.82 1.06
-4 1 13 3.35 1.02
4 -1 -13 3.68 0.97
4 -1 -13 1.9 0.94
4 -1 -13 2.96 0.76
-4 2 13 33.32 2.41
-4 2 13 33.59 2.61
4 -2 -13 25.89 2.34
4 -2 -13 26.35 2.38
4 -2 -13 23.77 1.98
-4 3 13 28.52 2.41
4 -3 -13 29.56 2.49
4 -3 -13 27.63 2.05
4 -3 -13 29.5 2.42
-4 4 13 24.66 2.19
4 -4 -13 26.71 2.31
4 -4 -13 24.18 2.24
-4 5 13 4.05 1.17
4 -5 -13 4.34 1.1
-4 6 13 4.39 1.24
4 -6 -13 6.59 1.09
-3 -6 13 7.63 1.56
3 6 -13 8.45 1.5
-3 -5 13 3.06 1.18
3 5 -13 3.29 1.2
-3 -4 13 22.16 2.25
3 4 -13 19.12 2.01
3 4 -13 20.02 1.94
-3 -3 13 7.71 1.44
3 3 -13 11.16 1.45
3 3 -13 10.35 1.48
3 3 -13 11.61 1.49
-3 -2 13 78.21 5.43
3 2 -13 79.8 5.07
3 2 -13 76.73 5.21
3 2 -13 77.51 5.39
-3 -1 13 24.82 2.18
-3 -1 13 28.8 2.11
3 1 -13 20.06 1.99
3 1 -13 21.11 1.98
3 1 -13 18.46 2.11
-3 0 13 -0.54 0.86
-3 0 13 0.13 0.81
3 0 -13 0.02 0.78
3 0 -13 0.2 0.77
3 0 -13 0.06 0.8
-3 1 13 18.04 2.05
-3 1 13 19.16 1.95
3 -1 -13 26.5 2.16
3 -1 -13 26.8 2.19
3 -1 -13 24.54 1.73
-3 2 13 72.72 4.82
-3 2 13 73.22 4.8
-3 2 13 77.95 5.17
3 -2 -13 79.29 5.06
3 -2 -13 74.81 5.08
3 -2 -13 68.12 4.41
-3 3 13 11.92 1.43
3 -3 -13 6.52 1.21
3 -3 -13 6.84 1.25
-3 4 13 19.39 2.01
3 -4 -13 23.14 2.06
3 -4 -13 23.25 2.12
-3 5 13 2.8 1.08
3 -5 -13 2.85 0.95
-3 6 13 9.27 1.39
3 -6 -13 6.53 1.07
-2 -6 13 5.38 1.41
2 6 -13 6.15 1.38
-2 -5 13 6.16 1.4
2 5 -13 5.96 1.3
-2 -4 13 17.77 2.11
2 4 -13 20.63 1.93
2 4 -13 23.45 2.09
-2 -3 13 26.75 2.77
2 3 -13 35.76 2.67
2 3 -13 35.31 2.87
2 3 -13 36.2 2.7
-2 -2 13 60.33 4.42
-2 -2 13 59.25 4.58
2 2 -13 66.09 4.33
2 2 -13 69.19 4.49
2 2 -13 68.69 4.64
-2 -1 13 9 1.32
-2 -1 13 8.22 1.39
2 1 -13 8.3 1.34
2 1 -13 8.06 1.21
2 1 -13 6.77 1.17
-2 0 13 0.46 1.01
-2 0 13 0.04 0.86
2 0 -13 0.09 0.79
2 0 -13 0.01 0.79
2 0 -13 -0.22 0.73
-2 1 13 7.62 1.34
-2 1 13 8.19 1.35
-2 1 13 8.52 1.23
2 -1 -13 7.89 1.25
2 -1 -13 8.85 1.01
2 -1 -13 7.33 1.24
-2 2 13 68.92 4.45
-2 2 13 62.48 4.08
2 -2 -13 58.45 3.68
2 -2 -13 59.3 4.28
2 -2 -13 60.11 4.32
-2 3 13 35.28 2.62
-2 3 13 35.01 2.51
2 -3 -13 27.83 2.58
2 -3 -13 31.52 2.62
-2 4 13 22.18 1.89
2 -4 -13 16.8 1.85
2 -4 -13 15.96 1.87
-2 5 13 6.3 1.18
2 -5 -13 6.28 1.09
-2 6 13 4.83 1.17
-1 -6 13 3.46 1.31
1 6 -13 3.37 1.23
-1 -5 13 7.99 1.49
1 5 -13 7.99 1.41
-1 -4 13 22.27 2.34
1 4 -13 26.47 2.28
1 4 -13 25.57 2.18
1 4 -13 23.9 2.43
-1 -3 13 27.9 2.51
-1 -3 13 28.56 2.62
1 3 -13 28.56 2.39
1 3 -13 30.57 2.42
1 3 -13 28.98 2.62
-1 -2 13 28.88 2.57
-1 -2 13 25.95 2.54
1 2 -13 34.68 2.51
1 2 -13 31 2.45
1 2 -13 33.04 2.69
-1 -1 13 18.93 1.98
-1 -1 13 19.99 2.16
1 1 -13 23.1 2.17
1 1 -13 23.34 2.05
1 1 -13 24.18 1.98
-1 0 13 186.57 11.27
-1 0 13 189.17 12.02
1 0 -13 187.57 11.71
1 0 -13 190.35 11.24
1 0 -13 188.82 11.98
-1 1 13 22.71 2.07
-1 1 13 19.41 1.82
-1 1 13 21.81 2.11
1 -1 -13 19.01 1.97
1 -1 -13 18.01 1.84
-1 2 13 34.75 2.64
-1 2 13 31.77 2.35
1 -2 -13 26.99 1.88
1 -2 -13 28.87 2.46
1 -2 -13 27.92 2.43
-1 3 13 29.06 2.24
-1 3 13 28.86 2.27
1 -3 -13 26.99 2.38
1 -3 -13 25.96 2.29
-1 4 13 26.92 2.18
-1 4 13 24 2.1
1 -4 -13 23.18 2.14
1 -4 -13 22.4 2.19
-1 5 13 7.72 1.27
-1 5 13 8.42 1.27
1 -5 -13 8.13 1.15
-1 6 13 2.61 1.1
0 -6 13 5.15 1.41
0 6 -13 4.55 1.38
0 -5 13 11.09 1.66
0 5 -13 8.44 1.49
0 -4 13 10.47 1.58
0 4 -13 11.76 1.5
0 4 -13 8.39 1.55
0 4 -13 10.2 1.39
0 -3 13 59.95 4.15
0 -3 13 60.02 3.98
0 3 -13 51.97 3.81
0 3 -13 52.3 3.89
0 3 -13 52.83 4.11
0 -2 13 13.4 1.86
0 -2 13 13.64 1.75
0 2 -13 16.25 1.86
0 2 -13 17.24 1.7
0 2 -13 13.44 1.56
0 -1 13 30.38 2.48
0 -1 13 32.9 2.64
0 -1 13 33.97 2.77
0 1 -13 31.35 2.61
0 1 -13 30.89 2.56
0 1 -13 31.94 2.44
0 0 13 72.62 5
0 0 -13 69.85 4.81
0 0 -13 69.66 4.9
0 0 -13 73.38 4.59
0 1 13 32.1 2.46
0 1 13 31.76 2.66
0 1 13 32.18 2.58
0 -1 -13 29.71 2.49
0 -1 -13 31.07 2.58
0 2 13 13.98 1.59
0 2 13 13.39 1.72
0 -2 -13 13.11 1.63
0 -2 -13 14.45 1.63
0 -2 -13 14.31 1.01
0 3 13 51.39 3.82
0 -3 -13 60.07 4.05
0 -3 -13 61.17 4.1
0 4 13 10.93 1.44
0 -4 -13 9.99 1.48
0 -4 -13 11.88 1.41
0 5 13 6.27 1.19
0 5 13 7.31 1.23
0 -5 -13 11.18 1.32
0 6 13 5.63 1.2
0 6 13 5.1 1.17
1 -6 13 15.38 2.11
-1 6 -13 17.03 2.06
1 -5 13 9.75 1.67
-1 5 -13 10.77 1.6
1 -4 13 1.96 1.14
-1 4 -13 3.32 1.18
-1 4 -13 1.69 1.06
-1 4 -13 2.8 1.02
1 -3 13 2.05 1.11
-1 3 -13 1.6 0.95
-1 3 -13 1.33 0.91
-1 3 -13 1.03 0.98
1 -2 13 24.69 2.41
-1 2 -13 26.62 2.34
-1 2 -13 29.46 2.31
-1 2 -13 28.93 2.45
1 -1 13 70.39 4.53
1 -1 13 68.81 4.69
1 -1 13 67.89 4.32
-1 1 -13 60.39 4.26
-1 1 -13 59.39 4.53
-1 1 -13 62.63 4.45
1 0 13 43.66 3.36
-1 0 -13 44.2 3.26
-1 0 -13 45.21 3.1
-1 0 -13 43.38 3.34
1 1 13 60.67 4.52
-1 -1 -13 65.18 4.48
-1 -1 -13 65.73 4.45
1 2 13 27.09 2.22
1 2 13 29.13 2.37
-1 -2 -13 22.37 2.2
-1 -2 -13 25.25 2.21
1 3 13 1.76 0.87
-1 -3 -13 1.27 0.95
-1 -3 -13 1.77 0.9
1 4 13 2.39 0.91
-1 -4 -13 1.36 0.87
-1 -4 -13 1.91 1.06
1 5 13 9.39 1.35
-1 -5 -13 10.08 1.3
1 6 13 15.28 1.72
2 -6 13 2.83 1.34
-2 6 -13 0.07 1.22
2 -5 13 16.69 1.99
-2 5 -13 11.47 1.76
2 -4 13 25.28 2.59
-2 4 -13 27.83 2.67
-2 4 -13 28.5 2.45
-2 4 -13 28.77 2.5
2 -3 13 7.55 1.47
-2 3 -13 11.24 1.45
-2 3 -13 10.17 1.41
-2 3 -13 12.16 1.64
2 -2 13 0.14 1.03
-2 2 -13 2.68 0.98
-2 2 -13 1.45 0.98
-2 2 -13 2.59 0.93
-2 2 -13 2.68 0.86
2 -1 13 41.56 3.18
2 -1 13 38.34 2.89
-2 1 -13 37.58 2.99
-2 1 -13 36.73 3.09
-2 1 -13 41.1 2.83
-2 1 -13 37.5 2.62
2 0 13 24.54 2.27
2 0 13 21.52 2.01
-2 0 -13 24.45 1.75
-2 0 -13 27.42 2.09
-2 0 -13 25.63 2.31
-2 0 -13 24 2.15
2 1 13 37.81 3.06
-2 -1 -13 37.09 2.27
-2 -1 -13 39.97 2.97
-2 -1 -13 35.93 2.94
2 2 13 3.5 1.08
2 2 13 2.24 0.93
-2 -2 -13 -0.56 0.83
-2 -2 -13 -0.35 0.79
2 3 13 10.45 1.31
-2 -3 -13 8.02 1.34
-2 -3 -13 8.24 1.26
2 4 13 26.8 2.2
-2 -4 -13 26.5 2.44
-2 -4 -13 26.38 2.22
2 5 13 10.92 1.47
-2 -5 -13 15.96 1.49
2 6 13 1.31 0.94
3 -6 13 1.03 1.27
-3 6 -13 1.82 1.29
3 -5 13 12.02 1.81
3 -4 13 7.61 1.53
-3 4 -13 7.21 1.3
-3 4 -13 7.97 1.45
-3 4 -13 9.4 1.62
3 -3 13 39.65 3.15
-3 3 -13 35.9 2.87
-3 3 -13 34.95 3.01
-3 3 -13 34.13 2.85
3 -2 13 39.26 3.12
-3 2 -13 37.26 2.93
-3 2 -13 35.86 2.69
-3 2 -13 40.11 2.91
-3 2 -13 36.52 3.04
3 -1 13 28.92 2.47
3 -1 13 24.51 2.52
-3 1 -13 30.98 2.18
-3 1 -13 32.27 2.43
-3 1 -13 30.9 2.55
-3 1 -13 31.13 2.64
3 0 13 50.65 3.55
3 0 13 50.07 3.87
-3 0 -13 55.05 3.8
-3 0 -13 52.38 3.84
-3 0 -13 51.23 3.18
3 1 13 30.4 2.34
3 1 13 30.75 2.58
-3 -1 -13 25.12 2.35
-3 -1 -13 27.14 2.41
3 2 13 35.39 3.02
3 2 13 36.34 2.8
-3 -2 -13 38.98 2.96
-3 -2 -13 41.63 3.06
3 3 13 32.03 2.69
-3 -3 -13 38.79 2.9
-3 -3 -13 37.76 2.84
3 4 13 7.03 1.21
-3 -4 -13 7.27 1.17
3 5 13 16.84 1.73
-3 -5 -13 12.93 1.42
3 6 13 0.46 0.95
4 -6 13 15.25 2.13
-4 6 -13 18.18 2.23
4 -5 13 3.36 1.34
-4 5 -13 3.47 1.32
4 -4 13 10.49 1.74
-4 4 -13 13.1 1.84
-4 4 -13 14.11 1.73
-4 4 -13 15.18 1.83
4 -3 13 2.79 1.26
-4 3 -13 4.14 1.19
-4 3 -13 3.34 1.11
-4 3 -13 2.87 1.19
-4 2 -13 37.61 2.94
-4 2 -13 40.88 3.08
-4 2 -13 35.54 3.11
-4 2 -13 39.08 2.74
4 -1 13 16.16 2
4 -1 13 13.97 1.75
-4 1 -13 16.37 1.96
-4 1 -13 15.89 1.47
-4 1 -13 14.09 1.69
4 0 13 74.55 4.81
4 0 13 71.18 5.09
-4 0 -13 73.03 4.98
-4 0 -13 73.03 4.32
-4 0 -13 70.52 5.09
4 1 13 15.24 1.72
4 1 13 16.12 1.91
-4 -1 -13 15.22 1.82
-4 -1 -13 14.7 1.71
4 2 13 37.62 2.75
4 2 13 34.51 2.49
-4 -2 -13 27.42 2.61
-4 -2 -13 24.72 2.49
4 3 13 4.49 1.12
-4 -3 -13 3.48 1.03
4 4 13 12.05 1.54
-4 -4 -13 9.65 1.35
4 5 13 3.06 1.08
-4 -5 -13 3.23 0.83
4 6 13 15.04 1.75
5 -5 13 8.02 1.62
-5 5 -13 4.71 1.49
5 -4 13 21.27 2.41
-5 4 -13 19.64 2.47
-5 4 -13 23.26 2.32
5 -3 13 30.03 2.99
-5 3 -13 33.87 2.95
-5 3 -13 36.62 2.86
5 -2 13 2.19 1.18
-5 2 -13 4.84 1.07
-5 2 -13 4.31 1.23
5 -1 13 37.76 3.14
5 -1 13 36.27 2.94
-5 1 -13 39.62 3.19
-5 1 -13 37.98 2.61
5 0 13 14.57 1.97
5 0 13 14.36 1.64
-5 0 -13 14.21 1.74
5 1 13 34 2.79
5 1 13 39.74 3.11
-5 -1 -13 35.05 2.94
5 2 13 3.6 1.05
-5 -2 -13 2.64 1.03
5 3 13 32.42 2.49
-5 -3 -13 29.35 2.58
5 4 13 19.86 1.99
-5 -4 -13 21.36 1.98
5 5 13 4.23 1.2
-5 -5 -13 8.58 1.06
6 -5 13 2.65 1.38
6 -4 13 39.86 3.48
-6 4 -13 39.84 3.56
6 -3 13 4.65 1.43
-6 3 -13 1.93 1.34
6 -2 13 11.22 1.82
-6 2 -13 12.34 1.77
6 -1 13 15.11 1.98
6 -1 13 14.78 2.17
-6 1 -13 22.25 1.75
-6 1 -13 23.73 2.19
6 0 13 8.92 1.48
6 0 13 8.86 1.56
-6 0 -13 10.84 1.56
6 1 13 23.65 2.43
6 1 13 23.26 2.18
6 2 13 10.09 1.51
-6 -2 -13 10.87 1.53
6 3 13 3 1.08
-6 -3 -13 4.67 1.15
6 4 13 41.18 2.95
-6 -4 -13 34.92 2.89
6 5 13 3.52 1.11
-6 -5 -13 2.22 0.85
7 -5 13 4.3 1.53
7 -4 13 8.28 1.79
-7 4 -13 12.97 1.96
7 -3 13 21.2 2.33
-7 3 -13 18.83 2.48
7 -2 13 59.38 4.43
-7 2 -13 54 4.32
7 -1 13 12.9 1.9
-7 1 -13 15.17 1.92
7 0 13 65.77 4.51
7 0 13 63.88 4.86
-7 0 -13 65.58 4.8
7 1 13 16.74 1.93
7 1 13 19.11 2.22
-7 -1 -13 12.81 1.85
7 2 13 55.91 3.94
-7 -2 -13 55.23 4.11
7 3 13 20.94 2.14
-7 -3 -13 20.66 2.12
7 4 13 10.12 1.53
-7 -4 -13 9.55 1.43
7 5 13 2.01 1.17
-7 -5 -13 3.11 0.93
8 -4 13 1.35 1.42
-8 4 -13 2.14 1.54
8 -3 13 24.82 2.88
-8 3 -13 33.87 3.12
8 -2 13 3.52 1.49
-8 2 -13 2.7 1.44
8 -1 13 6.41 1.59
-8 1 -13 6.57 1.51
8 0 13 11.6 1.69
8 0 13 9.85 1.68
-8 0 -13 10.51 1.73
8 1 13 6.59 1.41
8 1 13 4.91 1.43
-8 -1 -13 7.34 1.45
8 2 13 3.61 1.25
-8 -2 -13 3.96 1.25
8 3 13 29.14 2.55
-8 -3 -13 25.43 2.47
8 4 13 1.45 1.12
-8 -4 -13 2.48 1.1
9 -4 13 4.24 1.53
9 -3 13 -0.83 1.3
-9 3 -13 0.06 1.31
9 -2 13 13.52 1.94
-9 2 -13 6.43 1.73
9 -1 13 14.98 2.19
-9 1 -13 16.3 2.25
9 0 13 64.72 4.86
-9 0 -13 61.52 4.75
9 1 13 17.79 2.07
-9 -1 -13 13.22 1.9
9 2 13 6.36 1.43
9 3 13 0.83 1.1
-9 -3 -13 0.55 1.13
9 4 13 3.35 1.28
-9 -4 -13 1.74 1.13
10 -3 13 17.86 2.43
-10 3 -13 18.72 2.56
10 -2 13 4.93 1.68
-10 2 -13 4.35 1.54
10 -1 13 30.9 3.17
-10 1 -13 37.88 3.33
10 0 13 6.38 1.71
-10 0 -13 6.81 1.65
10 1 13 35.86 2.93
-10 -1 -13 26.88 2.85
10 2 13 4.42 1.36
-10 -2 -13 4.82 1.48
10 3 13 14.53 1.94
-10 -3 -13 16.89 2.07
11 -3 13 22.56 2.91
-11 3 -13 25.08 3.06
11 -2 13 -0.19 1.49
-11 2 -13 -0.07 1.48
11 -1 13 26.29 3
-11 1 -13 24.59 2.72
-11 0 -13 15.25 2.21
-11 -1 -13 26.22 2.77
11 2 13 -0.12 1.22
-11 -2 -13 0.34 1.2
11 3 13 23.2 2.47
-11 -3 -13 22.43 2.46
12 -1 13 14.44 2.34
-12 1 -13 11.68 2.2
-12 0 -13 6.9 1.7
-12 -1 -13 11.49 1.98
-13 -2 14 3.14 1.59
-13 -1 14 3.25 1.65
13 1 -14 5.68 1.69
-13 0 14 14.88 2.33
13 0 -14 15.07 2.29
-13 1 14 3.4 1.78
13 -1 -14 3.33 1.59
-13 2 14 2.34 1.74
13 -2 -14 3.38 1.59
-12 -3 14 10.49 1.93
-12 -2 14 6.24 1.72
-12 -1 14 7.56 1.84
12 1 -14 13.26 2.03
-12 0 14 12.45 2.1
12 0 -14 13.87 2.1
-12 1 14 11.5 2.07
12 -1 -14 8.05 1.74
-12 2 14 5.32 1.83
12 -2 -14 5.42 1.55
12 -3 -14 14.31 2.14
-11 -3 14 3.87 1.52
-11 -2 14 15.24 2.07
11 2 -14 13.11 1.98
-11 -1 14 6.25 1.64
11 1 -14 7.08 1.64
-11 0 14 24.17 2.77
11 0 -14 26.34 2.63
-11 1 14 7.91 1.79
11 -1 -14 7.86 1.6
-11 2 14 14.26 2.24
11 -2 -14 15.75 2.14
11 -3 -14 3.8 1.45
-10 -4 14 3.95 1.52
10 4 -14 3.45 1.38
-10 -3 14 5.33 1.53
-10 -2 14 4.76 1.5
10 2 -14 3.75 1.32
-10 -1 14 7.5 1.68
10 1 -14 7.22 1.6
-10 0 14 13.61 1.94
10 0 -14 13.26 1.94
-10 1 14 6.93 1.7
10 -1 -14 6.6 1.45
-10 2 14 4.16 1.48
10 -2 -14 4.06 1.31
10 -3 -14 5.37 1.46
-10 4 14 3.73 1.51
10 -4 -14 3.45 1.34
-9 -4 14 1.5 1.32
9 4 -14 2.22 1.24
-9 -3 14 17.86 2.19
9 3 -14 15.89 2.03
-9 -2 14 5.75 1.51
9 2 -14 5.56 1.44
-9 -1 14 6.98 1.63
9 1 -14 9.97 1.6
-9 0 14 0.58 1.17
9 0 -14 1 1.08
-9 1 14 8.57 1.69
9 -1 -14 6.83 1.51
-9 2 14 6.61 1.49
-9 2 14 5.01 1.55
9 -2 -14 5.44 1.42
-9 3 14 16.83 2.21
9 -3 -14 18.55 2.15
-9 4 14 2.19 1.35
9 -4 -14 3.32 1.36
-8 -5 14 8.37 1.63
8 5 -14 9.41 1.67
-8 -4 14 13.37 1.99
8 4 -14 15.58 1.95
-8 -3 14 10.72 1.73
8 3 -14 10.41 1.59
-8 -2 14 7.26 1.59
8 2 -14 7.47 1.34
8 2 -14 9.3 1.53
-8 -1 14 8 1.58
8 1 -14 5.08 1.29
-8 0 14 59.42 4.49
8 0 -14 59.5 4.44
8 0 -14 58.37 3.95
-8 1 14 5.38 1.39
8 -1 -14 7.03 1.44
8 -1 -14 6.83 1.2
-8 2 14 7.87 1.63
-8 2 14 7.49 1.52
8 -2 -14 9.6 1.37
8 -2 -14 10.57 1.56
-8 3 14 11.48 1.7
8 -3 -14 11.91 1.7
8 -3 -14 10.01 1.43
-8 4 14 18.46 2.1
8 -4 -14 13.61 1.91
-8 5 14 10.83 1.74
8 -5 -14 6.71 1.51
-7 -5 14 2.69 1.35
7 5 -14 0.37 1.22
-7 -4 14 3.93 1.33
7 4 -14 2.6 1.21
-7 -3 14 39.69 3.39
7 3 -14 41.8 3.41
7 3 -14 41.63 3.19
-7 -2 14 1.05 1.08
7 2 -14 0.59 0.98
7 2 -14 0.83 1
-7 -1 14 15.05 1.89
7 1 -14 14.51 1.82
-7 0 14 11.13 1.73
7 0 -14 10.58 1.38
7 0 -14 11.39 1.65
-7 1 14 16.92 1.87
-7 1 14 14.77 1.99
-7 1 14 14.8 1.9
7 -1 -14 15.29 1.93
7 -1 -14 15.01 1.6
-7 2 14 0.85 1.2
-7 2 14 1.16 0.99
7 -2 -14 1.63 0.89
7 -2 -14 1.23 1.06
-7 3 14 42.19 3.17
7 -3 -14 36.72 3.16
-7 4 14 3.6 1.35
7 -4 -14 2.43 1.14
-7 5 14 0.56 1.26
7 -5 -14 1.71 1.15
-6 -5 14 2.11 1.23
6 5 -14 2.32 1.21
-6 -4 14 12.6 1.85
6 4 -14 16.08 1.9
-6 -3 14 14.14 1.97
6 3 -14 14.43 1.84
6 3 -14 15.44 1.98
-6 -2 14 5.77 1.41
6 2 -14 5.99 1.35
6 2 -14 5.92 1.26
-6 -1 14 17.87 2.2
6 1 -14 22.74 2.06
6 1 -14 19.83 2.06
-6 0 14 33.17 2.89
6 0 -14 30.13 2.7
-6 1 14 23.36 2.14
-6 1 14 23.01 2.34
-6 1 14 24.27 2.22
6 -1 -14 15.88 2.09
6 -1 -14 18.35 1.76
-6 2 14 4.93 1.33
-6 2 14 6.1 1.31
6 -2 -14 6.88 1.34
6 -2 -14 6.3 1.09
-6 3 14 14.6 1.87
6 -3 -14 13.21 1.78
-6 4 14 15.33 1.97
6 -4 -14 12.08 1.66
-6 5 14 3.95 1.34
6 -5 -14 2.38 1.16
-5 -5 14 1.61 1.27
5 5 -14 1.93 1.18
-5 -4 14 4.51 1.36
5 4 -14 10.39 1.49
-5 -3 14 6.74 1.41
5 3 -14 8.93 1.41
5 3 -14 9.87 1.57
-5 -2 14 10.79 1.67
5 2 -14 13.76 1.61
5 2 -14 15.18 1.76
-5 -1 14 15.4 2.14
5 1 -14 19.31 2.01
5 1 -14 23.33 2.08
5 1 -14 20.79 1.89
-5 0 14 27.57 2.64
-5 0 14 30.03 2.43
5 0 -14 26.47 2.51
5 0 -14 28.69 2.48
-5 1 14 23.18 2.22
-5 1 14 21.35 2
-5 1 14 21.09 2.07
5 -1 -14 15.18 1.84
5 -1 -14 14.92 1.57
-5 2 14 16.45 1.84
-5 2 14 16.29 1.85
5 -2 -14 11.11 1.57
5 -2 -14 9.87 1.33
-5 3 14 7.92 1.35
5 -3 -14 8.38 1.36
-5 4 14 10.57 1.54
5 -4 -14 6.34 1.29
-5 5 14 1.8 1.2
5 -5 -14 1.69 1.07
-4 -6 14 5.28 1.44
4 6 -14 3.7 1.38
-4 -5 14 2.22 1.27
4 5 -14 1.45 1.17
-4 -4 14 16.42 2.06
4 4 -14 12.78 1.73
-4 -3 14 36.45 3.03
4 3 -14 34.6 3.04
4 3 -14 35.55 2.78
4 3 -14 35.09 2.85
-4 -2 14 9.12 1.57
4 2 -14 8.77 1.48
4 2 -14 10.17 1.44
4 2 -14 10.44 1.48
4 1 -14 16.36 1.79
4 1 -14 18.65 1.89
4 1 -14 16.71 1.96
-4 0 14 5.62 1.27
-4 0 14 5.56 1.19
4 0 -14 5.66 1.21
4 0 -14 5.26 1.16
-4 1 14 17.34 1.97
-4 1 14 17.55 2.22
4 -1 -14 24.08 1.79
4 -1 -14 24.92 2.2
4 -1 -14 24.66 2.18
-4 2 14 9.6 1.47
-4 2 14 8.98 1.38
-4 2 14 7.36 1.3
4 -2 -14 7.25 1.23
4 -2 -14 6.68 1.01
4 -2 -14 8.89 1.34
-4 3 14 35.02 2.75
4 -3 -14 31.54 2.76
-4 4 14 11.7 1.6
4 -4 -14 13.88 1.62
-4 5 14 1.45 1.14
4 -5 -14 2.81 1.08
-4 6 14 5.16 1.36
4 -6 -14 5.49 1.14
-3 -6 14 3.46 1.37
3 6 -14 3.52 1.32
-3 -5 14 6.54 1.49
3 5 -14 5.53 1.43
3 4 -14 16.29 1.94
3 4 -14 17.54 1.86
-3 -3 14 16.63 1.99
3 3 -14 14.54 2
3 3 -14 16.6 1.8
3 3 -14 15.54 1.84
-3 -2 14 0.68 1.09
3 2 -14 4.36 1.21
3 2 -14 4.73 1.12
3 2 -14 4.63 1.11
-3 -1 14 22.42 2.31
-3 -1 14 25.34 2.22
3 1 -14 24.42 2.27
3 1 -14 25.37 2.28
3 1 -14 25.96 2.19
-3 0 14 59.16 4.27
-3 0 14 57.11 3.87
3 0 -14 59.05 4.11
3 0 -14 53.58 4.09
-3 1 14 24.93 2.34
-3 1 14 24.86 2.12
3 -1 -14 27.47 2.33
3 -1 -14 24.88 1.84
3 -1 -14 22.73 2.21
-3 2 14 3.77 1.1
-3 2 14 4.43 1.09
-3 2 14 3.69 1.19
3 -2 -14 1.09 0.92
3 -2 -14 1.34 0.99
-3 3 14 13.44 1.78
-3 3 14 13.53 1.7
3 -3 -14 17 1.84
3 -3 -14 14.71 1.7
-3 4 14 14.77 1.78
3 -4 -14 12.28 1.66
-3 5 14 7.34 1.32
3 -5 -14 5.73 1.2
-3 6 14 2.35 1.13
3 -6 -14 2.96 0.95
-2 -6 14 12.67 1.85
2 6 -14 10.12 1.75
-2 -5 14 7.1 1.57
2 5 -14 12.19 1.65
-2 -4 14 12.63 1.88
2 4 -14 19.5 1.86
2 4 -14 17.18 1.92
-2 -3 14 39.78 3.07
2 3 -14 31.16 2.89
2 3 -14 33.82 2.79
2 3 -14 36.63 2.84
-2 -2 14 2.54 1.08
2 2 -14 3.04 1.04
2 2 -14 2.58 1.07
2 2 -14 2.68 1
-2 -1 14 71.18 5.76
2 1 -14 85.68 5.84
2 1 -14 89.49 5.71
2 1 -14 95.33 5.52
-2 0 14 74.45 4.73
-2 0 14 72.23 5.1
2 0 -14 71.67 5.04
2 0 -14 68.75 4.88
-2 1 14 87.15 5.16
-2 1 14 90.52 5.59
2 -1 -14 70.27 5.36
2 -1 -14 73.79 4.71
2 -1 -14 76.2 5.33
-2 2 14 2.7 1.02
-2 2 14 3.56 1.2
2 -2 -14 2.67 0.94
2 -2 -14 2.34 0.64
2 -2 -14 3.32 1.01
-2 3 14 33.9 2.78
-2 3 14 33.57 2.78
2 -3 -14 36.91 2.89
2 -3 -14 41.18 2.97
-2 4 14 16.56 1.85
-2 4 14 17.39 1.93
2 -4 -14 15.22 1.83
-2 5 14 10.37 1.48
-2 5 14 13.02 1.62
2 -5 -14 6.68 1.24
-2 6 14 10.96 1.59
-1 -6 14 1.9 1.31
1 6 -14 -0.05 1.15
-1 -5 14 7.86 1.57
1 5 -14 9.18 1.53
-1 -4 14 34 2.9
1 4 -14 30.88 2.71
1 4 -14 33.51 2.69
-1 -3 14 15.49 2.03
1 3 -14 16.01 1.9
1 3 -14 16.87 1.75
1 3 -14 15.79 1.77
1 2 -14 13.75 1.68
1 2 -14 15.4 1.73
1 2 -14 14.97 1.88
-1 -1 14 41.59 3.19
1 1 -14 39.55 3.05
1 1 -14 38.86 3.12
1 1 -14 39.57 2.89
-1 0 14 76.61 5.03
-1 0 14 75.71 5.33
1 0 -14 80.14 5.26
1 0 -14 76.63 5.36
-1 1 14 40.21 2.96
-1 1 14 41.79 3.32
1 -1 -14 41.99 3.23
1 -1 -14 40.94 3.17
-1 2 14 16.25 2.03
-1 2 14 13.81 1.76
1 -2 -14 21.44 1.94
1 -2 -14 23.03 2.02
-1 3 14 17.81 1.87
1 -3 -14 17.75 1.9
1 -3 -14 17.66 1.92
-1 4 14 29.79 2.53
-1 4 14 32.45 2.53
1 -4 -14 31.91 2.56
-1 5 14 7.27 1.32
-1 5 14 8.15 1.35
1 -5 -14 7.71 1.18
-1 6 14 1.37 1.12
-1 6 14 1.2 1.06
0 -6 14 10.67 1.71
0 6 -14 6.97 1.57
0 -5 14 10 1.71
0 5 -14 12.28 1.67
0 -4 14 4.78 1.3
0 4 -14 4.48 1.18
0 4 -14 3.94 1.19
0 -3 14 8.08 1.53
0 3 -14 13.45 1.75
0 3 -14 13.73 1.63
0 3 -14 12.07 1.51
0 -2 14 14.27 1.94
0 2 -14 19.66 1.93
0 2 -14 20.39 2.02
0 2 -14 18.17 1.77
0 -1 14 40.41 2.91
0 -1 14 39.41 3.18
0 1 -14 38.17 3.01
0 1 -14 36.16 2.81
0 1 -14 36.45 3.09
0 0 14 13.49 1.69
0 0 -14 12.52 1.64
0 0 -14 11.96 1.6
0 1 14 35.46 2.8
0 1 14 37.84 3.06
0 -1 -14 39.5 2.97
0 -1 -14 35.04 2.94
0 2 14 18.57 1.8
0 2 14 19.58 2.05
0 -2 -14 17.38 1.93
0 -2 -14 17.49 1.89
0 3 14 11.46 1.44
0 -3 -14 8.91 1.39
0 -3 -14 11.33 1.5
0 4 14 3.86 1.06
0 -4 -14 3.73 1.06
0 5 14 10.4 1.51
0 -5 -14 12.12 1.52
0 6 14 6.1 1.28
1 -6 14 3.48 1.42
-1 6 -14 3.54 1.39
1 -5 14 9.02 1.64
1 -4 14 7.56 1.55
-1 4 -14 9.77 1.4
-1 4 -14 8.57 1.41
-1 4 -14 7.57 1.53
1 -3 14 50.12 3.82
-1 3 -14 47.97 3.75
-1 3 -14 47.65 3.47
-1 3 -14 48.37 3.59
1 -2 14 23.82 2.41
-1 2 -14 27.97 2.55
-1 2 -14 27.22 2.37
-1 2 -14 26.28 2.32
1 -1 14 42.73 3.54
1 -1 14 45.15 3.31
-1 1 -14 46.78 3.3
-1 1 -14 47.8 3.47
-1 1 -14 47 3.53
1 0 14 25 2.31
1 0 14 24.38 2.16
-1 0 -14 22.68 2.14
-1 0 -14 23.51 2.29
1 1 14 47.17 3.28
1 1 14 48.23 3.51
-1 -1 -14 41.66 3.44
-1 -1 -14 45.23 3.43
1 2 14 26.15 2.42
1 2 14 24.43 2.18
-1 -2 -14 25.18 2.27
-1 -2 -14 25.89 2.35
1 3 14 44.87 3.33
-1 -3 -14 50.53 3.53
1 4 14 5.37 1.15
-1 -4 -14 7.79 1.2
1 5 14 12.58 1.56
-1 -5 -14 9.01 1.25
1 6 14 3.03 1.12
-2 6 -14 2.34 1.45
2 -5 14 0.98 1.29
-2 5 -14 -0.39 1.18
2 -4 14 56.83 4.4
-2 4 -14 58.13 4.15
-2 4 -14 60.05 4.2
-2 4 -14 55.54 4.41
2 -3 14 14.68 1.96
-2 3 -14 19.98 2
-2 3 -14 17.06 1.88
-2 3 -14 15.08 1.94
2 -2 14 10.95 1.54
-2 2 -14 7.16 1.32
-2 2 -14 8.82 1.25
-2 2 -14 7.25 1.34
-2 2 -14 7.62 1.39
2 -1 14 28.04 2.47
2 -1 14 25.11 2.65
-2 1 -14 31.46 2.52
-2 1 -14 32.28 2.22
-2 1 -14 28.98 2.58
2 0 14 3.42 1.07
2 0 14 3.37 1.15
-2 0 -14 3.26 1.04
-2 0 -14 3.5 0.7
-2 0 -14 3.49 1.03
2 1 14 30.79 2.42
2 1 14 32.3 2.71
-2 -1 -14 24.7 2.47
-2 -1 -14 27.39 2.51
2 2 14 9 1.52
2 2 14 7.17 1.28
-2 -2 -14 13.25 1.52
2 3 14 16.31 1.83
-2 -3 -14 17.11 1.84
2 4 14 57.5 3.94
-2 -4 -14 56.68 4.03
2 5 14 1.2 0.97
-2 -5 -14 0.96 0.85
2 6 14 1.77 1.06
3 -5 14 12.88 1.91
-3 5 -14 12.79 1.87
3 -4 14 -0.36 1.15
-3 4 -14 1.63 1.2
-3 4 -14 1.81 1.29
3 -3 14 0.7 1.07
-3 3 -14 0.04 1.04
-3 3 -14 1.34 1.09
3 -2 14 33.44 2.82
-3 2 -14 27.21 2.29
-3 2 -14 26.24 2.65
3 -1 14 12.22 1.52
3 -1 14 9.41 1.51
-3 1 -14 6.88 1.06
-3 1 -14 7.19 1.35
-3 1 -14 8.59 1.36
3 0 14 14.79 1.81
3 0 14 13.27 1.71
-3 0 -14 14.23 1.82
3 1 14 8.42 1.5
3 1 14 7.19 1.29
-3 -1 -14 10 1.45
3 2 14 26.45 2.55
3 2 14 25.41 2.32
-3 -2 -14 32.2 2.51
3 3 14 0.36 0.92
-3 -3 -14 0.81 0.93
3 4 14 3.53 1.09
-3 -4 -14 1.12 0.94
3 5 14 10.55 1.51
-3 -5 -14 13.96 1.5
4 -5 14 12.67 1.93
-4 5 -14 12.95 1.89
4 -4 14 13.21 1.91
-4 4 -14 8.77 1.56
-4 4 -14 11.97 1.91
4 -3 14 19.92 2.43
-4 3 -14 25.47 2.54
-4 2 -14 42.36 3.49
-4 2 -14 40.71 2.91
4 -1 14 16.87 2.28
4 -1 14 16.78 1.96
-4 1 -14 26.18 1.83
-4 1 -14 23.01 2.32
4 0 14 12.11 1.69
4 0 14 11.81 1.58
-4 0 -14 11.04 1.66
4 1 14 23.91 2.1
4 1 14 25.04 2.33
-4 -1 -14 15.44 2.07
4 2 14 39.65 2.93
-4 -2 -14 37.05 3.03
4 3 14 22.5 2.01
-4 -3 -14 18.33 2.02
4 4 14 9.32 1.47
-4 -4 -14 12.9 1.61
4 5 14 13.63 1.76
-4 -5 -14 14.77 1.57
5 -5 14 10.69 1.87
5 -4 14 40.52 3.49
-5 4 -14 42.83 3.69
5 -3 14 4.02 1.44
-5 3 -14 3.79 1.34
-5 2 -14 35.68 3.16
5 -1 14 4.19 1.41
-5 1 -14 3.69 1.21
5 0 14 86.5 5.61
5 0 14 87.92 6.03
-5 0 -14 81.96 5.92
5 1 14 4.51 1.15
5 1 14 6.27 1.36
-5 -1 -14 5.3 1.28
5 2 14 37.08 3.02
-5 -2 -14 42.56 3.19
5 3 14 4.28 1.15
-5 -3 -14 5.11 1.22
5 4 14 39.48 3.07
-5 -4 -14 40.52 3.1
5 5 14 10.89 1.52
-5 -5 -14 11.18 1.47
6 -5 14 9.75 1.84
6 -4 14 2.44 1.32
-6 4 -14 2.67 1.49
6 -3 14 3.9 1.38
-6 3 -14 5.06 1.58
6 -2 14 3.03 1.41
-6 2 -14 3.12 1.4
6 -1 14 37.73 3.31
-6 1 -14 36.51 3.22
6 0 14 3.03 1.14
6 0 14 3.07 1.27
-6 0 -14 3 1.24
6 1 14 35.13 2.89
6 1 14 36.23 3.15
-6 -1 -14 35.04 3.04
6 2 14 2.5 1.17
-6 -2 -14 1.5 1.15
6 3 14 5.14 1.32
-6 -3 -14 4.6 1.22
6 4 14 2.11 1.15
-6 -4 -14 3.12 1.1
6 5 14 11.47 1.63
-6 -5 -14 11.36 1.52
7 -4 14 3.5 1.44
7 -3 14 2.79 1.47
-7 3 -14 3.79 1.59
7 -2 14 28.79 3.01
-7 2 -14 32.57 2.94
7 -1 14 13.16 1.99
-7 1 -14 10.88 1.78
7 0 14 4.02 1.27
7 0 14 3.69 1.34
-7 0 -14 1.86 1.27
7 1 14 11.04 1.68
7 1 14 11.27 1.85
-7 -1 -14 12.63 1.79
7 2 14 34.24 2.82
-7 -2 -14 32.2 2.94
7 3 14 2.56 1.23
-7 -3 -14 2.35 1.13
7 4 14 2.87 1.17
-7 -4 -14 4.21 1.17
8 -4 14 17.44 2.41
8 -3 14 3.21 1.55
-8 3 -14 1.22 1.36
8 -2 14 5.83 1.58
-8 2 -14 8.08 1.69
8 -1 14 12.92 1.97
-8 1 -14 12.44 2
8 0 14 8.32 1.74
-8 0 -14 9.84 1.75
8 1 14 15.41 2.01
-8 -1 -14 14.66 1.99
8 2 14 7.37 1.51
-8 -2 -14 9.53 1.57
8 3 14 0.88 1.14
-8 -3 -14 2.5 1.19
8 4 14 14.04 1.9
-8 -4 -14 18.11 1.99
9 -3 14 7.99 1.91
-9 3 -14 6.84 1.86
9 -2 14 -0.32 1.37
-9 2 -14 0.42 1.39
9 -1 14 18.29 2.4
-9 1 -14 21.24 2.54
9 0 14 12.68 2.01
-9 0 -14 12.56 1.98
9 1 14 22.24 2.4
-9 -1 -14 20.78 2.38
9 2 14 -0.36 1.12
-9 -2 -14 -0.48 1.11
9 3 14 2.9 1.38
-9 -3 -14 6.52 1.46
10 -3 14 3.99 1.74
-10 3 -14 4.58 1.69
10 -2 14 34.14 3.46
-10 2 -14 34.07 3.42
10 -1 14 4.19 1.68
-10 1 -14 3.9 1.61
10 0 14 1.72 1.4
-10 0 -14 3.74 1.5
-10 -1 -14 5.71 1.57
10 2 14 36.86 3.03
-10 -2 -14 30.02 3.04
10 3 14 3.58 1.41
-10 -3 -14 5.01 1.44
11 -2 14 0.23 1.63
-11 2 -14 4.4 1.78
11 -1 14 33.66 3.39
-11 1 -14 28.83 3.2
-11 0 -14 12.32 2.05
-11 -1 -14 31.75 3.09
11 2 14 3.63 1.51
-11 -2 -14 2.72 1.46
-13 -1 15 1.31 1.48
13 1 -15 1.62 1.54
-13 0 15 0.52 1.61
13 0 -15 -0.2 1.44
-13 1 15 3.16 1.77
13 -1 -15 2.8 1.58
-12 -2 15 3.94 1.56
-12 -1 15 18.45 2.59
12 1 -15 19.76 2.56
-12 0 15 3.92 1.7
12 0 -15 4.85 1.54
-12 1 15 16.81 2.51
12 -1 -15 20.28 2.55
-12 2 15 6.21 1.92
12 -2 -15 4.79 1.66
-11 -3 15 22.86 2.67
-11 -2 15 14.71 2.19
11 2 -15 14.45 2.1
-11 -1 15 6.63 1.8
11 1 -15 6 1.64
-11 0 15 0.47 1.45
11 0 -15 1.17 1.22
-11 1 15 6.55 1.82
11 -1 -15 7.24 1.7
-11 2 15 13.7 2.24
11 -2 -15 15.07 2.14
11 -3 -15 21.97 2.57
-10 -3 15 2.85 1.44
-10 -2 15 0.21 1.23
10 2 -15 -0.08 1.23
-10 -1 15 0.95 1.29
10 1 -15 1.07 1.31
-10 0 15 6.29 1.6
10 0 -15 5.52 1.48
-10 1 15 0.65 1.39
10 -1 -15 1.3 1.28
-10 2 15 0.68 1.46
10 -2 -15 -0.35 1.19
10 -3 -15 3.09 1.36
-9 -4 15 1.57 1.38
9 4 -15 1.98 1.3
-9 -3 15 2.66 1.42
-9 -2 15 19.82 2.46
9 2 -15 20.7 2.44
-9 -1 15 3.6 1.37
9 1 -15 2.42 1.24
-9 0 15 6.09 1.59
9 0 -15 9.49 1.68
-9 1 15 3.36 1.48
9 -1 -15 4.21 1.38
-9 2 15 19.13 2.45
9 -2 -15 19.19 2.29
-9 3 15 2.47 1.41
9 -3 -15 0.9 1.2
-9 4 15 2.71 1.45
9 -4 -15 2.39 1.29
-8 -4 15 19.73 2.33
8 4 -15 17.18 2.17
-8 -3 15 5.91 1.54
8 3 -15 4.88 1.36
-8 -2 15 39.69 3.38
8 2 -15 42.5 3.52
-8 -1 15 18.84 2.15
8 1 -15 15.66 2.03
-8 0 15 6.79 1.63
8 0 -15 7.08 1.52
-8 1 15 19.25 2.44
8 -1 -15 19.8 1.93
8 -1 -15 21.21 2.2
-8 2 15 43.04 3.58
-8 2 15 41.02 3.39
8 -2 -15 43.94 3.14
8 -2 -15 43.45 3.53
-8 3 15 6.8 1.52
8 -3 -15 4.52 1.36
-8 4 15 17.74 2.3
8 -4 -15 20.75 2.25
-7 -5 15 13.03 1.94
7 5 -15 12.8 1.88
-7 -4 15 13.98 1.94
7 4 -15 10.37 1.71
-7 -3 15 1.44 1.26
7 3 -15 1.36 1.16
-7 -2 15 13.45 1.96
7 2 -15 15.86 2.05
-7 -1 15 3.51 1.37
7 1 -15 2.06 1.13
-7 0 15 3.98 1.35
7 0 -15 5.55 1.4
7 0 -15 5.54 1.12
-7 1 15 3.53 1.42
7 -1 -15 3.95 1.22
7 -1 -15 3.97 1.06
-7 2 15 19.69 2.3
-7 2 15 17.03 2.07
7 -2 -15 12.74 1.68
7 -2 -15 13.92 1.92
-7 3 15 1.39 1.2
7 -3 -15 1.32 1.15
-7 4 15 9.83 1.7
7 -4 -15 13.01 1.77
-7 5 15 9.02 1.8
7 -5 -15 14.67 1.87
-6 -5 15 32.6 3.08
6 5 -15 36.93 3.02
-6 -4 15 -0.22 1.23
6 4 -15 0.5 1.11
-6 -3 15 3.59 1.37
6 3 -15 6.39 1.47
6 3 -15 8.25 1.46
-6 -2 15 1.79 1.27
6 2 -15 2.97 1.22
6 2 -15 2.04 1.13
-6 -1 15 21.99 2.36
6 1 -15 18.96 2.22
-6 0 15 0.32 1.11
6 0 -15 0.17 0.95
-6 1 15 16.61 1.94
-6 1 15 20.43 2.34
-6 1 15 18.92 2.05
6 -1 -15 22.03 1.87
6 -1 -15 18.75 2.13
-6 2 15 4.11 1.27
-6 2 15 3.47 1.28
-6 2 15 2.89 1.35
6 -2 -15 2.15 1.14
6 -2 -15 2.12 0.92
-6 3 15 5.64 1.34
6 -3 -15 3.46 1.19
-6 4 15 1.77 1.29
6 -4 -15 0.15 1.06
-6 5 15 39.79 3.15
6 -5 -15 32.71 3.01
-5 -5 15 6.46 1.56
5 5 -15 7.69 1.6
-5 -4 15 11.18 1.72
5 4 -15 7.72 1.55
-5 -3 15 0.09 1.14
5 3 -15 0.59 1.05
5 3 -15 0.41 1.12
-5 -2 15 44.57 3.67
5 2 -15 45.96 3.65
5 2 -15 45.48 3.4
-5 -1 15 13.33 1.77
5 1 -15 8.64 1.56
-5 0 15 1.65 1.1
5 0 -15 0.7 0.94
-5 1 15 9.64 1.71
-5 1 15 11.16 1.55
5 -1 -15 12.12 1.4
5 -1 -15 10.89 1.55
-5 2 15 45.32 3.41
-5 2 15 44.04 3.34
-5 2 15 46.45 3.65
5 -2 -15 41.91 3.38
-5 3 15 0.75 1.11
5 -3 -15 0.52 0.97
-5 4 15 6.95 1.49
5 -4 -15 10.8 1.51
-5 5 15 7.17 1.5
5 -5 -15 6.14 1.33
-4 -5 15 20.18 2.49
4 5 -15 25.8 2.46
-4 -4 15 18.67 2.17
4 4 -15 15.54 2.01
-4 -3 15 1.89 1.23
4 3 -15 5.07 1.27
4 3 -15 4.33 1.28
-4 -2 15 10.41 1.77
4 2 -15 14.45 1.77
4 2 -15 13.93 1.77
-4 -1 15 27.78 2.7
4 1 -15 28.26 2.55
-4 0 15 14.05 1.86
-4 0 15 14.23 1.8
4 0 -15 14.45 1.78
-4 1 15 24.02 2.45
-4 1 15 27.55 2.37
4 -1 -15 24.1 2.34
4 -1 -15 27.42 2.06
-4 2 15 11.87 1.76
-4 2 15 12.08 1.59
-4 2 15 12.09 1.62
4 -2 -15 12.67 1.68
-4 3 15 2.93 1.17
-4 3 15 3.51 1.24
4 -3 -15 3.69 1.13
-4 4 15 15.7 2.1
4 -4 -15 21.18 2.09
-4 5 15 23.36 2.3
4 -5 -15 21.4 2.23
-3 -5 15 11.62 1.8
3 5 -15 11.83 1.77
-3 -4 15 16.58 2.22
3 4 -15 22.52 2.2
-3 -3 15 4.34 1.34
3 3 -15 2.75 1.1
3 3 -15 3.06 1.26
-3 -2 15 5.9 1.36
3 2 -15 7.18 1.28
3 2 -15 5.85 1.32
-3 -1 15 21.16 2.15
3 1 -15 17.48 2.02
-3 0 15 15.35 1.95
-3 0 15 17.01 1.91
3 0 -15 16.45 1.96
-3 1 15 17.25 2.07
-3 1 15 18.5 1.98
3 -1 -15 18.4 2.04
3 -1 -15 19.7 1.62
-3 2 15 6.94 1.3
-3 2 15 5.88 1.43
3 -2 -15 7.25 1.36
-3 3 15 2.06 1.15
-3 3 15 2.02 1.11
3 -3 -15 4.83 1.22
-3 4 15 21.96 2.24
-3 4 15 19.42 2.03
3 -4 -15 17.65 2.06
-3 5 15 14.87 1.8
-3 5 15 11.67 1.69
3 -5 -15 11.91 1.58
-2 -5 15 4.7 1.44
2 5 -15 6.82 1.49
-2 -4 15 20.08 2.2
2 4 -15 14.03 1.91
-2 -3 15 10.85 1.74
2 3 -15 11.78 1.61
2 3 -15 11.6 1.67
-2 -2 15 62.57 4.68
2 2 -15 67.63 4.45
2 2 -15 64.46 4.76
-2 -1 15 39.09 3.33
2 1 -15 42.24 3.29
-2 0 15 0.84 1.15
-2 0 15 1.53 1.01
2 0 -15 2.01 1.08
-2 1 15 37.59 3.37
-2 1 15 43.1 3.11
2 -1 -15 43.08 2.72
2 -1 -15 40.83 3.23
-2 2 15 63.32 4.39
-2 2 15 68.08 4.79
2 -2 -15 64.39 4.65
-2 3 15 11.22 1.51
2 -3 -15 11.91 1.63
-2 4 15 14.19 1.81
-2 4 15 14.96 1.88
2 -4 -15 20.39 1.93
-2 5 15 7.32 1.43
-2 5 15 6.57 1.37
2 -5 -15 6.38 1.25
-1 -5 15 37.01 3.05
1 5 -15 26.61 2.72
-1 -4 15 14.42 2
1 4 -15 14.54 1.92
-1 -3 15 19.69 2.34
1 3 -15 27.96 2.59
1 3 -15 25.71 2.23
-1 -2 15 6.25 1.37
1 2 -15 6.65 1.34
1 2 -15 6.12 1.27
-1 -1 15 67.55 4.79
1 1 -15 65.2 4.75
-1 0 15 1.45 1.14
-1 0 15 0.13 0.94
1 0 -15 0.26 0.88
-1 1 15 63.79 4.77
-1 1 15 68.28 4.54
1 -1 -15 68.96 4.74
-1 2 15 5.7 1.18
-1 2 15 5.25 1.35
1 -2 -15 5.27 1.2
-1 3 15 26.43 2.22
1 -3 -15 22.09 2.21
-1 4 15 10.85 1.6
1 -4 -15 15.85 1.74
-1 5 15 24.2 2.41
1 -5 -15 31.59 2.43
0 -5 15 19.65 2.38
0 5 -15 20.45 2.26
0 -4 15 1.49 1.24
0 4 -15 0.27 1.09
0 -3 15 0.44 1.07
0 3 -15 -0.2 1.13
0 3 -15 0.38 1.02
0 -2 15 22.71 2.53
0 2 -15 25.95 2.28
0 2 -15 25.08 2.39
0 -1 15 6.64 1.46
0 1 -15 7.34 1.42
0 0 15 16.01 2.03
0 0 -15 15.13 1.93
0 1 15 7.55 1.45
0 1 15 7.16 1.3
0 -1 -15 6.04 1.24
0 2 15 23.13 2.36
0 2 15 22.78 2.13
0 -2 -15 22.6 2.19
0 3 15 0.57 0.94
0 -3 -15 0.38 0.92
0 4 15 1.32 1.07
0 -4 -15 1.3 1
0 5 15 19.83 2.05
0 -5 -15 18.87 1.93
1 -5 15 6.38 1.57
-1 5 -15 9.49 1.7
1 -4 15 14.14 1.94
-1 4 -15 10.26 1.71
1 -3 15 16.67 1.99
-1 3 -15 15.82 1.94
-1 3 -15 13.81 1.97
1 -2 15 16.97 2.05
-1 2 -15 18.4 2.06
1 -1 15 12.69 1.92
-1 1 -15 19.5 2.08
1 0 15 -0.01 1.03
1 0 15 0.47 0.98
-1 0 -15 0.67 1.04
1 1 15 18.91 2.14
1 1 15 17.34 1.86
-1 -1 -15 13.14 1.88
1 2 15 19.09 1.94
1 2 15 18.11 2.13
-1 -2 -15 17.5 1.94
1 3 15 12.72 1.7
-1 -3 -15 14.93 1.79
1 4 15 7.96 1.41
-1 -4 -15 11.99 1.54
1 5 15 7.74 1.34
-1 -5 -15 6.97 1.19
2 -5 15 32.43 3.01
-2 5 -15 25.92 2.74
2 -4 15 10.62 1.8
-2 4 -15 9.6 1.66
2 -3 15 26.44 2.78
-2 3 -15 36.16 2.89
2 -2 15 6.12 1.47
-2 2 -15 5.16 1.3
2 -1 15 74.96 5.24
-2 1 -15 69.59 5.11
-2 1 -15 71.68 4.47
2 0 15 37.99 2.94
2 0 15 38.67 3.22
-2 0 -15 34.56 3.08
2 1 15 69.08 5.04
2 1 15 66.88 4.65
-2 -1 -15 72.4 4.96
2 2 15 6.18 1.25
-2 -2 -15 4.73 1.17
2 3 15 34.61 2.58
-2 -3 -15 24.01 2.48
2 4 15 9.15 1.48
-2 -4 -15 10.8 1.47
2 5 15 27.49 2.53
-2 -5 -15 31.17 2.45
3 -5 15 2.73 1.46
3 -4 15 1.12 1.32
3 -3 15 0.24 1.15
-3 3 -15 0.35 1.21
3 -2 15 25.25 2.5
-3 2 -15 22.64 2.39
3 -1 15 17.64 2.17
-3 1 -15 15.08 2.02
3 0 15 22.27 2.2
3 0 15 22.39 2.27
-3 0 -15 21.03 2.25
3 1 15 14.58 2.04
3 1 15 16.36 1.85
-3 -1 -15 14.92 1.89
3 2 15 24.97 2.24
-3 -2 -15 22.28 2.32
3 3 15 -1.14 1.01
-3 -3 -15 -0.06 0.97
3 4 15 3.15 1.18
-3 -4 -15 1.14 1.03
3 5 15 3.5 1.21
-3 -5 -15 4.32 1.05
4 -5 15 0.53 1.33
4 -4 15 14.91 2.13
4 -3 15 47.71 3.91
-4 3 -15 46.54 3.89
4 -2 15 23.96 2.65
-4 2 -15 24.66 2.49
4 -1 15 5.09 1.51
-4 1 -15 5.49 1.37
4 0 15 0.61 1.11
4 0 15 0.46 1.22
-4 0 -15 1.14 1.06
4 1 15 6.39 1.33
4 1 15 7.06 1.5
-4 -1 -15 5.14 1.35
4 2 15 23.46 2.25
-4 -2 -15 24.71 2.34
4 3 15 45.48 3.39
-4 -3 -15 46.64 3.49
4 4 15 11.19 1.64
-4 -4 -15 14.96 1.79
4 5 15 2.93 1.19
-4 -5 -15 1.56 0.94
5 -4 15 9.8 1.85
5 -3 15 12.64 2.07
-5 3 -15 16.62 2.11
5 -2 15 2.47 1.4
-5 2 -15 2.67 1.37
5 -1 15 35.73 3.15
-5 1 -15 30.35 2.89
5 0 15 77.01 5.23
5 0 15 79.44 5.64
-5 0 -15 75.96 5.52
5 1 15 31.8 2.68
5 1 15 28.83 2.79
-5 -1 -15 30.79 2.77
5 2 15 0.85 1.1
-5 -2 -15 2.86 1.21
5 3 15 17.14 1.86
-5 -3 -15 12.14 1.73
5 4 15 11.59 1.64
-5 -4 -15 10.16 1.51
5 5 15 2.43 1.19
6 -4 15 5.7 1.64
6 -3 15 13.06 2.01
-6 3 -15 12.42 2.01
6 -2 15 25.67 2.83
-6 2 -15 26.64 2.68
6 -1 15 1.9 1.41
-6 1 -15 3.18 1.27
6 0 15 21.75 2.54
6 0 15 22.48 2.22
-6 0 -15 21.31 2.39
6 1 15 4.16 1.28
6 1 15 3.56 1.44
-6 -1 -15 2.67 1.25
6 2 15 28.77 2.58
-6 -2 -15 26.07 2.62
6 3 15 12.95 1.81
-6 -3 -15 15.37 1.92
6 4 15 4.06 1.3
-6 -4 -15 4.48 1.17
7 -4 15 0.11 1.44
7 -3 15 29.65 3.02
-7 3 -15 26.51 3.02
7 -2 15 3.91 1.55
-7 2 -15 4.24 1.45
7 -1 15 37.19 3.51
-7 1 -15 44.12 3.61
7 0 15 12.67 2.01
-7 0 -15 11.7 1.89
7 1 15 44.38 3.33
-7 -1 -15 36.49 3.37
7 2 15 3.65 1.37
-7 -2 -15 3.6 1.3
7 3 15 28.79 2.65
-7 -3 -15 30.14 2.72
7 4 15 -0.31 1.17
-7 -4 -15 1.41 1.12
8 -3 15 8.93 1.96
-8 3 -15 9.54 2.01
8 -2 15 1.34 1.47
-8 2 -15 3.85 1.5
8 -1 15 3.42 1.45
-8 1 -15 2.24 1.47
8 0 15 78.23 5.84
-8 0 -15 79.09 5.76
8 1 15 2.02 1.33
-8 -1 -15 4.45 1.44
8 2 15 4.45 1.4
-8 -2 -15 0.52 1.17
8 3 15 8.21 1.57
-8 -3 -15 6.76 1.51
9 -3 15 18.74 2.55
-9 3 -15 22.58 2.85
9 -2 15 10.11 1.97
-9 2 -15 9.86 2.04
9 -1 15 10.11 1.99
-9 1 -15 7 1.83
9 0 15 7.51 1.83
-9 0 -15 8.61 1.81
-9 -1 -15 8.09 1.71
9 2 15 8.13 1.66
-9 -2 -15 9.77 1.72
9 3 15 19.07 2.26
-9 -3 -15 18.14 2.25
10 -2 15 19.35 2.62
-10 2 -15 20.74 2.77
10 -1 15 2.9 1.58
-10 1 -15 4.88 1.72
-10 0 -15 -0.09 1.37
-10 -1 -15 3.19 1.47
10 2 15 20.76 2.41
-10 -2 -15 18.63 2.45
-12 -1 16 4.81 1.69
12 1 -16 2.9 1.6
-12 0 16 11.26 2.22
12 0 -16 15 2.17
-12 1 16 3.16 1.74
12 -1 -16 4.63 1.66
-11 -2 16 5.32 1.73
-11 -1 16 13.99 2.23
11 1 -16 20.15 2.5
-11 0 16 1.86 1.61
11 0 -16 1.08 1.39
-11 1 16 17.79 2.5
11 -1 -16 18.59 2.45
11 -2 -16 5.85 1.56
-10 -3 16 27.03 2.94
-10 -2 16 1.29 1.35
10 2 -16 2.18 1.46
-10 -1 16 4.55 1.67
10 1 -16 2.43 1.42
-10 0 16 8.86 1.91
10 0 -16 8.11 1.66
-10 1 16 1.53 1.44
10 -1 -16 3.97 1.47
10 -2 -16 3.55 1.35
10 -3 -16 28.19 2.87
-9 -3 16 1.93 1.44
-9 -2 16 10.2 1.87
9 2 -16 10.98 1.87
-9 -1 16 2.63 1.49
9 1 -16 0.5 1.25
-9 0 16 24.92 2.78
9 0 -16 23.52 2.63
-9 1 16 1.36 1.45
9 -1 -16 1.18 1.17
-9 2 16 9.2 1.97
9 -2 -16 12.32 1.89
9 -3 -16 1.6 1.27
-8 -4 16 3.78 1.59
-8 -3 16 25.6 2.77
-8 -2 16 0.74 1.25
8 2 -16 -0.2 1.07
-8 -1 16 20.32 2.55
8 1 -16 23.95 2.52
-8 0 16 6.19 1.65
8 0 -16 5.74 1.54
-8 1 16 24.69 2.68
8 -1 -16 19.4 2.28
-8 2 16 1.69 1.45
8 -2 -16 -0.13 1.17
-8 3 16 28.82 2.77
8 -3 -16 27.38 2.74
-8 4 16 7.64 1.69
8 -4 -16 4.44 1.4
-7 -4 16 11.12 1.88
-7 -3 16 4.55 1.48
-7 -2 16 2.74 1.4
7 2 -16 2.47 1.29
-7 -1 16 6.15 1.59
7 1 -16 6.83 1.52
-7 0 16 65.5 4.85
7 0 -16 61.18 4.66
-7 1 16 4.51 1.57
7 -1 -16 7.14 1.25
7 -1 -16 6.01 1.38
-7 2 16 2.76 1.37
-7 2 16 2.2 1.32
-7 2 16 2.5 1.48
7 -2 -16 2.34 1.21
-7 3 16 9.42 1.63
7 -3 -16 5.15 1.4
-7 4 16 18.07 2.14
7 -4 -16 11.37 1.77
-6 -4 16 2.47 1.36
6 4 -16 5.23 1.44
-6 -3 16 0.09 1.26
6 3 -16 2.32 1.27
-6 -2 16 12.59 1.91
6 2 -16 14.75 2
-6 -1 16 -0.86 1.23
6 1 -16 1.1 1.14
-6 0 16 6.26 1.54
6 0 -16 4.01 1.34
-6 1 16 0.26 1.3
6 -1 -16 1.38 0.91
6 -1 -16 1.43 1.14
-6 2 16 13.45 2.02
-6 2 16 14.34 1.86
-6 2 16 14.18 1.87
6 -2 -16 12.97 1.82
-6 3 16 0.64 1.2
-6 3 16 -0.01 1.22
6 -3 -16 -0.47 1
-6 4 16 5.58 1.45
6 -4 -16 3.09 1.24
-5 -5 16 10.96 1.82
5 5 -16 7.37 1.66
-5 -4 16 4.9 1.5
5 4 -16 5.83 1.46
-5 -3 16 39.27 3.44
5 3 -16 41.73 3.52
-5 -2 16 6.82 1.59
5 2 -16 6.39 1.39
-5 -1 16 26.85 2.87
5 1 -16 33.48 2.88
-5 0 16 24.27 2.49
5 0 -16 24.24 2.48
-5 1 16 32.92 2.7
-5 1 16 32.89 2.82
5 -1 -16 25.37 2.68
5 -1 -16 29.1 2.31
-5 2 16 5.23 1.35
-5 2 16 6.87 1.5
-5 2 16 6.15 1.43
5 -2 -16 6.92 1.4
-5 3 16 38.69 3.12
-5 3 16 39.29 3.22
5 -3 -16 37.67 3.16
-5 4 16 6.32 1.52
5 -4 -16 5.1 1.36
-5 5 16 9.13 1.7
5 -5 -16 9.75 1.58
-4 -5 16 2.58 1.38
4 5 -16 1.5 1.33
-4 -4 16 36.27 3.41
4 4 -16 44.75 3.37
-4 -3 16 3.91 1.4
4 3 -16 4.19 1.42
-4 -2 16 3.91 1.34
4 2 -16 4.86 1.4
-4 -1 16 6.14 1.59
4 1 -16 8.93 1.56
-4 0 16 141.6 9.26
4 0 -16 137.53 9.16
-4 1 16 8.65 1.58
-4 1 16 8.73 1.47
4 -1 -16 7.22 1.38
-4 2 16 6.7 1.57
-4 2 16 5.75 1.3
4 -2 -16 5.96 1.34
-4 3 16 4.91 1.38
-4 3 16 4.89 1.36
4 -3 -16 4.92 1.27
-4 4 16 45.27 3.38
4 -4 -16 38.95 3.34
-4 5 16 1.1 1.24
-4 5 16 2.04 1.36
4 -5 -16 2.73 1.19
-3 -5 16 1.49 1.3
3 5 -16 0.1 1.23
-3 -4 16 5.07 1.51
3 4 -16 7.42 1.51
-3 -3 16 20.67 2.39
3 3 -16 21.14 2.29
-3 -2 16 6.8 1.44
3 2 -16 3.99 1.3
-3 -1 16 2.73 1.26
3 1 -16 3.86 1.31
-3 0 16 6.27 1.54
3 0 -16 6.87 1.37
-3 1 16 4.08 1.4
-3 1 16 3.53 1.19
3 -1 -16 3.38 1.24
-3 2 16 4.59 1.48
-3 2 16 5.1 1.3
3 -2 -16 7.86 1.41
-3 3 16 20.41 2.08
3 -3 -16 19.07 2.1
-3 4 16 7.82 1.53
-3 4 16 6.37 1.4
3 -4 -16 4.38 1.28
-3 5 16 0.65 1.25
-3 5 16 0.55 1.2
3 -5 -16 1.97 1.13
-2 -5 16 2.84 1.44
2 5 -16 0.02 1.22
-2 -4 16 6.4 1.54
2 4 -16 5.66 1.45
-2 -3 16 23.11 2.49
2 3 -16 20.47 2.42
-2 -2 16 31.26 3
2 2 -16 34.99 3.03
-2 -1 16 21.5 2.49
2 1 -16 26.64 2.54
-2 0 16 5.93 1.49
-2 0 16 6.94 1.36
2 0 -16 6.96 1.46
-2 1 16 24.29 2.42
-2 1 16 25.45 2.28
2 -1 -16 20.88 2.34
-2 2 16 32.48 2.75
-2 2 16 36.3 3.1
2 -2 -16 33.24 2.9
-2 3 16 21.66 2.27
2 -3 -16 23.53 2.26
-2 4 16 6.09 1.36
2 -4 -16 9.16 1.46
-2 5 16 0.84 1.19
2 -5 -16 1.7 1.09
-1 -5 16 3.33 1.46
1 5 -16 2.8 1.36
-1 -4 16 27.81 2.9
1 4 -16 35.15 2.85
-1 -3 16 0.66 1.25
1 3 -16 1.39 1.24
1 2 -16 6.31 1.41
-1 -1 16 15.62 2.09
1 1 -16 13.99 1.84
-1 0 16 34.4 3.09
1 0 -16 35.77 2.96
-1 1 16 13.39 1.69
-1 1 16 14 1.92
1 -1 -16 15.25 1.89
-1 2 16 6.99 1.38
1 -2 -16 11.7 1.56
-1 3 16 0.25 1.02
1 -3 -16 1.23 1.02
-1 4 16 32.64 2.62
1 -4 -16 28.09 2.61
-1 5 16 2.15 1.25
1 -5 -16 1.96 1.06
0 -5 16 6.11 1.63
0 -4 16 7.29 1.61
0 -3 16 7.56 1.66
0 3 -16 10.29 1.75
0 -2 16 6.25 1.58
0 2 -16 8.87 1.63
0 -1 16 7.37 1.49
0 1 -16 3.9 1.24
0 0 16 5.04 1.45
0 0 16 6.09 1.3
0 0 -16 4 1.29
0 1 16 5.23 1.27
0 1 16 3.69 1.36
0 -1 -16 8.46 1.39
0 2 16 6.72 1.38
0 -2 -16 7.34 1.37
0 3 16 7.03 1.41
0 -3 -16 8.44 1.39
0 4 16 6.9 1.36
0 -4 -16 7.36 1.36
0 5 16 6.65 1.4
0 -5 -16 7.74 1.34
1 -5 16 0.61 1.41
1 -4 16 4.77 1.53
1 -3 16 14.41 2.06
-1 3 -16 18.9 2.28
1 -2 16 29.29 2.95
-1 2 -16 33.66 2.9
1 -1 16 15.74 2.18
-1 1 -16 20.57 2.24
1 0 16 1.58 1.1
1 0 16 2.13 1.34
-1 0 -16 1.28 1.14
1 1 16 20.56 2.16
-1 -1 -16 14.68 2
1 2 16 31.19 2.59
-1 -2 -16 28.32 2.63
1 3 16 16.9 1.93
-1 -3 -16 16.29 1.94
1 4 16 1.67 1.23
-1 -4 -16 4.86 1.2
1 5 16 1.11 1.13
-1 -5 -16 1.41 1
2 -5 16 26.22 2.82
2 -4 16 38.52 3.48
2 -3 16 3.23 1.48
-2 3 -16 4.28 1.36
2 -2 16 6.98 1.62
-2 2 -16 7.31 1.54
2 -1 16 35.23 2.89
-2 1 -16 25.71 2.75
2 0 16 116.01 7.84
2 0 16 117.27 7.32
-2 0 -16 112.27 7.71
2 1 16 27.12 2.79
-2 -1 -16 29.51 2.65
2 2 16 7.58 1.39
-2 -2 -16 6.88 1.37
2 3 16 4.54 1.3
-2 -3 -16 3.36 1.2
2 4 16 33.89 2.85
-2 -4 -16 36.46 2.9
2 5 16 24.48 2.4
-2 -5 -16 25.35 2.25
3 -4 16 10.64 1.94
3 -3 16 43.8 3.43
-3 3 -16 32.46 3.25
3 -2 16 2.33 1.43
-3 2 -16 1.69 1.19
3 -1 16 24.08 2.76
-3 1 -16 32.76 2.82
3 0 16 0.42 1.22
3 0 16 -0.61 0.97
-3 0 -16 -0.13 1.09
3 1 16 33.09 3.11
3 1 16 35.94 2.88
3 2 16 1.31 1.12
-3 -2 -16 1.19 1.08
3 3 16 31.67 2.92
-3 -3 -16 42.54 3.15
3 4 16 11.1 1.63
-3 -4 -16 10.17 1.54
4 -4 16 15.23 2.22
4 -3 16 1.85 1.44
-4 3 -16 2.83 1.37
4 -2 16 33.22 3.33
-4 2 -16 38.99 3.35
4 -1 16 0.53 1.21
-4 1 -16 0.27 1.22
4 0 16 12.93 1.9
-4 0 -16 12.01 1.85
4 1 16 0.65 1.11
4 1 16 -0.48 1.19
-4 -1 -16 0.7 1.03
4 2 16 34.27 2.86
-4 -2 -16 33.92 3.01
4 3 16 2.96 1.21
-4 -3 -16 2.21 1.12
4 4 16 16.05 1.88
-4 -4 -16 12.88 1.75
5 -4 16 6.9 1.79
5 -3 16 8.3 1.75
-5 3 -16 8.74 1.77
5 -2 16 1.88 1.44
-5 2 -16 0.37 1.29
5 -1 16 44.55 3.7
-5 1 -16 38.52 3.51
5 0 16 38.71 3.35
-5 0 -16 37.45 3.3
5 1 16 37.42 3.19
-5 -1 -16 41.18 3.34
5 2 16 1.24 1.16
-5 -2 -16 0.32 1.13
5 3 16 8.26 1.54
-5 -3 -16 8.7 1.54
5 4 16 7.03 1.48
-5 -4 -16 6.74 1.39
6 -4 16 8.94 1.84
6 -3 16 24.56 2.81
-6 3 -16 20.4 2.75
6 -2 16 17.18 2.27
-6 2 -16 14.52 2.12
6 -1 16 12.55 2.12
-6 1 -16 15.14 2.09
6 0 16 -0.85 1.33
-6 0 -16 1.01 1.28
6 1 16 13.85 1.84
-6 -1 -16 10.29 1.8
6 2 16 16.53 2.13
-6 -2 -16 17.6 2.11
6 3 16 19.34 2.27
-6 -3 -16 23.62 2.38
6 4 16 5.62 1.53
-6 -4 -16 8.5 1.42
7 -3 16 1.71 1.55
-7 3 -16 3.53 1.68
7 -2 16 4.71 1.7
-7 2 -16 6.34 1.72
7 -1 16 -0.4 1.45
-7 1 -16 1.6 1.33
7 0 16 15.27 2.2
-7 0 -16 16.29 2.21
7 1 16 1.82 1.33
-7 -1 -16 0.88 1.27
7 2 16 4.92 1.48
-7 -2 -16 5.48 1.44
7 3 16 3.1 1.37
-7 -3 -16 3.24 1.34
-8 3 -16 15.22 2.46
8 -2 16 6.14 1.73
-8 2 -16 5.09 1.78
8 -1 16 44.9 3.82
-8 1 -16 37.48 3.56
8 0 16 3.72 1.51
-8 0 -16 2.4 1.46
-8 -1 -16 43.08 3.69
8 2 16 4.09 1.46
-8 -2 -16 4.07 1.42
8 3 16 15.1 2.04
-8 -3 -16 12.47 1.9
9 -2 16 20.62 2.76
-9 2 -16 25.75 2.86
9 -1 16 5.65 1.83
-9 1 -16 6.3 1.73
-9 0 -16 -0.27 1.35
-9 -1 -16 4.73 1.58
9 2 16 24.74 2.6
-9 -2 -16 21.92 2.54
-11 -1 17 0.52 1.57
11 1 -17 0.91 1.34
-11 0 17 -0.88 1.42
11 0 -17 0.59 1.31
-11 1 17 2.09 1.72
11 -1 -17 1.32 1.43
-10 -2 17 0.74 1.48
10 2 -17 1.98 1.47
-10 -1 17 29.52 3.14
10 1 -17 28 2.92
-10 0 17 16.03 2.36
10 0 -17 12.79 2.03
-10 1 17 29.2 3.28
10 -1 -17 33.5 3.17
10 -2 -17 1.14 1.26
-9 -3 17 13.93 2.2
-9 -2 17 0.79 1.35
9 2 -17 1.35 1.26
-9 -1 17 21.36 2.72
9 1 -17 24.25 2.7
-9 0 17 4.41 1.71
9 0 -17 4.56 1.55
-9 1 17 25.19 2.84
9 -1 -17 19.06 2.39
9 -2 -17 0.14 1.28
9 -3 -17 14.37 2.09
-8 -3 17 5 1.68
-8 -2 17 17.57 2.47
8 2 -17 19.22 2.28
-8 -1 17 -0.83 1.34
8 1 -17 0.1 1.11
-8 0 17 0.05 1.31
8 0 -17 -0.22 1.1
-8 1 17 0.35 1.33
8 -1 -17 0.17 1.13
8 -2 -17 15.46 2.1
8 -3 -17 4.19 1.43
-7 -4 17 1.11 1.39
-7 -3 17 1.55 1.46
-7 -2 17 5.9 1.69
7 2 -17 4.35 1.51
-7 -1 17 27.74 2.81
7 1 -17 20.86 2.53
-7 0 17 1.41 1.3
7 0 -17 0.75 1.21
-7 1 17 22.98 2.82
7 -1 -17 28.66 2.71
7 -2 -17 5.07 1.45
-7 3 17 3.88 1.54
-7 3 17 2.34 1.44
7 -3 -17 1.35 1.21
-7 4 17 2.21 1.44
7 -4 -17 1.55 1.31
-6 -4 17 2.61 1.46
-6 -3 17 19.93 2.31
-6 -2 17 17.99 2.3
6 2 -17 21.42 2.33
-6 -1 17 17.17 2.3
6 1 -17 23.14 2.46
-6 0 17 2.99 1.51
6 0 -17 2.76 1.3
6 0 -17 2.57 1.01
-6 1 17 19.32 2.27
6 -1 -17 16.92 2.18
6 -2 -17 20.23 2.29
-6 3 17 19.37 2.45
-6 3 17 20.53 2.35
6 -3 -17 20.01 2.27
-6 4 17 1.94 1.44
-6 4 17 2.15 1.39
6 -4 -17 3.63 1.34
-5 -4 17 5.61 1.62
-5 -3 17 2.54 1.31
5 3 -17 2.29 1.4
-5 -2 17 10.13 1.78
5 2 -17 10.4 1.81
-5 -1 17 5.94 1.56
5 1 -17 7.27 1.5
-5 0 17 32.66 3.11
5 0 -17 31.51 2.97
-5 1 17 6.55 1.58
5 -1 -17 7.53 1.55
-5 2 17 8.32 1.58
5 -2 -17 11.85 1.71
-5 3 17 3.07 1.37
-5 3 17 1.81 1.29
5 -3 -17 1.89 1.18
-5 4 17 6.17 1.6
-5 4 17 6.36 1.57
5 -4 -17 6.13 1.49
-4 -4 17 0.99 1.35
-4 -3 17 1.08 1.33
4 3 -17 1.94 1.36
-4 -2 17 1 1.33
4 2 -17 1.25 1.27
-4 -1 17 20.32 2.48
4 1 -17 20.19 2.27
-4 0 17 11.8 1.92
4 0 -17 10.32 1.74
-4 1 17 18.93 2.33
4 -1 -17 20.99 2.17
-4 2 17 1.76 1.19
4 -2 -17 1.34 1.16
-4 3 17 0.95 1.21
4 -3 -17 0.81 1.12
-4 4 17 0.73 1.31
-4 4 17 1.3 1.28
4 -4 -17 2.44 1.26
-3 -4 17 7.06 1.69
-3 -3 17 1.65 1.35
3 3 -17 1.58 1.3
-3 -2 17 19.35 2.41
3 2 -17 20.55 2.43
-3 -1 17 -0.16 1.25
3 1 -17 -0.08 1.16
-3 0 17 3.38 1.47
3 0 -17 3.83 1.25
-3 1 17 0.67 1.14
-3 1 17 -0.45 1.26
3 -1 -17 1.19 1.14
-3 2 17 20.47 2.22
3 -2 -17 21.29 2.27
-3 3 17 1.06 1.19
3 -3 -17 2.21 1.2
-3 4 17 5.19 1.41
3 -4 -17 6.63 1.42
-2 -4 17 13.36 2.06
-2 -3 17 3.93 1.5
2 3 -17 2.54 1.39
-2 -2 17 8.59 1.76
2 2 -17 10.06 1.68
-2 -1 17 12.99 1.96
2 1 -17 18 2.03
-2 0 17 0.39 1.14
2 0 -17 0.09 1.01
-2 1 17 17.42 2.11
-2 1 17 17.14 2.15
2 -1 -17 16.26 2.06
-2 2 17 11.25 1.62
2 -2 -17 8.9 1.59
-2 3 17 3.08 1.3
2 -3 -17 2.33 1.17
-2 4 17 12.79 1.83
2 -4 -17 17.15 2
-1 -4 17 7.57 1.69
-1 -3 17 2.99 1.45
1 3 -17 2.34 1.29
-1 -2 17 4.05 1.49
1 2 -17 4.6 1.44
1 1 -17 21.11 2.27
-1 0 17 2.42 1.28
1 0 -17 4.24 1.34
-1 1 17 21.52 2.34
-1 1 17 22.69 2.63
1 -1 -17 30.51 2.57
-1 2 17 2.89 1.27
1 -2 -17 4.24 1.28
-1 3 17 4.34 1.28
1 -3 -17 2.47 1.21
-1 4 17 7.06 1.46
1 -4 -17 8.52 1.49
0 -4 17 10.08 1.88
0 -3 17 1.59 1.38
0 3 -17 2.56 1.42
0 -2 17 42.85 3.79
0 2 -17 47.56 3.81
0 -1 17 1.64 1.4
0 1 -17 2.73 1.28
0 0 17 -0.07 1.26
0 0 -17 0.28 1
0 1 17 1.04 1.12
0 1 17 0.92 1.31
0 -1 -17 1.8 1.15
0 2 17 48.72 3.48
0 -2 -17 41.21 3.59
0 3 17 3.52 1.34
0 -3 -17 2.11 1.22
0 4 17 6.14 1.49
0 -4 -17 10.35 1.51
1 -4 17 12.33 2.05
1 -3 17 18.48 2.2
-1 3 -17 13.18 2.07
1 -2 17 3.52 1.36
-1 2 -17 3.1 1.36
1 -1 17 19.72 2.53
-1 1 -17 23.22 2.37
1 0 17 3.47 1.49
-1 0 -17 2.83 1.19
1 1 17 24.15 2.62
1 1 17 23.01 2.31
-1 -1 -17 19.71 2.21
1 2 17 2.04 1.22
-1 -2 -17 3.24 1.23
1 3 17 12.59 1.8
-1 -3 -17 15.99 1.96
1 4 17 11.39 1.76
-1 -4 -17 12.46 1.69
2 -4 17 50.58 4.25
2 -3 17 0.54 1.39
-2 3 -17 -0.24 1.28
2 -2 17 7.37 1.69
-2 2 -17 3.78 1.36
2 -1 17 20.41 2.42
-2 1 -17 16.66 2.21
2 0 17 72.81 5.21
-2 0 -17 68.04 5.11
2 1 17 19.74 2.42
2 1 17 17.54 2.11
-2 -1 -17 17.85 2.14
2 2 17 4.98 1.37
-2 -2 -17 6.13 1.38
2 3 17 0.57 1.19
-2 -3 -17 -0.31 1.04
2 4 17 50.69 3.77
-2 -4 -17 49.18 3.82
3 -4 17 5.71 1.73
3 -3 17 5.46 1.7
-3 3 -17 3.72 1.49
3 -2 17 24.08 2.9
-3 2 -17 30.04 2.79
3 -1 17 12.6 2.05
-3 1 -17 15.74 2.01
3 0 17 3.05 1.47
-3 0 -17 4.24 1.39
3 1 17 13.86 1.81
3 1 17 15.5 2.07
-3 -1 -17 10.58 1.8
-3 -2 -17 23.62 2.51
3 3 17 4.33 1.35
-3 -3 -17 5.4 1.33
3 4 17 2.44 1.28
-3 -4 -17 5.86 1.35
4 -4 17 1.87 1.55
4 -3 17 6.69 1.81
-4 3 -17 11.99 2.01
4 -2 17 6.57 1.68
-4 2 -17 6.87 1.63
4 -1 17 27.86 2.82
-4 1 -17 20.89 2.62
4 0 17 -0.16 1.25
-4 0 -17 1.48 1.31
4 1 17 20.25 2.36
-4 -1 -17 25.08 2.51
4 2 17 6.83 1.5
-4 -2 -17 7.02 1.49
4 3 17 10.49 1.7
-4 -3 -17 7.31 1.53
4 4 17 2.23 1.23
-4 -4 -17 0.81 1.17
5 -3 17 1.63 1.44
-5 3 -17 2.26 1.54
5 -2 17 9.88 1.97
-5 2 -17 7.23 1.68
5 -1 17 2.09 1.49
-5 1 -17 2.29 1.4
5 0 17 58.91 4.5
-5 0 -17 49.87 4.25
5 1 17 0.76 1.27
-5 -1 -17 0.64 1.2
5 2 17 8.43 1.64
-5 -2 -17 8.73 1.66
5 3 17 0.5 1.23
-5 -3 -17 0.89 1.14
6 -3 17 15.65 2.42
-6 3 -17 21.47 2.73
6 -2 17 20.65 2.56
-6 2 -17 19.7 2.48
6 -1 17 27.09 3.07
-6 1 -17 29.59 2.87
6 0 17 2.38 1.53
-6 0 -17 1.8 1.38
-6 -1 -17 25.55 2.71
6 2 17 18.49 2.34
-6 -2 -17 21.09 2.34
6 3 17 20.65 2.39
-6 -3 -17 15.39 2.17
7 -2 17 12.13 2.2
-7 2 -17 9.74 2.05
7 -1 17 8.47 2.02
-7 1 -17 7.12 1.73
7 0 17 0.32 1.46
-7 0 -17 1.11 1.37
-7 -1 -17 11.95 1.98
7 2 17 9.53 1.78
-7 -2 -17 10.63 1.83
8 -1 17 4.68 1.78
-8 1 -17 4.6 1.73
-8 0 -17 10.42 2
-8 -1 -17 5.02 1.6
-10 -1 18 5.61 1.85
10 1 -18 4.36 1.69
-10 0 18 2.02 1.71
10 0 -18 2.99 1.6
-10 1 18 5.29 1.92
10 -1 -18 5.42 1.74
-9 -2 18 21.27 2.8
9 2 -18 22.5 2.72
-9 -1 18 7.54 1.91
9 1 -18 11.04 1.96
-9 0 18 0.11 1.57
9 0 -18 3.38 1.5
-9 1 18 9.21 2.03
9 -1 -18 8.49 1.81
9 -2 -18 20.22 2.52
-8 -2 18 2.06 1.49
8 2 -18 3.16 1.41
-8 -1 18 17.3 2.43
8 1 -18 16.1 2.25
-8 0 18 0.6 1.39
8 0 -18 1.22 1.35
-8 1 18 17.54 2.53
8 -1 -18 20.47 2.45
8 -2 -18 3.68 1.46
-7 -3 18 11.96 2.08
-7 -2 18 1.52 1.51
7 2 -18 0.25 1.23
-7 -1 18 -0.53 1.3
7 1 -18 1.14 1.35
-7 0 18 26.65 2.85
7 0 -18 27.02 2.7
-7 1 18 1.01 1.51
7 -1 -18 -0.21 1.11
7 -2 -18 1.05 1.16
7 -3 -18 9.49 1.77
-6 -3 18 16.07 2.28
-6 -2 18 14.1 2.26
6 2 -18 20.13 2.42
-6 -1 18 31.58 3.27
6 1 -18 35.09 3.22
-6 0 18 18.29 2.54
6 0 -18 18.31 2.37
-6 1 18 34.72 3.1
6 -1 -18 27.46 2.82
6 -2 -18 17.28 2.23
6 -3 -18 16.35 2.14
-5 -3 18 2.34 1.49
-5 -2 18 8.93 1.76
5 2 -18 7.47 1.73
-5 -1 18 35.12 3.3
5 1 -18 32.16 3.16
-5 0 18 48.13 4
5 0 -18 44.4 3.71
-5 1 18 30.73 3.12
5 -1 -18 36.53 3.12
5 -2 -18 8.32 1.55
-5 3 18 2.74 1.37
5 -3 -18 2.12 1.28
-4 -4 18 3.96 1.59
-4 -3 18 12.71 2.08
4 3 -18 13.37 2.01
-4 -2 18 7.1 1.69
4 2 -18 12.72 1.96
-4 -1 18 5.91 1.69
4 1 -18 7.79 1.66
-4 0 18 0.16 1.39
4 0 -18 1.44 1.2
-4 1 18 6.51 1.75
4 -1 -18 6.81 1.59
-4 2 18 12.4 1.79
4 -2 -18 8.74 1.7
-4 3 18 14.04 1.93
4 -3 -18 11.29 1.84
-4 4 18 2.91 1.39
4 -4 -18 3.04 1.27
-3 -4 18 2.48 1.48
-3 -3 18 13.88 2.13
3 3 -18 12.71 2.05
-3 -2 18 0.86 1.37
3 2 -18 -0.75 1.1
-3 -1 18 4.95 1.5
3 1 -18 6.56 1.6
-3 0 18 14.66 2.14
3 0 -18 13.21 1.99
-3 1 18 8.08 1.78
3 -1 -18 6.92 1.51
-3 2 18 -0.77 1.15
3 -2 -18 -0.35 1.12
-3 3 18 12.33 1.84
3 -3 -18 12.76 1.84
-3 4 18 3.05 1.45
3 -4 -18 1.72 1.26
-2 -4 18 8.69 1.85
-2 -3 18 3.1 1.47
2 3 -18 5.27 1.62
-2 -2 18 4.8 1.59
2 2 -18 3.01 1.43
-2 -1 18 3.83 1.45
2 1 -18 5.41 1.51
-2 0 18 21.62 2.55
2 0 -18 20.1 2.27
-2 1 18 5.62 1.52
2 -1 -18 5.25 1.38
-2 2 18 3.52 1.37
2 -2 -18 6.29 1.44
-2 3 18 4.16 1.37
2 -3 -18 2.95 1.29
-2 4 18 7.85 1.63
2 -4 -18 11.71 1.73
-1 -4 18 5.08 1.68
-1 -3 18 15.29 2.28
1 3 -18 18.71 2.46
-1 -2 18 1.44 1.46
1 2 -18 1.32 1.33
-1 -1 18 11.78 2.06
1 1 -18 16.65 2.2
-1 0 18 24.55 2.72
1 0 -18 23.19 2.56
-1 1 18 15.67 2.15
1 -1 -18 13.85 1.97
-1 2 18 1.84 1.27
1 -2 -18 2.5 1.3
-1 3 18 17.07 2.18
1 -3 -18 15.72 2.06
-1 4 18 3.82 1.43
1 -4 -18 5.94 1.4
0 -4 18 7.79 1.73
0 -3 18 30.29 3.08
0 3 -18 29.32 3.06
0 -2 18 3.77 1.57
0 2 -18 0.59 1.22
0 -1 18 14.27 2.14
0 1 -18 17.74 2.15
0 0 18 22.75 2.55
0 0 -18 22.55 2.42
0 1 18 18.04 2.25
0 -1 -18 15.44 2.13
0 2 18 1.41 1.27
0 -2 -18 2.71 1.25
0 3 18 29.71 2.67
0 -3 -18 26.46 2.63
0 4 18 7.95 1.59
0 -4 -18 6.65 1.45
1 -4 18 1.48 1.54
1 -3 18 16.18 2.31
-1 3 -18 15.54 2.23
1 -2 18 27 2.8
-1 2 -18 20.79 2.51
1 -1 18 1.85 1.47
-1 1 -18 2.32 1.27
1 0 18 51.69 4.09
-1 0 -18 47.53 3.98
1 1 18 2.13 1.5
-1 -1 -18 1.16 1.25
1 2 18 21.68 2.44
-1 -2 -18 26.93 2.61
1 3 18 14.85 1.96
-1 -3 -18 16.5 2.01
1 4 18 5.27 1.5
-1 -4 -18 1.77 1.3
2 -3 18 41.1 3.91
-2 3 -18 47.63 3.94
2 -2 18 1.11 1.35
-2 2 -18 1.01 1.34
2 -1 18 20.09 2.37
-2 1 -18 17.46 2.33
2 0 18 0.92 1.31
-2 0 -18 0.27 1.18
-2 -1 -18 18.32 2.23
2 2 18 0.8 1.24
-2 -2 -18 0.88 1.15
2 3 18 49.97 3.74
-2 -3 -18 44.24 3.76
3 -3 18 10.5 2.09
-3 3 -18 10.61 1.96
3 -2 18 13.15 2.23
-3 2 -18 15.93 2.24
3 -1 18 26.86 2.94
-3 1 -18 32.68 3.05
3 0 18 9.23 1.82
-3 0 -18 10.09 1.82
-3 -1 -18 26.14 2.69
3 2 18 13.57 1.92
-3 -2 -18 15.64 2.08
3 3 18 10.49 1.74
-3 -3 -18 11.91 1.8
4 -3 18 14.24 2.27
-4 3 -18 10.88 2.13
4 -2 18 1.05 1.55
-4 2 -18 0.74 1.42
4 -1 18 12.38 2.21
-4 1 -18 19.24 2.42
4 0 18 41.16 3.73
-4 0 -18 38.99 3.55
-4 -1 -18 14.09 2.01
4 2 18 1.53 1.29
-4 -2 -18 3.07 1.34
4 3 18 8.88 1.71
-4 -3 -18 13.26 1.82
5 -2 18 0.12 1.41
-5 2 -18 1.04 1.37
5 -1 18 17.28 2.49
-5 1 -18 19.71 2.52
5 0 18 28.74 3.12
-5 0 -18 26.58 2.75
-5 -1 -18 17.66 2.31
5 2 18 1.62 1.38
-5 -2 -18 0.25 1.22
6 -2 18 33.94 3.59
-6 2 -18 38.67 3.63
6 -1 18 0.44 1.42
-6 1 -18 0.48 1.45
-6 0 -18 0.57 1.38
-6 -1 -18 0.61 1.33
6 2 18 39.62 3.34
-6 -2 -18 31.57 3.15
7 -1 18 12.54 2.28
-7 1 -18 6.99 1.9
-7 0 -18 11.37 2.06
-7 -1 -18 13.17 2.13
-8 -1 19 5.39 1.75
8 1 -19 5.32 1.72
-8 0 19 42.94 3.82
8 0 -19 41.07 3.63
-8 1 19 6.44 1.79
8 -1 -19 5.72 1.58
-7 -2 19 10.45 2.02
7 2 -19 13.33 2.13
-7 -1 19 13.18 2.34
7 1 -19 18.07 2.4
-7 0 19 18.19 2.45
7 0 -19 16.76 2.29
-7 1 19 16.13 2.37
7 -1 -19 10.92 2
7 -2 -19 12.78 2.04
-6 -2 19 11.46 2.09
6 2 -19 10.29 1.93
-6 -1 19 10.02 2.02
6 1 -19 7.73 1.72
-6 0 19 13.41 2.13
6 0 -19 10.96 1.95
-6 1 19 11.3 2.01
6 -1 -19 9.44 1.74
6 -2 -19 12.69 1.99
-5 -3 19 3.5 1.66
-5 -2 19 10.24 2.01
5 2 -19 10.66 1.91
-5 -1 19 6.68 1.82
5 1 -19 3.49 1.46
-5 0 19 15.78 2.39
5 0 -19 18.3 2.39
-5 1 19 3.99 1.62
5 -1 -19 4.65 1.55
5 -2 -19 10.74 1.87
5 -3 -19 3.79 1.44
-4 -3 19 -0.04 1.43
-4 -2 19 7.38 1.84
4 2 -19 7.6 1.71
-4 -1 19 3.62 1.63
4 1 -19 6.44 1.68
-4 0 19 1.07 1.41
4 0 -19 0.71 1.32
-4 1 19 5.75 1.67
4 -1 -19 4.1 1.47
4 -2 -19 7.47 1.65
-4 3 19 1.65 1.42
4 -3 -19 1.07 1.35
-3 -3 19 1.96 1.54
-3 -2 19 30.05 3.08
3 2 -19 25.82 2.93
-3 -1 19 16.11 2.27
3 1 -19 12.21 1.97
-3 0 19 3.16 1.6
3 0 -19 4.01 1.48
-3 1 19 14.96 2.26
3 -1 -19 17.43 2.24
3 -2 -19 29.57 2.88
-3 3 19 2 1.38
3 -3 -19 1.8 1.35
-2 -3 19 6.7 1.84
2 3 -19 7.06 1.78
-2 -2 19 14.8 2.22
2 2 -19 17.83 2.44
-2 -1 19 26.12 2.86
2 1 -19 21.85 2.52
-2 0 19 28.03 3.01
2 0 -19 28.57 2.89
-2 1 19 20.75 2.55
2 -1 -19 25.21 2.59
2 -2 -19 15.37 2.14
-2 3 19 5.71 1.61
2 -3 -19 6.69 1.59
-1 -3 19 10.79 2.07
1 3 -19 13.19 2.06
-1 -2 19 5.84 1.81
1 2 -19 7.42 1.78
-1 -1 19 5.11 1.76
1 1 -19 7.09 1.68
-1 0 19 8.37 1.9
1 0 -19 6.78 1.6
1 -1 -19 5.86 1.55
-1 2 19 8.87 1.69
1 -2 -19 5.66 1.54
-1 3 19 11.3 1.94
1 -3 -19 12.96 1.88
0 -3 19 15.72 2.28
0 3 -19 12.59 2.11
0 -2 19 4.16 1.71
0 2 -19 6.52 1.71
0 -1 19 20.08 2.66
0 1 -19 18.35 2.32
0 0 19 1.08 1.52
0 0 -19 1.53 1.35
0 -1 -19 22.7 2.54
0 2 19 6.08 1.55
0 -2 -19 4.04 1.41
0 3 19 11.5 1.89
1 -3 19 0.5 1.5
-1 3 -19 0.93 1.31
1 -2 19 30.52 3.23
-1 2 -19 32.07 3.07
1 -1 19 30.58 3.21
-1 1 -19 31.43 3.14
1 0 19 2.44 1.61
-1 0 -19 2.07 1.4
-1 -1 -19 30.65 2.88
-1 -2 -19 27.18 2.69
1 3 19 -0.42 1.27
-1 -3 -19 0.34 1.17
2 -3 19 2.23 1.64
-2 3 -19 0.99 1.51
2 -2 19 14.88 2.38
-2 2 -19 17.47 2.37
2 -1 19 9.59 1.87
-2 1 -19 7.19 1.74
2 0 19 0.15 1.35
-2 0 -19 0.78 1.31
-2 -1 -19 9.04 1.75
2 2 19 17.89 2.25
-2 -2 -19 15.27 2.15
2 3 19 1.26 1.32
-2 -3 -19 1.82 1.36
3 -2 19 0.55 1.58
-3 2 -19 1.47 1.39
3 -1 19 21.48 2.84
-3 1 -19 23.24 2.6
3 0 19 0.99 1.49
-3 0 -19 0 1.21
-3 -1 -19 22.4 2.59
3 2 19 0.76 1.35
-3 -2 -19 1.78 1.43
4 -2 19 30.83 3.44
-4 2 -19 34.73 3.4
4 -1 19 16.55 2.47
-4 1 -19 16.18 2.35
4 0 19 11.4 2.17
-4 0 -19 11.29 1.92
-4 -1 -19 15.74 2.19
-4 -2 -19 31.51 3.01
5 -1 19 23.4 2.94
-5 1 -19 20.82 2.72
-5 0 -19 1.73 1.44
-5 -1 -19 22.58 2.66
-6 -1 20 4.07 1.68
6 1 -20 1.34 1.53
-6 0 20 6.6 1.96
6 0 -20 7.37 1.83
6 -1 -20 3.22 1.45
-5 -1 20 17.39 2.53
5 1 -20 18.78 2.56
-5 0 20 2.19 1.7
5 0 -20 3.42 1.56
5 -1 -20 16.35 2.23
-4 -2 20 15.36 2.32
4 2 -20 16.94 2.34
-4 -1 20 7.78 1.95
4 1 -20 6.53 1.78
-4 0 20 4.56 1.64
4 0 -20 4.23 1.61
4 -1 -20 9.69 1.92
4 -2 -20 14.7 2.16
-3 -2 20 2.63 1.65
3 2 -20 3.01 1.47
-3 -1 20 7.38 1.89
3 1 -20 5.71 1.69
-3 0 20 7.89 1.94
3 0 -20 8.23 1.8
3 -1 -20 6.62 1.7
3 -2 -20 3.65 1.49
-2 -2 20 7.99 1.87
2 2 -20 5.91 1.76
-2 -1 20 12.96 2.3
2 1 -20 18.67 2.47
-2 0 20 12.59 2.19
2 0 -20 11.45 1.93
2 -1 -20 11.09 1.96
2 -2 -20 6.65 1.72
-1 -2 20 3.98 1.79
1 2 -20 3.72 1.64
-1 -1 20 6.56 1.9
1 1 -20 9.48 1.91
-1 0 20 35.44 3.55
1 0 -20 36.45 3.38
1 -1 -20 5.59 1.53
1 -2 -20 3.66 1.46
0 -2 20 10.84 2.09
0 2 -20 7.96 1.92
0 -1 20 1.69 1.51
0 1 -20 0.84 1.43
0 0 20 31.24 3.28
0 0 -20 28.08 3.02
0 -1 -20 0.91 1.35
0 -2 -20 10.47 1.86
1 -2 20 1.55 1.62
-1 2 -20 -0.21 1.39
1 -1 20 13.65 2.27
-1 1 -20 19.18 2.33
1 0 20 12.84 2.16
-1 0 -20 12.37 2.07
-1 -1 -20 15.08 2.16
-1 -2 -20 1.76 1.41
2 -1 20 2.91 1.58
-2 1 -20 3.75 1.6
2 0 20 75.57 5.7
-2 0 -20 71.87 5.47
-2 -1 -20 4.29 1.56
3 -1 20 7.36 1.95
-3 1 -20 7.6 1.9
-3 0 -20 16.68 2.39
-3 -1 -20 6.75 1.77
