#------------------------------------------------------------------------------
#$Date: 2017-03-01 23:29:16 +0200 (Wed, 01 Mar 2017) $
#$Revision: 192644 $
#$URL: file:///home/coder/svn-repositories/cod/cif/1/54/53/1545316.cif $
#------------------------------------------------------------------------------
#
# This file is available in the Crystallography Open Database (COD),
# http://www.crystallography.net/
#
# All data on this site have been placed in the public domain by the
# contributors.
#
data_1545316
loop_
_publ_author_name
'Zhou, Min'
'Ma, Hang-Ying'
'Liu, Zhi-Hua'
'Yang, Guang-Yu'
'Du, Gang'
'Ye, Yan-Qing'
'Li, Gan-Peng'
'Hu, Qiu-Fen'
_publ_section_title
;
 (+)-Meyeniins A-C, Novel Hexahydroimidazo[1,5-c]thiazole Derivatives from
 the Tubers of Lepidium meyenii: Complete Structural Elucidation by
 Biomimetic Synthesis and Racemic Crystallization.
;
_journal_name_full               'Journal of agricultural and food chemistry'
_journal_paper_doi               10.1021/acs.jafc.6b05805
_journal_year                    2017
_chemical_formula_moiety         'C14 H14 N2 O3 S2'
_chemical_formula_sum            'C14 H14 N2 O3 S2'
_chemical_formula_weight         322.39
_space_group_crystal_system      monoclinic
_space_group_IT_number           13
_space_group_name_Hall           '-P 2yc'
_space_group_name_H-M_alt        'P 1 2/c 1'
_symmetry_space_group_name_Hall  '-P 2yc'
_symmetry_space_group_name_H-M   'P 1 2/c 1'
_atom_sites_solution_hydrogens   geom
_atom_sites_solution_primary     direct
_atom_sites_solution_secondary   difmap
_audit_creation_method           SHELXL-2014/7
_cell_angle_alpha                90
_cell_angle_beta                 97.519(2)
_cell_angle_gamma                90
_cell_formula_units_Z            4
_cell_length_a                   13.0549(13)
_cell_length_b                   6.8643(7)
_cell_length_c                   15.8088(15)
_cell_measurement_reflns_used    8394
_cell_measurement_temperature    100(2)
_cell_measurement_theta_max      30.99
_cell_measurement_theta_min      2.60
_cell_volume                     1404.5(2)
_computing_cell_refinement       'Bruker SAINT'
_computing_data_collection       'Bruker APEX2'
_computing_data_reduction        'Bruker SAINT'
_computing_molecular_graphics    'Bruker SHELXTL'
_computing_publication_material  'Bruker SHELXTL'
_computing_structure_refinement  'SHELXL-2014 (Sheldrick 2014)'
_computing_structure_solution    'SHELXS-97 (Sheldrick 2008)'
_diffrn_ambient_temperature      100(2)
_diffrn_measured_fraction_theta_full 0.997
_diffrn_measured_fraction_theta_max 0.932
_diffrn_measurement_device_type  'Bruker APEX-II CCD'
_diffrn_measurement_method       '\f and \w scans'
_diffrn_radiation_type           MoK\a
_diffrn_radiation_wavelength     0.71073
_diffrn_reflns_av_R_equivalents  0.0199
_diffrn_reflns_av_unetI/netI     0.0202
_diffrn_reflns_Laue_measured_fraction_full 0.997
_diffrn_reflns_Laue_measured_fraction_max 0.932
_diffrn_reflns_limit_h_max       18
_diffrn_reflns_limit_h_min       -17
_diffrn_reflns_limit_k_max       9
_diffrn_reflns_limit_k_min       -9
_diffrn_reflns_limit_l_max       21
_diffrn_reflns_limit_l_min       -22
_diffrn_reflns_number            15102
_diffrn_reflns_point_group_measured_fraction_full 0.997
_diffrn_reflns_point_group_measured_fraction_max 0.932
_diffrn_reflns_theta_full        25.242
_diffrn_reflns_theta_max         30.991
_diffrn_reflns_theta_min         2.599
_diffrn_source                   'fine-focus sealed tube'
_exptl_absorpt_coefficient_mu    0.390
_exptl_absorpt_correction_type   multi-scan
_exptl_absorpt_process_details   sadabs
_exptl_crystal_colour            colourless
_exptl_crystal_density_diffrn    1.525
_exptl_crystal_description       prism
_exptl_crystal_F_000             672
_exptl_crystal_size_max          0.800
_exptl_crystal_size_mid          0.200
_exptl_crystal_size_min          0.150
_exptl_transmission_factor_max   0.7462
_exptl_transmission_factor_min   0.6737
_refine_diff_density_max         0.438
_refine_diff_density_min         -0.322
_refine_diff_density_rms         0.081
_refine_ls_extinction_method     none
_refine_ls_goodness_of_fit_ref   1.085
_refine_ls_hydrogen_treatment    constr
_refine_ls_matrix_type           full
_refine_ls_number_parameters     191
_refine_ls_number_reflns         4170
_refine_ls_number_restraints     0
_refine_ls_restrained_S_all      1.085
_refine_ls_R_factor_all          0.0347
_refine_ls_R_factor_gt           0.0299
_refine_ls_shift/su_max          0.001
_refine_ls_shift/su_mean         0.000
_refine_ls_structure_factor_coef Fsqd
_refine_ls_weighting_details
'w=1/[\s^2^(Fo^2^)+(0.0409P)^2^+0.6293P] where P=(Fo^2^+2Fc^2^)/3'
_refine_ls_weighting_scheme      calc
_refine_ls_wR_factor_gt          0.0800
_refine_ls_wR_factor_ref         0.0835
_reflns_Friedel_coverage         0.000
_reflns_number_gt                3725
_reflns_number_total             4170
_reflns_threshold_expression     'I > 2\s(I)'
_cod_data_source_file            jf6b05805_si_002.cif
_cod_data_source_block           mo_zm_mk9_0m
_cod_database_code               1545316
_shelx_shelxl_version_number     2014/7
_shelx_space_group_comment
;
The symmetry employed for this shelxl refinement is uniquely defined
by the following loop, which should always be used as a source of
symmetry information in preference to the above space-group names.
They are only intended as comments.
;
_shelx_estimated_absorpt_t_min   0.745
_shelx_estimated_absorpt_t_max   0.944
_shelx_res_file
;

    mo_zm_mk9_0m.res created by SHELXL-2014/7

TITL mo_zm_mk9_0m in P2/c
CELL 0.71073 13.0549 6.8643 15.8088 90.000 97.519 90.000
ZERR 4.00 0.0013 0.0007 0.0015 0.000 0.002 0.000
LATT 1
SYMM -x, y, -z+1/2
SFAC C  H  N  O  S
UNIT 56  56  8  12  8
L.S. 10
ACTA
BOND $H
FMAP 2
PLAN -4
HTAB C5' O7_$2
HTAB C2' S1
HTAB C8 O7_$1
HTAB C5' O7_$2
HTAB C2' S1
HTAB C8 O7_$1
HTAB C5' O7_$2
EQIV $2 -x, y, -z+1/2
HTAB C2' S1
HTAB C8 O7_$1
EQIV $1 x, y+1, z
SIZE 0.150 0.200 0.800
HTAB
CONF
HTAB C8 O7_$1
HTAB C2' S1
HTAB C5' O7_$2
HTAB C8 O7_$1
HTAB C2' S1
HTAB C5' O7_$2
TEMP -173.000
WGHT    0.040900    0.629300
FVAR       0.12328
S1    5    0.394860    0.356658    0.345150    11.00000    0.01558    0.02381 =
         0.01318    0.00558    0.00103   -0.00532
S2    5    0.460015    0.153977    0.613050    11.00000    0.01358    0.02044 =
         0.01860   -0.00190   -0.00579    0.00019
O3'   4    0.036174    0.411817    0.120313    11.00000    0.01821    0.01250 =
         0.03273    0.00489   -0.01025   -0.00087
O4'   4   -0.075545    0.164840    0.069364    11.00000    0.01308    0.01529 =
         0.02073    0.00151   -0.00571    0.00071
O7    4    0.215242   -0.242328    0.427832    11.00000    0.01842    0.01372 =
         0.01771   -0.00045   -0.00276   -0.00228
N4    3    0.317167    0.218320    0.483876    11.00000    0.01259    0.01276 =
         0.01003    0.00078    0.00038   -0.00280
N6    3    0.288548    0.026272    0.370868    11.00000    0.01258    0.01431 =
         0.00893   -0.00021   -0.00027    0.00039
C8    1    0.314404    0.454320    0.600071    11.00000    0.02036    0.01499 =
         0.01762   -0.00295    0.00155   -0.00050
AFIX 137
H8A   2    0.274767    0.550467    0.563432    11.00000   -1.50000
H8B   2    0.358992    0.521640    0.645581    11.00000   -1.50000
H8C   2    0.266801    0.368105    0.625301    11.00000   -1.50000
AFIX   0
C3    1    0.380447    0.334703    0.547268    11.00000    0.01327    0.01553 =
         0.01170   -0.00038   -0.00046   -0.00421
AFIX  13
H3    2    0.426090    0.422920    0.518470    11.00000   -1.20000
AFIX   0
C5    1    0.333514    0.200761    0.400887    11.00000    0.01011    0.01601 =
         0.01106    0.00137   -0.00089    0.00061
C7'   1    0.285687   -0.048528    0.283774    11.00000    0.01388    0.02043 =
         0.00983   -0.00216   -0.00077    0.00502
AFIX  23
H7'1  2    0.293045   -0.192046    0.285997    11.00000   -1.20000
H7'2  2    0.345246    0.004870    0.258485    11.00000   -1.20000
AFIX   0
C1'   1    0.187002    0.003077    0.226749    11.00000    0.01206    0.01571 =
         0.00898   -0.00088    0.00033    0.00215
C2'   1    0.165102    0.199459    0.204462    11.00000    0.01377    0.01434 =
         0.01499   -0.00076   -0.00240   -0.00151
AFIX  43
H2'   2    0.211014    0.301771    0.224414    11.00000   -1.20000
AFIX   0
C3'   1    0.074047    0.235340    0.152455    11.00000    0.01513    0.01150 =
         0.01563    0.00134   -0.00081    0.00010
C1''  1   -0.068772    0.370749    0.083968    11.00000    0.01582    0.01500 =
         0.02814    0.00315   -0.00595    0.00069
AFIX  23
H1'1  2   -0.117431    0.411131    0.123735    11.00000   -1.20000
H1'2  2   -0.086210    0.442314    0.029622    11.00000   -1.20000
AFIX   0
C4'   1    0.007233    0.087042    0.121663    11.00000    0.01013    0.01570 =
         0.01221    0.00016   -0.00131    0.00016
C7    1    0.255712   -0.083628    0.435863    11.00000    0.01081    0.01422 =
         0.01183    0.00056   -0.00144    0.00192
C7A   1    0.284414    0.032598    0.517147    11.00000    0.01088    0.01211 =
         0.01042    0.00130    0.00018   -0.00134
AFIX  13
H7A   2    0.224040    0.049472    0.549411    11.00000   -1.20000
AFIX   0
C1    1    0.378968   -0.052443    0.574170    11.00000    0.01422    0.01602 =
         0.01265    0.00080   -0.00235    0.00096
AFIX  23
H1A   2    0.417602   -0.142125    0.540864    11.00000   -1.20000
H1B   2    0.356617   -0.125358    0.622593    11.00000   -1.20000
AFIX   0
C6'   1    0.119100   -0.144093    0.195910    11.00000    0.01458    0.01268 =
         0.01362   -0.00001    0.00107    0.00184
AFIX  43
H6'   2    0.135086   -0.274960    0.212163    11.00000   -1.20000
AFIX   0
C5'   1    0.027238   -0.105016    0.141248    11.00000    0.01324    0.01352 =
         0.01680   -0.00136   -0.00105   -0.00169
AFIX  43
H5'   2   -0.018312   -0.206106    0.119184    11.00000   -1.20000
AFIX   0
HKLF 4 1 1 0 0 0 1 0 0 0 1

REM  mo_zm_mk9_0m in P2/c
REM R1 =  0.0299 for    3725 Fo > 4sig(Fo)  and  0.0347 for all    4170 data
REM    191 parameters refined using      0 restraints

END

WGHT      0.0409      0.6293

REM Instructions for potential hydrogen bonds
HTAB C8 O7_$1
HTAB C2' S1
HTAB C5' O7_$2

REM Highest difference peak  0.438,  deepest hole -0.322,  1-sigma level  0.081
Q1    1   0.2377 -0.0215  0.2531  11.00000  0.05    0.44
Q2    1   0.2637  0.2861  0.5835  11.00000  0.05    0.43
Q3    1   0.0448  0.1539  0.1360  11.00000  0.05    0.42
Q4    1   0.0760 -0.1140  0.1689  11.00000  0.05    0.41
;
_shelx_res_checksum              27584
_shelx_hkl_file
;
  -2   0   0    0.23    0.02
  -2   0   0    0.23    0.02
  -3   0   0  217.18    4.13
  -3   0   0  182.55    4.15
  -3   0   0  204.79    4.18
  -4   0   0    0.26    0.02
  -4   0   0    0.18    0.02
  -4   0   0    0.31    0.03
  -5   0   0    0.03    0.02
  -5   0   0    0.00    0.01
  -5   0   0    0.00    0.01
  -6   0   0    8.12    0.19
  -6   0   0    7.86    0.20
  -6   0   0    7.72    0.20
  -7   0   0    0.20    0.04
  -7   0   0    0.19    0.03
  -7   0   0    0.20    0.03
  -8   0   0   10.30    0.27
  -8   0   0   10.51    0.27
  -9   0   0   16.74    0.38
  -9   0   0   16.83    0.40
  -9   0   0   16.63    0.40
 -10   0   0    9.18    0.26
 -10   0   0    8.77    0.25
 -10   0   0    9.05    0.23
 -11   0   0    4.98    0.15
 -11   0   0    5.08    0.18
 -11   0   0    5.28    0.18
 -12   0   0   17.55    0.45
 -12   0   0   18.03    0.45
 -13   0   0   37.69    0.86
  14   0   0   16.15    0.44
 -14   0   0   16.43    0.44
 -15   0   0   18.80    0.50
  15   0   0   18.75    0.50
 -16   0   0    1.67    0.13
  16   0   0    1.60    0.14
 -17   0   0    0.19    0.07
  17   0   0    0.19    0.08
   0  -1   0  277.02    5.62
   0  -1   0  272.13    5.65
   0   1   0  280.75    5.64
  -1  -1   0    0.64    0.03
   1  -1   0    0.68    0.03
  -1  -1   0    0.69    0.03
  -1  -1   0    0.77    0.03
  -1   1   0    0.66    0.03
  -1   1   0    0.63    0.03
   1   1   0    0.70    0.02
  -2  -1   0   42.29    0.84
   2  -1   0   43.46    0.83
  -2  -1   0   43.29    0.84
  -2   1   0   35.34    0.84
  -2   1   0   38.56    0.84
  -3  -1   0    3.72    0.10
  -3  -1   0    3.96    0.10
   3  -1   0    3.88    0.10
  -3   1   0    3.88    0.11
  -4  -1   0   78.04    1.59
   4  -1   0   78.09    1.60
  -4  -1   0   78.06    1.60
   4   1   0   78.06    1.58
  -4   1   0   79.03    1.61
  -5  -1   0   28.46    0.57
  -5  -1   0   27.85    0.60
   5  -1   0   27.89    0.60
  -6  -1   0    6.21    0.17
   6  -1   0    6.33    0.17
  -6  -1   0    6.22    0.17
  -6  -1   0    6.55    0.14
  -6   1   0    6.29    0.17
   7  -1   0   21.54    0.49
  -7  -1   0   21.83    0.49
  -7  -1   0   21.90    0.46
  -7   1   0   21.63    0.49
  -7   1   0   22.08    0.49
  -8  -1   0    0.51    0.05
  -8  -1   0    0.46    0.03
   8  -1   0    0.42    0.05
  -8   1   0    0.44    0.05
  -8   1   0    0.43    0.05
  -9  -1   0    2.64    0.11
  -9  -1   0    2.71    0.08
   9  -1   0    2.70    0.11
  -9   1   0    2.66    0.11
  -9   1   0    2.70    0.11
  10  -1   0    0.54    0.06
 -10  -1   0    0.53    0.06
 -10   1   0    0.55    0.06
 -10   1   0    0.73    0.07
 -11  -1   0   45.70    0.97
 -11  -1   0   43.65    0.97
  11  -1   0   42.48    0.96
 -11   1   0   43.06    0.95
 -11   1   0   43.77    0.97
 -12  -1   0    2.89    0.13
  12  -1   0    2.92    0.14
 -12  -1   0    3.25    0.15
 -12   1   0    2.95    0.13
 -12   1   0    3.34    0.14
 -13  -1   0    0.11    0.05
  13  -1   0    0.00    0.05
 -13  -1   0    0.02    0.04
 -13   1   0    0.05    0.04
 -14  -1   0    2.44    0.14
 -14  -1   0    2.87    0.15
  14  -1   0    2.32    0.14
 -14   1   0    2.81    0.15
  15  -1   0    0.15    0.06
 -15  -1   0    0.29    0.07
 -15   1   0    0.12    0.06
 -16  -1   0    0.41    0.08
  16  -1   0    0.38    0.08
 -16   1   0    0.30    0.07
  16   1   0    0.36    0.08
 -17  -1   0    3.65    0.19
  17  -1   0    3.50    0.19
 -17   1   0    3.59    0.19
  17   1   0    3.62    0.20
  18  -1   0    0.00    0.10
   0  -2   0    3.14    0.08
   0  -2   0    2.95    0.09
   0   2   0    2.85    0.09
   1  -2   0   -0.02    0.02
  -1  -2   0   -0.01    0.03
   1  -2   0   -0.06    0.03
  -1  -2   0    0.00    0.02
   1   2   0   -0.04    0.02
  -1   2   0    0.04    0.03
  -2  -2   0   24.55    0.51
  -2  -2   0   23.63    0.52
   2  -2   0   24.00    0.51
  -2   2   0   24.13    0.52
   2   2   0   25.00    0.50
  -3  -2   0   46.54    0.97
   3  -2   0   45.57    0.96
   3   2   0   48.53    0.94
  -3   2   0   45.63    0.97
   4  -2   0   33.29    0.67
  -4  -2   0   33.19    0.67
  -4   2   0   27.17    0.67
  -4   2   0   32.51    0.68
   5  -2   0    1.73    0.07
  -5  -2   0    1.50    0.07
  -5  -2   0    1.45    0.07
  -5   2   0    1.61    0.08
  -5   2   0    1.46    0.07
  -6  -2   0    1.63    0.07
   6  -2   0    1.68    0.07
  -6  -2   0    1.47    0.08
  -6   2   0    1.48    0.08
  -7  -2   0   38.80    0.83
   7  -2   0   38.22    0.82
  -7  -2   0   38.01    0.83
  -7   2   0   37.61    0.83
  -8  -2   0    4.73    0.16
   8  -2   0    4.70    0.15
  -8  -2   0    4.79    0.16
  -8   2   0    4.61    0.16
  -9  -2   0   14.59    0.36
  -9  -2   0   14.34    0.36
   9  -2   0   14.23    0.36
  -9   2   0   14.59    0.37
 -10  -2   0    2.98    0.13
  10  -2   0    2.96    0.13
 -10  -2   0    2.95    0.13
 -10   2   0    3.19    0.14
 -10   2   0    2.86    0.13
  11  -2   0    5.15    0.18
 -11  -2   0    5.02    0.18
 -11  -2   0    5.21    0.19
 -11   2   0    5.16    0.18
 -11   2   0    4.91    0.18
  12  -2   0    4.04    0.16
 -12  -2   0    3.89    0.16
 -12  -2   0    3.82    0.16
 -12   2   0    4.11    0.16
 -12   2   0    3.93    0.16
 -13  -2   0   11.08    0.33
 -13  -2   0   11.07    0.32
  13  -2   0   11.13    0.32
 -13   2   0   11.13    0.33
 -13   2   0   11.54    0.32
  14  -2   0    1.32    0.11
 -14  -2   0    1.22    0.11
 -14  -2   0    1.24    0.11
 -14   2   0    1.29    0.11
 -14   2   0    1.30    0.11
 -15  -2   0    5.70    0.23
  15  -2   0    5.37    0.22
 -15  -2   0    5.52    0.22
 -15   2   0    5.71    0.23
 -16  -2   0    0.49    0.08
 -16  -2   0    0.40    0.08
  16  -2   0    0.42    0.08
 -16   2   0    0.51    0.09
 -17  -2   0    0.60    0.09
  17  -2   0    0.94    0.11
 -17   2   0    0.97    0.12
   0  -3   0    1.67    0.08
   0  -3   0    2.00    0.06
   0   3   0    1.98    0.08
  -1  -3   0    9.12    0.24
   1  -3   0    9.85    0.24
   1  -3   0   10.14    0.22
  -1  -3   0    9.73    0.23
  -1   3   0   10.02    0.24
   1   3   0    9.86    0.23
  -2  -3   0   46.19    0.98
   2  -3   0   46.22    0.96
  -2  -3   0   46.36    0.96
   2  -3   0   45.82    0.98
  -2   3   0   46.35    0.98
   2   3   0   46.83    0.96
   3  -3   0   28.69    0.64
  -3  -3   0   29.18    0.64
  -3  -3   0   29.50    0.63
   3  -3   0   28.69    0.62
   3   3   0   29.51    0.61
  -3   3   0   29.90    0.64
  -4  -3   0    7.48    0.20
  -4  -3   0    7.36    0.19
   4  -3   0    7.39    0.19
  -4   3   0    7.65    0.20
   4   3   0    7.58    0.17
  -5  -3   0   55.57    1.18
  -5  -3   0   54.65    1.16
   5  -3   0   54.63    1.16
  -5   3   0   57.11    1.18
  -5   3   0   55.92    1.18
  -6  -3   0   17.91    0.42
  -6  -3   0   17.56    0.42
   6  -3   0   17.48    0.41
  -6   3   0   18.43    0.43
  -6   3   0   17.87    0.43
  -7  -3   0    1.59    0.09
   7  -3   0    1.51    0.08
  -7  -3   0    1.58    0.09
  -7   3   0    1.67    0.10
   8  -3   0   19.78    0.45
  -8  -3   0   19.59    0.47
  -8  -3   0   19.09    0.46
  -8   3   0   19.40    0.48
  -9  -3   0   76.48    1.64
   9  -3   0   77.86    1.63
  -9  -3   0   76.17    1.64
  -9   3   0   79.69    1.65
  -9   3   0   77.53    1.65
 -10  -3   0   38.72    0.88
 -10  -3   0   38.76    0.88
  10  -3   0   39.14    0.87
 -10   3   0   40.60    0.89
 -10   3   0   39.18    0.89
  11  -3   0    1.62    0.10
 -11  -3   0    1.64    0.11
 -11  -3   0    1.51    0.10
 -11   3   0    1.53    0.11
 -11   3   0    1.69    0.11
 -12  -3   0    0.97    0.09
  12  -3   0    1.16    0.10
 -12  -3   0    1.31    0.11
 -12   3   0    1.19    0.10
 -12   3   0    1.27    0.11
 -13  -3   0    2.10    0.13
  13  -3   0    2.02    0.12
 -13  -3   0    2.01    0.13
 -13   3   0    2.19    0.13
 -13   3   0    2.25    0.14
 -14  -3   0    2.15    0.14
  14  -3   0    2.21    0.13
 -14  -3   0    2.36    0.14
 -14   3   0    2.45    0.14
 -14   3   0    2.04    0.14
  15  -3   0    0.50    0.08
 -15  -3   0    0.44    0.08
 -15  -3   0    0.32    0.07
 -15   3   0    0.43    0.08
 -15   3   0    0.44    0.08
 -16  -3   0    0.24    0.08
  16  -3   0    0.19    0.07
 -16  -3   0    0.15    0.07
 -16   3   0    0.15    0.06
 -17  -3   0    0.08    0.06
  17  -3   0    0.05    0.06
   0  -4   0   20.39    0.45
   0  -4   0   20.82    0.48
   0   4   0   20.79    0.47
   1  -4   0    1.15    0.08
  -1  -4   0    1.00    0.07
  -1  -4   0    1.09    0.06
   1  -4   0    1.02    0.05
  -1   4   0    1.08    0.07
   1   4   0    1.07    0.06
   2  -4   0  150.99    3.10
   2  -4   0  153.91    3.13
  -2  -4   0  152.21    3.13
  -2  -4   0  151.37    3.10
  -2   4   0  155.32    3.13
   2   4   0  151.50    3.10
   3  -4   0    0.37    0.05
   3  -4   0    0.34    0.04
  -3  -4   0    0.35    0.05
  -3  -4   0    0.39    0.04
  -3   4   0    0.39    0.06
   3   4   0    0.29    0.03
   4  -4   0    4.87    0.17
  -4  -4   0    5.02    0.15
  -4  -4   0    4.99    0.16
   4  -4   0    4.92    0.14
   4   4   0    5.02    0.13
  -4   4   0    5.30    0.17
  -5  -4   0   10.97    0.29
   5  -4   0   10.97    0.27
  -5  -4   0   10.93    0.28
   5  -4   0   10.64    0.29
   5   4   0   11.02    0.24
   6  -4   0   12.77    0.31
  -6  -4   0   13.17    0.34
  -6  -4   0   13.04    0.32
  -6   4   0   13.02    0.34
   7  -4   0    0.33    0.05
  -7  -4   0    0.30    0.06
  -7  -4   0    0.30    0.05
  -7   4   0    0.29    0.07
  -7   4   0    0.28    0.06
  -8  -4   0   15.60    0.39
   8  -4   0   15.44    0.38
  -8  -4   0   15.03    0.40
  -8   4   0   15.79    0.40
  -8   4   0   15.74    0.41
  -9  -4   0    1.03    0.09
   9  -4   0    1.17    0.08
  -9  -4   0    1.04    0.09
  -9   4   0    0.95    0.09
  -9   4   0    0.99    0.09
 -10  -4   0    3.38    0.15
  10  -4   0    3.26    0.14
 -10  -4   0    3.28    0.15
 -10   4   0    3.53    0.17
 -10   4   0    3.42    0.15
 -11  -4   0    0.18    0.06
 -11  -4   0    0.28    0.07
  11  -4   0    0.18    0.05
 -11   4   0    0.20    0.06
 -11   4   0    0.20    0.06
 -12  -4   0    1.87    0.13
  12  -4   0    2.00    0.12
 -12  -4   0    1.93    0.13
 -12   4   0    2.02    0.13
 -12   4   0    1.97    0.14
 -13  -4   0    5.06    0.21
 -13  -4   0    5.13    0.21
  13  -4   0    5.10    0.20
 -13   4   0    5.32    0.22
 -13   4   0    5.21    0.22
 -14  -4   0   16.88    0.47
 -14  -4   0   16.64    0.47
  14  -4   0   17.03    0.46
 -14   4   0   17.02    0.47
 -14   4   0   17.84    0.49
 -15  -4   0    5.98    0.24
  15  -4   0    6.17    0.25
 -15  -4   0    5.96    0.25
 -15   4   0    6.47    0.25
 -15   4   0    6.45    0.26
 -16  -4   0    0.22    0.08
 -16  -4   0    0.14    0.07
 -16   4   0    0.12    0.08
 -16   4   0    0.18    0.07
   0  -5   0   40.66    0.86
   0  -5   0   40.74    0.90
   0   5   0   40.69    0.88
   1  -5   0    0.04    0.03
  -1  -5   0    0.12    0.05
   1  -5   0    0.10    0.05
  -1  -5   0    0.10    0.03
   1   5   0    0.03    0.04
  -1   5   0    0.07    0.04
   2  -5   0    2.76    0.13
  -2  -5   0    2.47    0.12
   2  -5   0    2.42    0.09
  -2  -5   0    2.42    0.10
   2   5   0    2.70    0.10
  -2   5   0    2.56    0.12
  -3  -5   0    0.32    0.06
   3  -5   0    0.29    0.04
   3  -5   0    0.32    0.06
  -3  -5   0    0.22    0.04
   3   5   0    0.15    0.04
  -3   5   0    0.15    0.05
  -4  -5   0    2.09    0.10
  -4  -5   0    2.21    0.12
   4  -5   0    2.00    0.11
   4  -5   0    2.05    0.09
   4   5   0    2.02    0.08
  -4   5   0    2.03    0.12
   5  -5   0    4.65    0.14
  -5  -5   0    4.64    0.16
  -5  -5   0    4.64    0.17
   5  -5   0    4.38    0.17
  -5   5   0    4.70    0.18
   6  -5   0    0.81    0.06
  -6  -5   0    0.79    0.07
  -6  -5   0    0.67    0.07
   6  -5   0    0.85    0.09
  -6   5   0    0.80    0.09
  -7  -5   0    2.05    0.11
  -7  -5   0    2.30    0.13
   7  -5   0    2.22    0.13
   7  -5   0    2.00    0.10
  -7   5   0    2.30    0.13
   8  -5   0   21.82    0.55
  -8  -5   0   22.08    0.53
   8  -5   0   21.60    0.51
  -8  -5   0   22.03    0.55
  -8   5   0   22.88    0.56
  -9  -5   0    3.23    0.16
   9  -5   0    3.02    0.13
  -9  -5   0    3.18    0.14
  -9   5   0    3.23    0.17
  10  -5   0    0.01    0.05
 -10  -5   0    0.05    0.05
 -10  -5   0    0.05    0.05
 -10   5   0    0.01    0.04
 -10   5   0    0.07    0.06
 -11  -5   0    0.07    0.06
 -11  -5   0    0.09    0.06
 -11   5   0    0.01    0.06
 -11   5   0    0.06    0.05
 -12  -5   0    0.09    0.06
 -12  -5   0    0.15    0.07
 -12   5   0    0.12    0.06
 -12   5   0    0.14    0.07
 -13  -5   0    0.33    0.08
 -13  -5   0    0.27    0.07
 -13   5   0    0.27    0.07
 -13   5   0    0.31    0.08
 -14  -5   0    0.10    0.06
 -14  -5   0    0.21    0.07
 -14   5   0    0.10    0.07
 -14   5   0    0.04    0.07
 -15  -5   0    0.15    0.07
 -15  -5   0    0.17    0.07
 -15   5   0    0.02    0.07
   0  -6   0    7.23    0.24
   0  -6   0    7.53    0.20
   0   6   0    7.57    0.23
  -1  -6   0   29.88    0.65
   1  -6   0   29.67    0.65
   1  -6   0   29.43    0.70
  -1  -6   0   29.80    0.69
   1   6   0   29.56    0.67
  -1   6   0   29.65    0.68
  -2  -6   0    2.21    0.10
   2  -6   0    1.99    0.13
  -2  -6   0    2.42    0.13
   2  -6   0    2.24    0.11
   2   6   0    2.16    0.10
  -2   6   0    2.14    0.12
   3  -6   0    8.52    0.27
  -3  -6   0    8.92    0.27
  -3  -6   0    8.80    0.24
  -3   6   0    8.68    0.27
   3   6   0    8.93    0.23
   4  -6   0   14.01    0.39
  -4  -6   0   14.37    0.38
  -4  -6   0   14.08    0.35
  -4   6   0   14.19    0.39
  -5  -6   0    1.10    0.08
   5  -6   0    1.17    0.11
  -5  -6   0    1.22    0.10
  -5   6   0    1.24    0.11
  -6  -6   0    1.37    0.11
   6  -6   0    1.39    0.11
  -6  -6   0    1.23    0.09
  -6   6   0    1.32    0.12
  -7  -6   0    0.13    0.05
  -7  -6   0    0.12    0.06
   7  -6   0    0.17    0.06
  -7   6   0    0.14    0.06
   8  -6   0    1.94    0.14
  -8  -6   0    1.84    0.13
  -8  -6   0    2.03    0.12
  -8   6   0    1.85    0.14
  -9  -6   0    2.16    0.14
   9  -6   0    2.07    0.14
  -9  -6   0    1.95    0.12
  -9   6   0    2.10    0.15
 -10  -6   0    0.15    0.06
 -10  -6   0    0.28    0.07
  10  -6   0    0.30    0.08
 -10   6   0    0.23    0.08
 -11  -6   0    4.34    0.20
 -11  -6   0    4.42    0.19
  11  -6   0    4.23    0.21
 -11   6   0    4.38    0.21
 -12  -6   0    2.70    0.17
  12  -6   0    2.48    0.17
 -12  -6   0    2.61    0.15
 -12   6   0    2.30    0.17
  13  -6   0    3.70    0.20
 -13  -6   0    3.51    0.18
 -13  -6   0    3.60    0.19
 -13   6   0    3.54    0.20
 -14  -6   0    3.74    0.19
 -14  -6   0    3.66    0.20
 -14   6   0    3.81    0.31
   0  -7   0    3.35    0.17
   0   7   0    3.45    0.15
   1  -7   0    0.65    0.09
  -1  -7   0    0.61    0.09
  -1   7   0    0.60    0.08
   1   7   0    0.64    0.07
   2  -7   0    4.47    0.19
  -2  -7   0    4.40    0.19
  -2   7   0    4.29    0.18
   3  -7   0   15.58    0.43
  -3  -7   0   16.06    0.43
  -3   7   0   15.30    0.42
  -4  -7   0    7.53    0.26
   4  -7   0    6.98    0.26
  -4   7   0    7.80    0.26
   5  -7   0    8.36    0.29
  -5  -7   0    8.45    0.28
  -5   7   0    8.36    0.28
  -6  -7   0    1.09    0.13
   6  -7   0    1.01    0.11
  -6  -7   0    0.94    0.10
  -6   7   0    0.81    0.10
   7  -7   0    0.57    0.09
  -7  -7   0    0.57    0.09
  -7  -7   0    0.51    0.07
  -7   7   0    0.44    0.08
   8  -7   0    4.56    0.21
  -8  -7   0    4.72    0.18
  -8  -7   0    4.56    0.20
  -8   7   0    4.83    0.22
   9  -7   0    6.86    0.28
  -9  -7   0    7.69    0.25
  -9  -7   0    7.67    0.28
  -9   7   0    7.34    0.28
 -10  -7   0    4.24    0.20
 -10  -7   0    4.12    0.19
  10  -7   0    4.39    0.22
 -10   7   0    4.20    0.21
  11  -7   0    2.89    0.18
 -11  -7   0    2.90    0.16
 -11  -7   0    2.57    0.17
 -11   7   0    2.86    0.19
 -12  -7   0    8.64    0.29
 -12  -7   0    8.03    0.31
 -13  -7   0    2.63    0.17
   0  -8   0    0.94    0.11
   0   8   0    0.95    0.09
  -1  -8   0    0.55    0.09
   1  -8   0    0.60    0.09
  -1   8   0    0.59    0.08
  -2  -8   0    0.68    0.10
   2  -8   0    0.98    0.11
  -2   8   0    0.86    0.10
  -3  -8   0    2.20    0.15
   3  -8   0    1.81    0.14
  -3   8   0    1.72    0.13
   4  -8   0    0.03    0.06
  -4  -8   0    0.04    0.07
  -4   8   0    0.06    0.06
   5  -8   0    1.35    0.13
  -5  -8   0    1.32    0.13
  -5   8   0    1.35    0.13
  -6  -8   0    2.14    0.15
   6  -8   0    2.23    0.16
  -6   8   0    2.28    0.16
  -7  -8   0    1.70    0.15
   7  -8   0    2.07    0.16
  -7   8   0    1.66    0.15
  -8  -8   0    0.13    0.08
   8  -8   0    0.32    0.09
  -8   8   0    0.28    0.09
  -9  -8   0   -0.06    0.07
   9  -8   0    0.03    0.07
  -9   8   0   -0.03    0.07
 -10  -8   0    1.35    0.14
   0  -9   0    0.26    0.09
  -1  -9   0    0.51    0.10
   1  -9   0    0.54    0.10
  -2  -9   0    2.13    0.16
   2  -9   0    2.38    0.17
  -2   9   0    2.13    0.15
  -3  -9   0    1.92    0.16
   3  -9   0    1.60    0.15
  -3   9   0    1.65    0.14
   4  -9   0    0.34    0.09
  -4  -9   0    0.34    0.09
  -4   9   0    0.47    0.09
   5  -9   0    2.31    0.18
  -5  -9   0    2.35    0.17
  -5   9   0    2.07    0.16
  -6  -9   0    2.51    0.17
  -6   9   0    2.44    0.18
  -7  -9   0    0.15    0.12
 -17   0   1    0.02    0.05
  17   0  -1   -0.08    0.06
 -16   0   1    0.01    0.05
  16   0  -1   -0.05    0.06
 -15   0   1    0.04    0.05
  15   0  -1   -0.01    0.05
 -14   0   1    0.04    0.05
  14   0  -1   -0.05    0.05
  13   0  -1   -0.06    0.04
 -13   0   1    0.04    0.04
  12   0  -1    0.01    0.04
 -12   0   1    0.03    0.04
 -11   0   1   -0.01    0.04
 -11   0   1   -0.04    0.03
 -10   0   1   -0.04    0.03
 -10   0   1    0.03    0.04
 -10   0   1   -0.01    0.03
  -9   0   1   -0.02    0.03
  -9   0   1   -0.05    0.03
  -9   0   1    0.02    0.04
  -8   0   1    0.02    0.03
  -8   0   1   -0.02    0.03
  -8   0   1   -0.01    0.01
  -7   0   1    0.00    0.02
  -7   0   1   -0.01    0.03
  -7   0   1    0.10    0.03
  -6   0   1   -0.01    0.01
  -6   0   1    0.02    0.02
  -6   0   1    0.02    0.02
  -5   0   1    0.02    0.02
  -5   0   1    0.00    0.00
  -5   0   1    0.01    0.01
  -4   0   1    0.01    0.02
  -4   0   1    0.00    0.01
  -4   0   1   -0.02    0.01
  -3   0   1   -0.03    0.02
  -3   0   1    0.00    0.02
  -3   0   1   -0.03    0.01
  -2   0   1    0.02    0.01
  -2   0   1    0.00    0.01
  -1   0   1   -0.01    0.01
   1   0  -1   -0.01    0.00
  -1   0   1    0.00    0.00
   0   0   1   -0.08    0.00
   0   0   1   -0.07    0.00
   0   0  -1   -0.08    0.00
   0   0  -1   -0.07    0.00
  -1   0  -1   -0.01    0.01
  -1   0  -1   -0.03    0.01
  -1   0  -1   -0.03    0.01
  -2   0  -1   -0.02    0.01
  -2   0  -1   -0.03    0.01
  -2   0  -1   -0.06    0.01
  -3   0  -1    0.04    0.02
  -3   0  -1   -0.01    0.02
  -3   0  -1    0.02    0.02
  -4   0  -1    0.00    0.02
  -4   0  -1    0.00    0.01
  -4   0  -1    0.01    0.02
  -5   0  -1    0.00    0.01
  -5   0  -1   -0.01    0.01
  -5   0  -1    0.02    0.02
  -6   0  -1    0.00    0.02
  -6   0  -1   -0.01    0.02
  -6   0  -1   -0.02    0.02
  -7   0  -1   -0.01    0.02
  -7   0  -1   -0.02    0.03
  -7   0  -1   -0.01    0.02
  -8   0  -1    0.00    0.01
  -8   0  -1   -0.01    0.02
  -8   0  -1    0.01    0.03
  -9   0  -1    0.01    0.03
  -9   0  -1    0.01    0.03
  -9   0  -1    0.11    0.04
 -10   0  -1    0.04    0.03
 -10   0  -1    0.08    0.04
 -10   0  -1    0.00    0.03
 -11   0  -1   -0.04    0.03
 -11   0  -1    0.02    0.03
 -11   0  -1    0.03    0.04
 -12   0  -1   -0.02    0.04
 -12   0  -1    0.03    0.04
 -13   0  -1    0.02    0.05
 -13   0  -1    0.02    0.04
 -14   0  -1   -0.03    0.04
 -15   0  -1    0.00    0.04
  15   0   1    0.07    0.06
  16   0   1    0.03    0.06
 -16   0  -1   -0.01    0.05
  17   0   1    0.10    0.07
 -17   0  -1    0.03    0.06
  18  -1  -1    8.23    0.38
 -17  -1   1    2.38    0.16
  17  -1  -1    2.64    0.17
  17   1  -1    2.86    0.18
 -17   1   1    2.78    0.17
  16  -1  -1    7.59    0.28
 -16  -1   1    7.98    0.28
 -16   1   1    8.59    0.29
  16   1  -1    7.66    0.28
 -15  -1   1    2.06    0.13
  15  -1  -1    1.94    0.13
 -15   1   1    1.97    0.13
  15   1  -1    1.99    0.14
 -14  -1   1    0.52    0.08
  14  -1  -1    0.40    0.07
 -14   1   1    0.42    0.07
  13  -1  -1    7.11    0.24
 -13  -1   1    7.11    0.24
 -13  -1   1    7.02    0.24
 -13   1   1    7.47    0.24
 -12  -1   1    2.37    0.13
  12  -1  -1    2.31    0.12
 -12  -1   1    2.18    0.12
 -12   1   1    2.15    0.11
 -12   1   1    2.39    0.12
 -11  -1   1    0.56    0.07
  11  -1  -1    0.56    0.07
 -11  -1   1    0.67    0.07
 -11   1   1    0.63    0.07
 -11   1   1    0.66    0.07
  10  -1  -1    0.01    0.04
 -10  -1   1    0.12    0.04
 -10  -1   1    0.00    0.01
 -10   1   1    0.00    0.01
 -10   1   1    0.01    0.04
   9  -1  -1   38.00    0.84
  -9  -1   1   38.50    0.80
  -9  -1   1   38.88    0.85
  -9   1   1   38.59    0.83
  -8  -1   1    7.01    0.20
  -8  -1   1    6.73    0.16
  -8  -1   1    6.80    0.19
   8  -1  -1    6.66    0.19
  -8   1   1    6.49    0.19
  -7  -1   1    0.08    0.02
   7  -1  -1    0.07    0.03
  -7  -1   1    0.08    0.03
  -7  -1   1    0.08    0.03
  -7   1   1   -0.01    0.02
  -7   1   1    0.07    0.03
  -6  -1   1   35.84    0.74
  -6  -1   1   35.27    0.71
   6  -1  -1   35.20    0.74
  -6  -1   1   33.66    0.74
  -6   1   1   32.10    0.74
  -5  -1   1    9.05    0.22
  -5  -1   1    9.41    0.20
   5  -1  -1    9.43    0.22
  -5   1   1    9.17    0.22
  -4  -1   1    7.14    0.15
   4  -1  -1    6.93    0.17
  -4  -1   1    6.76    0.17
  -4   1   1    6.71    0.17
  -4   1   1    6.93    0.17
  -3  -1   1  269.84    5.44
  -3  -1   1  273.43    5.53
   3  -1  -1  267.62    5.53
  -3   1   1  264.17    5.55
  -3   1   1  271.98    5.54
  -2  -1   1   60.89    1.24
  -2  -1   1   62.05    1.24
   2  -1  -1   61.16    1.24
  -2   1   1   58.83    1.24
  -1  -1   1  102.61    2.11
   1  -1  -1  101.12    2.12
  -1   1   1  102.90    2.14
   1   1  -1  104.51    2.10
  -1   1   1  101.75    2.12
   0  -1   1   23.53    0.52
   0  -1   1   24.89    0.50
   0  -1  -1   24.92    0.51
   0  -1  -1   25.16    0.51
   0   1  -1   24.65    0.50
   0   1  -1   25.36    0.51
   0   1   1   25.55    0.51
   1  -1   1    7.70    0.16
   1  -1   1    7.39    0.17
  -1  -1  -1    7.52    0.17
  -1  -1  -1    7.57    0.17
   1   1   1    7.67    0.16
  -2  -1  -1  121.34    2.47
  -2  -1  -1  118.90    2.52
  -2  -1  -1  122.26    2.48
   2  -1   1  124.48    2.49
  -2   1  -1  115.65    2.51
   2   1   1  124.64    2.47
  -3  -1  -1   20.89    0.44
  -3  -1  -1   21.11    0.45
   3   1   1   21.51    0.42
   3   1   1   19.19    0.43
  -3   1  -1   21.43    0.45
  -3   1  -1   20.47    0.44
  -3   1  -1   20.11    0.44
  -4  -1  -1  118.47    2.39
  -4  -1  -1  118.60    2.47
  -4   1  -1  114.43    2.40
  -4   1  -1  117.58    2.40
  -5  -1  -1   16.43    0.33
  -5   1  -1   15.60    0.36
  -6  -1  -1   10.99    0.23
  -6  -1  -1   10.64    0.26
  -6   1  -1   10.43    0.26
  -6   1  -1   10.19    0.25
  -6   1  -1   10.64    0.26
  -7  -1  -1   18.27    0.42
  -7  -1  -1   18.58    0.39
  -7   1  -1   18.28    0.42
  -7   1  -1   17.89    0.41
  -7   1  -1   17.78    0.42
  -8  -1  -1    0.25    0.04
  -8  -1  -1    0.45    0.05
  -8  -1  -1    0.45    0.03
  -8   1  -1    0.45    0.05
  -8   1  -1    0.41    0.05
  -8   1  -1    0.49    0.05
  -9  -1  -1   17.34    0.42
  -9  -1  -1   18.08    0.38
  -9   1  -1   17.66    0.42
  -9   1  -1   17.64    0.43
  -9   1  -1   17.63    0.41
 -10  -1  -1   19.84    0.48
 -10  -1  -1   19.86    0.48
 -10   1  -1   19.95    0.46
 -10   1  -1   19.80    0.48
 -11  -1  -1    6.68    0.21
 -11  -1  -1    7.27    0.23
 -11   1  -1    6.48    0.20
 -11   1  -1    7.13    0.22
 -12  -1  -1   46.30    1.02
 -12  -1  -1   44.69    1.02
  12  -1   1   45.37    1.01
 -12   1  -1   46.80    1.02
 -12   1  -1   45.40    0.99
  13  -1   1    0.04    0.05
 -13  -1  -1    0.05    0.05
 -13  -1  -1    0.01    0.05
 -13   1  -1   -0.05    0.04
  14  -1   1    0.05    0.05
 -14  -1  -1    0.13    0.06
 -14  -1  -1    0.04    0.05
 -14   1  -1    0.01    0.05
 -15  -1  -1    8.89    0.30
 -15  -1  -1    8.81    0.29
  15  -1   1    8.72    0.29
 -15   1  -1    8.50    0.29
  16  -1   1    6.57    0.25
 -16  -1  -1    6.34    0.24
 -16   1  -1    6.17    0.25
  17  -1   1    0.31    0.08
 -17  -1  -1    0.26    0.07
 -17   1  -1    0.28    0.07
  17   1   1    0.21    0.08
  18  -2  -1    1.09    0.19
  17  -2  -1    2.14    0.16
 -17  -2   1    2.29    0.16
  17   2  -1    2.29    0.16
 -17   2   1    2.31    0.16
  16  -2  -1    2.74    0.16
 -16  -2   1    2.27    0.15
 -16   2   1    2.68    0.16
 -15  -2   1    1.60    0.12
  15  -2  -1    1.34    0.12
 -15  -2   1    1.47    0.13
 -15   2   1    1.50    0.12
 -14  -2   1   15.38    0.43
 -14  -2   1   15.08    0.42
  14  -2  -1   15.45    0.42
 -14   2   1   16.02    0.44
 -14   2   1   15.76    0.41
 -13  -2   1    2.23    0.13
 -13  -2   1    2.01    0.13
  13  -2  -1    2.45    0.13
 -13   2   1    2.31    0.12
 -13   2   1    2.12    0.13
  12  -2  -1   33.77    0.78
 -12  -2   1   34.55    0.79
 -12  -2   1   33.42    0.78
 -12   2   1   34.56    0.79
 -12   2   1   34.36    0.78
  11  -2  -1    0.49    0.06
 -11  -2   1    0.45    0.07
 -11  -2   1    0.58    0.07
 -11   2   1    0.51    0.07
 -11   2   1    0.49    0.07
  10  -2  -1    1.83    0.10
 -10  -2   1    2.21    0.11
 -10  -2   1    1.71    0.10
 -10   2   1    1.80    0.11
 -10   2   1    1.92    0.11
  -9  -2   1    8.94    0.25
   9  -2  -1    8.81    0.25
  -9  -2   1    8.98    0.25
  -9   2   1    8.97    0.25
  -8  -2   1   29.71    0.66
  -8  -2   1   30.06    0.66
   8  -2  -1   29.56    0.65
  -8   2   1   28.51    0.66
  -7  -2   1   47.92    1.03
  -7  -2   1   48.37    1.03
   7  -2  -1   48.24    1.03
  -7   2   1   48.03    1.04
  -7   2   1   49.37    1.03
  -6  -2   1    2.47    0.10
   6  -2  -1    2.59    0.09
  -6  -2   1    2.52    0.10
  -6   2   1    2.52    0.10
  -6   2   1    2.57    0.11
  -5  -2   1   10.13    0.25
   5  -2  -1   10.05    0.24
  -5  -2   1   10.00    0.24
  -5   2   1   10.04    0.26
  -5   2   1   10.24    0.25
  -4  -2   1    2.98    0.11
  -4  -2   1    3.80    0.11
   4  -2  -1    3.88    0.11
  -4   2   1    3.68    0.11
  -4   2   1    2.79    0.11
   3  -2  -1    1.44    0.06
  -3  -2   1    1.44    0.06
  -3   2   1    1.40    0.06
   3   2  -1    1.42    0.04
   2  -2  -1    1.73    0.06
  -2  -2   1    1.61    0.06
   2   2  -1    1.69    0.05
  -2   2   1    1.72    0.07
  -2   2   1    1.77    0.07
  -1  -2   1    0.58    0.03
   1  -2  -1    0.60    0.04
   1  -2  -1    0.66    0.04
  -1   2   1    0.65    0.05
   1   2  -1    0.71    0.04
   0  -2  -1  107.30    2.21
   0  -2   1  108.88    2.22
   0  -2  -1  109.04    2.24
   0   2   1  108.95    2.20
   0   2  -1  107.84    2.22
  -1  -2  -1   29.44    0.62
   1  -2   1   29.34    0.60
  -1  -2  -1   29.37    0.61
  -1   2  -1   28.83    0.62
   1   2   1   29.59    0.61
  -2  -2  -1  116.19    2.39
  -2  -2  -1  114.72    2.37
   2  -2   1  117.19    2.39
  -2   2  -1  115.20    2.38
   2   2   1  119.24    2.38
   3  -2   1    0.16    0.02
  -3  -2  -1    0.08    0.02
  -3  -2  -1    0.12    0.02
   3   2   1    0.14    0.02
  -4  -2  -1   10.41    0.24
   4  -2   1    9.89    0.23
  -4   2  -1    9.73    0.25
   5  -2   1   43.59    0.91
  -5  -2  -1   44.12    0.93
  -5  -2  -1   44.08    0.93
  -5   2  -1   44.01    0.93
  -5   2  -1   42.75    0.93
  -6  -2  -1   94.73    1.93
  -6  -2  -1   93.26    1.93
   6  -2   1   93.32    1.92
  -6   2  -1   91.69    1.93
  -6   2  -1   93.93    1.93
  -7  -2  -1   95.32    2.01
  -7  -2  -1  100.97    2.01
   7  -2   1   97.72    2.00
  -7   2  -1   96.10    2.01
  -7   2  -1   95.51    2.01
  -8  -2  -1    5.46    0.18
   8  -2   1    5.47    0.17
  -8  -2  -1    5.50    0.17
  -8   2  -1    5.74    0.18
  -8   2  -1    5.69    0.18
   9  -2   1    0.44    0.06
  -9  -2  -1    0.23    0.05
  -9  -2  -1    0.35    0.05
  -9   2  -1    0.29    0.05
  -9   2  -1    0.41    0.06
 -10  -2  -1    1.73    0.10
 -10  -2  -1    1.93    0.11
  10  -2   1    1.83    0.10
 -10   2  -1    1.85    0.11
 -10   2  -1    1.72    0.10
 -11  -2  -1    0.89    0.08
  11  -2   1    0.96    0.08
 -11  -2  -1    0.77    0.08
 -11   2  -1    0.79    0.08
 -11   2  -1    0.79    0.08
 -12  -2  -1    4.37    0.17
  12  -2   1    4.75    0.18
 -12  -2  -1    4.79    0.18
 -12   2  -1    4.63    0.18
 -12   2  -1    4.74    0.18
 -13  -2  -1    0.36    0.07
 -13  -2  -1    0.23    0.06
  13  -2   1    0.33    0.06
 -13   2  -1    0.26    0.06
 -13   2  -1    0.24    0.06
 -14  -2  -1   14.05    0.40
  14  -2   1   13.26    0.38
 -14  -2  -1   13.58    0.39
 -14   2  -1   14.83    0.43
 -14   2  -1   13.53    0.39
 -15  -2  -1    7.71    0.27
 -15  -2  -1    7.76    0.27
  15  -2   1    7.64    0.26
 -15   2  -1    7.43    0.27
  16  -2   1    4.54    0.21
 -16  -2  -1    5.34    0.22
 -16  -2  -1    4.88    0.22
 -16   2  -1    4.99    0.22
 -17  -2  -1    1.39    0.13
  17  -2   1    1.45    0.13
 -17  -2  -1    1.41    0.14
 -17   2  -1    1.42    0.14
 -17  -3   1    1.71    0.14
 -16  -3   1    0.34    0.08
 -16  -3   1    0.28    0.08
  16  -3  -1    0.26    0.07
 -16   3   1    0.28    0.08
 -15  -3   1    3.11    0.17
  15  -3  -1    3.11    0.17
 -15  -3   1    3.05    0.17
 -15   3   1    3.02    0.17
 -15   3   1    3.36    0.17
  14  -3  -1    0.34    0.07
 -14  -3   1    0.24    0.07
 -14  -3   1    0.45    0.08
 -14   3   1    0.19    0.06
 -14   3   1    0.35    0.07
 -13  -3   1    1.59    0.12
 -13  -3   1    1.68    0.12
  13  -3  -1    1.90    0.13
 -13   3   1    1.75    0.13
 -13   3   1    1.74    0.12
 -12  -3   1    5.10    0.20
  12  -3  -1    5.45    0.20
 -12  -3   1    5.39    0.20
 -12   3   1    5.35    0.20
 -12   3   1    5.35    0.21
 -11  -3   1    0.27    0.06
 -11  -3   1    0.25    0.06
  11  -3  -1    0.18    0.05
 -11   3   1    0.20    0.06
 -11   3   1    0.20    0.06
  10  -3  -1    0.59    0.07
 -10  -3   1    0.55    0.07
 -10  -3   1    0.50    0.07
 -10   3   1    0.48    0.07
 -10   3   1    0.38    0.06
   9  -3  -1    9.95    0.27
  -9  -3   1    9.83    0.27
  -9  -3   1    9.75    0.28
  -9   3   1    9.79    0.29
  -9   3   1   10.05    0.28
  -8  -3   1    0.27    0.05
   8  -3  -1    0.34    0.05
  -8  -3   1    0.32    0.05
  -8   3   1    0.23    0.05
  -8   3   1    0.30    0.05
  -7  -3   1    2.12    0.10
   7  -3  -1    2.10    0.09
  -7  -3   1    2.00    0.11
  -7   3   1    2.32    0.12
  -7   3   1    2.44    0.11
  -6  -3   1    0.52    0.05
  -6  -3   1    0.52    0.06
   6  -3  -1    0.52    0.05
  -6   3   1    0.54    0.06
  -6   3   1    0.54    0.06
   5  -3  -1   49.55    1.05
  -5  -3   1   50.20    1.06
  -5  -3   1   50.25    1.05
  -5   3   1   47.81    1.07
  -5   3   1   51.59    1.06
  -4  -3   1    7.59    0.19
   4  -3  -1    7.62    0.19
  -4  -3   1    7.63    0.21
  -4   3   1    7.48    0.20
   4   3  -1    7.82    0.17
  -4   3   1    6.81    0.21
   3  -3  -1    7.88    0.21
  -3  -3   1    7.72    0.21
   3  -3  -1    8.07    0.20
  -3  -3   1    7.88    0.20
  -3   3   1    8.57    0.22
   3   3  -1    8.38    0.19
  -2  -3   1   27.39    0.61
   2  -3  -1   27.70    0.60
   2  -3  -1   27.72    0.61
  -2  -3   1   27.92    0.59
   2   3  -1   28.22    0.59
  -2   3   1   28.82    0.61
   1  -3  -1    5.52    0.15
  -1  -3   1    5.63    0.16
  -1  -3   1    5.61    0.14
   1   3  -1    5.67    0.15
  -1   3   1    5.91    0.16
   0  -3   1   -0.01    0.03
   0  -3  -1    0.02    0.02
   0  -3   1    0.01    0.01
   0  -3  -1    0.07    0.02
   0   3  -1    0.02    0.02
   0   3   1    0.00    0.02
   1  -3   1    2.78    0.08
  -1  -3  -1    2.74    0.09
   1  -3   1    2.43    0.09
   1   3   1    2.80    0.09
  -1   3  -1    2.72    0.10
  -2  -3  -1    0.50    0.04
   2  -3   1    0.50    0.03
   2  -3   1    0.41    0.05
  -2  -3  -1    0.57    0.05
  -2   3  -1    0.44    0.05
   2   3   1    0.50    0.04
  -3  -3  -1    0.80    0.06
  -3  -3  -1    0.76    0.05
   3  -3   1    0.85    0.04
   3   3   1    0.82    0.04
  -3   3  -1    0.84    0.07
  -4  -3  -1    4.86    0.14
  -4  -3  -1    4.76    0.15
   4  -3   1    5.09    0.13
   4   3   1    5.16    0.12
  -5  -3  -1    8.70    0.23
  -5  -3  -1    8.81    0.23
   5  -3   1    8.74    0.21
  -5   3  -1    9.03    0.24
  -6  -3  -1    0.17    0.04
   6  -3   1    0.14    0.03
  -6  -3  -1    0.13    0.04
  -6   3  -1    0.11    0.04
   7  -3   1    0.12    0.03
  -7  -3  -1    0.11    0.04
  -7  -3  -1    0.11    0.04
  -7   3  -1    0.11    0.04
  -8  -3  -1   10.41    0.28
  -8  -3  -1   10.47    0.28
   8  -3   1   10.56    0.27
  -8   3  -1   10.55    0.29
  -9  -3  -1    2.56    0.12
   9  -3   1    2.43    0.11
  -9  -3  -1    2.55    0.12
  -9   3  -1    2.41    0.13
  -9   3  -1    2.63    0.12
 -10  -3  -1    9.77    0.28
  10  -3   1    9.76    0.27
 -10  -3  -1    9.69    0.28
 -10   3  -1    9.93    0.29
 -10   3  -1    9.61    0.29
 -11  -3  -1    5.14    0.19
 -11  -3  -1    4.88    0.18
  11  -3   1    5.14    0.18
 -11   3  -1    4.91    0.19
 -11   3  -1    4.90    0.19
 -12  -3  -1    0.20    0.06
  12  -3   1    0.09    0.05
 -12  -3  -1    0.15    0.06
 -12   3  -1    0.12    0.06
 -12   3  -1    0.09    0.05
 -13  -3  -1    4.94    0.19
  13  -3   1    4.84    0.19
 -13  -3  -1    5.02    0.20
 -13   3  -1    4.99    0.20
 -13   3  -1    4.60    0.19
 -14  -3  -1    0.15    0.06
  14  -3   1    0.03    0.05
 -14  -3  -1    0.13    0.06
 -14   3  -1    0.02    0.05
 -14   3  -1    0.08    0.06
 -15  -3  -1    1.66    0.14
  15  -3   1    1.72    0.13
 -15  -3  -1    1.79    0.13
 -15   3  -1    1.77    0.14
 -15   3  -1    1.77    0.13
  16  -3   1   -0.03    0.06
 -16   3  -1   -0.03    0.05
  17  -3   1    0.70    0.10
 -17  -3  -1    0.85    0.11
  16  -4  -1    1.46    0.13
 -16  -4   1    1.26    0.13
 -16  -4   1    1.39    0.13
 -16   4   1    1.44    0.15
 -16   4   1    1.38    0.13
 -15  -4   1   10.99    0.35
  15  -4  -1   11.19    0.35
 -15  -4   1   10.98    0.36
 -15   4   1   11.44    0.37
 -15   4   1   11.28    0.36
 -14  -4   1    2.05    0.14
 -14  -4   1    2.04    0.14
  14  -4  -1    2.27    0.14
 -14   4   1    2.41    0.15
 -14   4   1    2.04    0.15
  13  -4  -1    0.41    0.07
 -13  -4   1    0.33    0.07
 -13  -4   1    0.33    0.07
 -13   4   1    0.24    0.07
 -13   4   1    0.41    0.08
  12  -4  -1    1.20    0.10
 -12  -4   1    0.98    0.10
 -12  -4   1    0.83    0.09
 -12   4   1    1.25    0.12
 -12   4   1    1.03    0.11
  11  -4  -1    4.46    0.17
 -11  -4   1    4.10    0.17
 -11  -4   1    4.28    0.18
 -11   4   1    4.43    0.19
 -11   4   1    4.28    0.18
 -10  -4   1    2.93    0.14
  10  -4  -1    3.36    0.14
 -10  -4   1    3.07    0.15
 -10   4   1    3.32    0.16
 -10   4   1    3.20    0.15
  -9  -4   1    1.95    0.12
   9  -4  -1    1.94    0.10
  -9  -4   1    1.95    0.11
  -9   4   1    2.01    0.13
  -9   4   1    1.90    0.12
  -8  -4   1   32.19    0.75
  -8  -4   1   32.02    0.73
   8  -4  -1   32.46    0.73
  -8   4   1   33.09    0.75
  -8   4   1   33.48    0.76
  -7  -4   1    2.02    0.10
   7  -4  -1    1.96    0.10
  -7  -4   1    2.11    0.12
  -7   4   1    2.06    0.12
  -7   4   1    2.09    0.11
  -6  -4   1    7.50    0.23
  -6  -4   1    7.68    0.21
   6  -4  -1    7.76    0.21
  -6   4   1    7.88    0.23
   5  -4  -1    1.06    0.07
   5  -4  -1    1.25    0.08
  -5  -4   1    1.21    0.09
  -5  -4   1    1.17    0.07
   5   4  -1    1.22    0.05
  -4  -4   1    2.09    0.10
   4  -4  -1    2.11    0.10
  -4  -4   1    2.19    0.09
   4  -4  -1    2.20    0.09
  -4   4   1    2.27    0.11
   4   4  -1    2.13    0.07
  -3  -4   1    3.83    0.14
  -3  -4   1    3.89    0.12
   3  -4  -1    3.88    0.14
   3  -4  -1    3.86    0.12
   3   4  -1    3.80    0.11
  -3   4   1    3.82    0.14
  -2  -4   1   10.29    0.24
  -2  -4   1   10.29    0.27
   2  -4  -1   10.22    0.27
   2  -4  -1   10.21    0.25
  -2   4   1   10.49    0.27
   2   4  -1   10.17    0.25
   1  -4  -1   41.88    0.89
  -1  -4   1   41.23    0.88
   1  -4  -1   42.03    0.91
  -1  -4   1   42.41    0.91
  -1   4   1   42.45    0.90
   1   4  -1   42.17    0.89
   0  -4  -1    0.04    0.03
   0  -4   1    0.08    0.02
   0  -4   1    0.07    0.04
   0  -4  -1    0.05    0.03
   0   4   1    0.04    0.03
   0   4  -1    0.06    0.03
  -1  -4  -1    8.78    0.23
   1  -4   1    8.65    0.20
   1  -4   1    8.58    0.24
  -1  -4  -1    8.61    0.22
   1   4   1    8.51    0.22
  -1   4  -1    8.94    0.23
   2  -4   1    0.04    0.04
  -2  -4  -1    0.01    0.03
   2  -4   1    0.03    0.02
  -2  -4  -1    0.07    0.04
   2   4   1   -0.01    0.03
  -2   4  -1   -0.05    0.03
   3  -4   1    0.00    0.02
  -3  -4  -1    0.01    0.03
   3  -4   1    0.01    0.04
  -3  -4  -1    0.00    0.03
  -3   4  -1    0.02    0.04
   3   4   1    0.00    0.02
  -4  -4  -1    0.40    0.05
   4  -4   1    0.53    0.04
   4  -4   1    0.48    0.05
  -4  -4  -1    0.49    0.06
   4   4   1    0.50    0.04
  -4   4  -1    0.52    0.06
  -5  -4  -1    2.31    0.10
   5  -4   1    2.34    0.09
  -5  -4  -1    2.33    0.11
   5   4   1    2.37    0.07
   6  -4   1   14.70    0.35
  -6  -4  -1   15.28    0.38
  -6  -4  -1   14.68    0.37
  -7  -4  -1    8.88    0.26
  -7  -4  -1    8.72    0.25
   7  -4   1    8.98    0.24
  -7   4  -1    9.30    0.27
  -8  -4  -1   14.29    0.37
   8  -4   1   14.00    0.34
  -8  -4  -1   13.58    0.36
  -8   4  -1   13.91    0.37
  -8   4  -1   13.41    0.37
  -9  -4  -1    4.69    0.17
   9  -4   1    4.67    0.16
  -9  -4  -1    4.80    0.18
  -9   4  -1    4.60    0.18
  -9   4  -1    4.92    0.19
  10  -4   1    3.38    0.14
 -10  -4  -1    3.55    0.15
 -10  -4  -1    3.42    0.15
 -10   4  -1    3.44    0.16
 -10   4  -1    3.54    0.16
 -11  -4  -1    2.22    0.13
 -11  -4  -1    2.22    0.13
  11  -4   1    2.16    0.12
 -11   4  -1    2.21    0.13
 -11   4  -1    2.15    0.13
 -12  -4  -1    5.31    0.21
  12  -4   1    5.41    0.20
 -12  -4  -1    5.46    0.21
 -12   4  -1    5.34    0.22
 -12   4  -1    5.54    0.22
 -13  -4  -1    7.86    0.27
 -13  -4  -1    8.27    0.28
  13  -4   1    8.04    0.26
 -13   4  -1    8.36    0.29
 -13   4  -1    8.41    0.28
 -14  -4  -1    0.43    0.08
 -14  -4  -1    0.42    0.08
 -14   4  -1    0.49    0.09
 -14   4  -1    0.50    0.09
 -15  -4  -1   -0.05    0.05
 -15  -4  -1    0.00    0.06
 -15   4  -1    0.06    0.06
 -15   4  -1   -0.03    0.06
 -16  -4  -1    5.32    0.23
 -16  -4  -1    5.26    0.29
 -16   4  -1    5.10    0.23
 -15  -5   1    0.45    0.09
 -15  -5   1    0.34    0.08
 -15   5   1    0.45    0.11
 -15   5   1    0.50    0.10
 -14  -5   1    1.06    0.12
 -14  -5   1    1.23    0.12
 -14   5   1    1.46    0.14
 -14   5   1    0.98    0.12
 -13  -5   1   -0.02    0.05
 -13  -5   1    0.06    0.06
 -13   5   1    0.00    0.05
 -13   5   1    0.00    0.06
 -12  -5   1    0.01    0.05
 -12  -5   1   -0.04    0.05
 -12   5   1    0.00    0.05
 -12   5   1    0.03    0.06
  11  -5  -1    1.83    0.12
 -11  -5   1    1.92    0.12
 -11  -5   1    1.71    0.13
 -11   5   1    1.83    0.14
 -11   5   1    2.09    0.14
  10  -5  -1   -0.01    0.04
 -10  -5   1    0.01    0.05
 -10  -5   1    0.09    0.05
 -10   5   1    0.03    0.05
 -10   5   1   -0.04    0.06
  -9  -5   1    1.23    0.11
   9  -5  -1    1.37    0.09
  -9  -5   1    1.19    0.10
  -9   5   1    1.31    0.12
  -9   5   1    1.37    0.11
  -8  -5   1    3.62    0.14
  -8  -5   1    3.46    0.16
   8  -5  -1    3.37    0.13
  -8   5   1    3.56    0.17
   7  -5  -1    3.87    0.14
   7  -5  -1    4.21    0.17
  -7  -5   1    3.91    0.15
  -7  -5   1    3.95    0.17
  -7   5   1    4.00    0.18
  -6  -5   1    1.59    0.11
   6  -5  -1    1.83    0.11
   6  -5  -1    1.82    0.09
  -6  -5   1    1.74    0.10
  -6   5   1    1.81    0.12
  -5  -5   1   37.43    0.84
  -5  -5   1   37.33    0.81
   5  -5  -1   37.65    0.81
   5  -5  -1   36.55    0.84
  -5   5   1   37.99    0.85
  -4  -5   1   24.74    0.57
   4  -5  -1   24.13    0.54
   4  -5  -1   23.99    0.57
  -4  -5   1   23.96    0.54
  -4   5   1   24.36    0.58
   4   5  -1   23.83    0.52
  -3  -5   1   78.31    1.63
   3  -5  -1   76.12    1.59
   3  -5  -1   77.42    1.63
  -3  -5   1   75.62    1.59
  -3   5   1   77.28    1.63
   3   5  -1   75.24    1.58
  -2  -5   1   10.20    0.25
   2  -5  -1   10.26    0.26
  -2  -5   1   10.78    0.29
   2  -5  -1   10.38    0.29
  -2   5   1   10.66    0.29
   2   5  -1   10.11    0.26
  -1  -5   1    6.50    0.21
   1  -5  -1    6.50    0.21
   1  -5  -1    6.19    0.18
  -1  -5   1    6.45    0.17
  -1   5   1    6.69    0.20
   1   5  -1    6.37    0.19
   0  -5  -1    0.03    0.03
   0  -5  -1   -0.01    0.04
   0  -5   1    0.05    0.05
   0  -5   1    0.01    0.02
   0   5  -1    0.02    0.04
   0   5   1    0.01    0.04
  -1  -5  -1   15.18    0.36
  -1  -5  -1   15.80    0.39
   1  -5   1   15.92    0.40
   1  -5   1   15.41    0.35
  -1   5  -1   15.67    0.38
   1   5   1   15.24    0.37
   2  -5   1    7.73    0.24
  -2  -5  -1    8.02    0.21
  -2  -5  -1    8.06    0.23
   2  -5   1    7.97    0.20
   2   5   1    7.64    0.21
  -2   5  -1    7.82    0.23
   3  -5   1   17.77    0.41
  -3  -5  -1   18.03    0.43
  -3  -5  -1   18.69    0.45
   3  -5   1   18.31    0.46
  -3   5  -1   18.46    0.45
   3   5   1   18.08    0.41
  -4  -5  -1    2.20    0.10
   4  -5   1    2.33    0.09
  -4  -5  -1    2.21    0.12
   4  -5   1    2.28    0.12
  -4   5  -1    2.19    0.12
   4   5   1    2.32    0.09
  -5  -5  -1    1.19    0.09
   5  -5   1    1.17    0.07
   5  -5   1    1.33    0.10
  -5  -5  -1    1.31    0.09
  -5   5  -1    1.24    0.11
  -6  -5  -1   26.76    0.62
  -6  -5  -1   27.07    0.63
   6  -5   1   28.02    0.65
   6  -5   1   26.79    0.60
  -6   5  -1   27.44    0.65
   7  -5   1    1.60    0.08
  -7  -5  -1    1.54    0.11
  -7  -5  -1    1.34    0.09
   7  -5   1    1.69    0.12
  -7   5  -1    1.69    0.12
  -8  -5  -1    6.56    0.21
   8  -5   1    6.73    0.23
  -8  -5  -1    6.14    0.22
  -8   5  -1    6.56    0.24
  -9  -5  -1   24.84    0.60
  -9  -5  -1   24.03    0.58
  -9   5  -1   23.80    0.61
 -10  -5  -1   33.10    0.78
 -10  -5  -1   32.55    0.77
 -10   5  -1   33.41    0.79
 -11  -5  -1   13.92    0.39
 -11  -5  -1   14.40    0.40
 -11   5  -1   14.21    0.42
 -11   5  -1   14.42    0.41
 -12  -5  -1   12.38    0.37
 -12  -5  -1   12.73    0.37
 -12   5  -1   12.78    0.39
 -12   5  -1   12.64    0.39
 -13  -5  -1    0.07    0.06
 -13  -5  -1   -0.02    0.05
 -13   5  -1    0.03    0.06
 -13   5  -1    0.04    0.07
 -14  -5  -1    0.10    0.07
 -14  -5  -1    0.15    0.07
 -14   5  -1    0.08    0.07
 -14   5  -1    0.10    0.07
 -15  -5  -1    2.08    0.15
 -15  -5  -1    2.13    0.16
 -15   5  -1    1.84    0.15
 -14  -6   1   10.14    0.34
 -14  -6   1    9.74    0.33
 -14   6   1    9.66    0.44
 -13  -6   1    2.65    0.16
  13  -6  -1    3.14    0.19
 -13  -6   1    2.76    0.17
 -13   6   1    2.90    0.19
 -12  -6   1    1.07    0.12
  12  -6  -1    1.19    0.12
 -12  -6   1    1.03    0.10
 -12   6   1    1.06    0.12
 -11  -6   1    0.60    0.08
  11  -6  -1    0.84    0.11
 -11  -6   1    0.96    0.11
 -11   6   1    0.74    0.10
 -10  -6   1    0.10    0.05
  10  -6  -1    0.00    0.05
 -10  -6   1   -0.01    0.06
 -10   6   1    0.02    0.06
  -9  -6   1    7.17    0.24
   9  -6  -1    6.93    0.26
  -9  -6   1    7.24    0.26
  -9   6   1    7.69    0.27
   8  -6  -1    1.34    0.12
  -8  -6   1    1.40    0.12
  -8  -6   1    1.43    0.10
  -8   6   1    1.22    0.12
  -7  -6   1    1.49    0.10
   7  -6  -1    1.42    0.11
  -7  -6   1    1.43    0.12
  -7   6   1    1.27    0.12
   6  -6  -1    0.01    0.05
  -6  -6   1    0.01    0.04
  -6  -6   1    0.07    0.06
  -6   6   1   -0.02    0.05
  -5  -6   1    0.13    0.06
   5  -6  -1    0.12    0.06
  -5  -6   1    0.08    0.04
   5  -6  -1    0.02    0.04
  -5   6   1    0.00    0.05
   4  -6  -1    0.25    0.06
  -4  -6   1    0.28    0.05
  -4  -6   1    0.23    0.06
   4  -6  -1    0.31    0.05
  -4   6   1    0.24    0.07
   3  -6  -1    0.08    0.04
  -3  -6   1    0.10    0.06
  -3  -6   1    0.11    0.04
   3  -6  -1    0.13    0.06
   3   6  -1    0.13    0.04
  -3   6   1    0.06    0.05
  -2  -6   1    0.17    0.06
   2  -6  -1    0.08    0.06
  -2  -6   1    0.11    0.03
   2  -6  -1    0.11    0.04
   2   6  -1    0.14    0.04
  -2   6   1    0.15    0.06
   1  -6  -1    0.31    0.05
  -1  -6   1    0.27    0.04
  -1  -6   1    0.36    0.07
   1  -6  -1    0.34    0.07
   1   6  -1    0.32    0.05
  -1   6   1    0.27    0.06
   0  -6   1   29.91    0.71
   0  -6  -1   30.93    0.71
   0  -6  -1   29.83    0.67
   0   6  -1   30.58    0.69
   0   6   1   29.97    0.69
   1  -6   1    4.85    0.19
  -1  -6  -1    4.91    0.16
  -1  -6  -1    4.82    0.18
  -1   6  -1    4.67    0.17
   1   6   1    4.80    0.17
  -2  -6  -1   11.15    0.31
  -2  -6  -1   11.27    0.29
   2  -6   1   11.11    0.32
   2   6   1   10.74    0.29
  -2   6  -1   11.00    0.31
  -3  -6  -1    1.74    0.09
  -3  -6  -1    1.74    0.11
   3  -6   1    1.62    0.12
  -3   6  -1    1.70    0.12
   3   6   1    1.71    0.09
  -4  -6  -1   19.38    0.47
   4  -6   1   19.98    0.51
  -4  -6  -1   19.91    0.49
  -4   6  -1   19.75    0.50
  -5  -6  -1    2.28    0.13
  -5  -6  -1    2.40    0.11
   5  -6   1    2.27    0.14
  -5   6  -1    2.23    0.14
  -6  -6  -1    0.02    0.04
   6  -6   1    0.07    0.06
  -6  -6  -1   -0.06    0.04
  -6   6  -1    0.03    0.05
  -7  -6  -1    0.96    0.09
  -7  -6  -1    0.94    0.10
   7  -6   1    1.01    0.11
  -7   6  -1    0.97    0.10
  -8  -6  -1    1.89    0.12
  -8  -6  -1    2.25    0.14
   8  -6   1    2.28    0.14
  -8   6  -1    1.83    0.14
  -9  -6  -1    0.73    0.09
  -9  -6  -1    0.80    0.09
   9  -6   1    0.84    0.10
  -9   6  -1    0.66    0.10
 -10  -6  -1    0.13    0.06
 -10  -6  -1    0.20    0.06
  10  -6   1    0.06    0.06
 -10   6  -1    0.05    0.06
 -11  -6  -1   -0.07    0.06
  11  -6   1    0.08    0.07
 -11  -6  -1    0.10    0.06
 -11   6  -1   -0.05    0.06
 -12  -6  -1    0.28    0.08
  12  -6   1    0.25    0.09
 -12  -6  -1    0.30    0.08
 -12   6  -1    0.16    0.08
  13  -6   1    1.83    0.16
 -13  -6  -1    1.83    0.14
 -13  -6  -1    2.14    0.15
 -13   6  -1    1.85    0.16
 -14  -6  -1    1.52    0.14
 -14  -6  -1    1.43    0.13
 -12  -7   1    0.03    0.10
 -12  -7   1    0.12    0.08
  12  -7  -1    0.20    0.12
  11  -7  -1    0.12    0.07
 -11  -7   1    0.02    0.07
 -11   7   1    0.09    0.08
 -10  -7   1    0.11    0.07
  10  -7  -1    0.25    0.08
 -10   7   1    0.10    0.08
  -9  -7   1    0.61    0.10
   9  -7  -1    0.87    0.11
  -9   7   1    0.61    0.10
  -8  -7   1    0.22    0.07
   8  -7  -1    0.17    0.07
  -8   7   1    0.22    0.08
   7  -7  -1    0.23    0.07
  -7  -7   1    0.22    0.07
  -7   7   1    0.27    0.08
  -6  -7   1    0.51    0.09
   6  -7  -1    0.74    0.09
  -6   7   1    0.61    0.09
  -5  -7   1    9.18    0.29
   5  -7  -1    8.79    0.30
  -5   7   1    8.80    0.30
   4  -7  -1    0.06    0.06
  -4  -7   1    0.09    0.06
  -4   7   1   -0.07    0.05
   3  -7  -1    0.81    0.10
  -3  -7   1    0.62    0.09
  -3   7   1    0.61    0.09
   2  -7  -1    3.35    0.17
  -2  -7   1    3.41    0.17
  -2   7   1    3.71    0.17
   1  -7  -1   10.32    0.32
  -1  -7   1   10.50    0.32
  -1   7   1   10.42    0.31
   1   7  -1   10.24    0.29
   0  -7   1    0.18    0.07
   0  -7  -1    0.19    0.06
   0   7  -1    0.17    0.05
   0   7   1    0.20    0.06
  -1  -7  -1    6.23    0.22
   1  -7   1    6.05    0.23
   1   7   1    5.96    0.20
  -1   7  -1    5.33    0.20
   2  -7   1    0.59    0.09
  -2  -7  -1    0.59    0.09
  -2   7  -1    0.69    0.08
  -3  -7  -1    0.04    0.06
   3  -7   1    0.01    0.06
  -3  -7  -1    0.08    0.06
  -3   7  -1    0.01    0.05
  -4  -7  -1    1.19    0.11
  -4  -7  -1    1.23    0.09
   4  -7   1    1.08    0.11
  -4   7  -1    1.23    0.11
  -5  -7  -1    0.53    0.07
   5  -7   1    0.51    0.09
  -5  -7  -1    0.74    0.09
  -5   7  -1    0.57    0.09
  -6  -7  -1    1.26    0.10
  -6  -7  -1    1.24    0.11
   6  -7   1    1.47    0.13
  -6   7  -1    1.29    0.12
   7  -7   1    0.65    0.10
  -7  -7  -1    0.63    0.09
  -7  -7  -1    0.70    0.08
  -7   7  -1    0.49    0.09
  -8  -7  -1    1.53    0.11
   8  -7   1    1.39    0.13
  -8  -7  -1    1.47    0.13
  -8   7  -1    1.61    0.14
  -9  -7  -1    0.07    0.06
   9  -7   1    0.15    0.07
  -9  -7  -1    0.11    0.06
  -9   7  -1    0.07    0.07
  10  -7   1    0.58    0.10
 -10  -7  -1    0.70    0.09
 -10  -7  -1    0.44    0.09
 -10   7  -1    0.37    0.09
 -11  -7  -1    1.32    0.12
 -11  -7  -1    1.01    0.12
  11  -7   1    1.15    0.13
 -11   7  -1    1.48    0.15
 -12  -7  -1    1.12    0.12
 -12  -7  -1    1.34    0.13
 -10  -8   1    6.30    0.27
   9  -8  -1   -0.09    0.06
  -9  -8   1   -0.06    0.07
  -9   8   1    0.02    0.07
   8  -8  -1    3.21    0.19
  -8  -8   1    3.01    0.19
  -8   8   1    3.09    0.19
  -7  -8   1    0.34    0.09
   7  -8  -1    0.39    0.09
  -7   8   1    0.17    0.08
   6  -8  -1    7.14    0.28
  -6  -8   1    7.40    0.28
  -6   8   1    7.20    0.28
  -5  -8   1    7.44    0.28
   5  -8  -1    7.51    0.28
  -5   8   1    7.54    0.28
  -4  -8   1   -0.03    0.06
   4  -8  -1    0.00    0.06
  -4   8   1   -0.02    0.06
  -3  -8   1    0.31    0.08
   3  -8  -1    0.38    0.08
  -3   8   1    0.25    0.07
  -2  -8   1    0.30    0.08
   2  -8  -1    0.22    0.07
  -2   8   1    0.27    0.07
   1  -8  -1    4.35    0.20
  -1  -8   1    4.19    0.20
  -1   8   1    4.32    0.18
   0  -8   1    4.08    0.20
   0  -8  -1    3.81    0.19
   0   8   1    4.53    0.21
   0   8  -1    4.27    0.18
  -1  -8  -1    2.29    0.15
   1  -8   1    2.60    0.16
  -1   8  -1    2.54    0.14
  -2  -8  -1    9.17    0.31
   2  -8   1    8.47    0.30
  -2   8  -1    9.04    0.29
   3  -8   1    4.53    0.22
  -3  -8  -1    4.89    0.21
  -3   8  -1    4.80    0.21
  -4  -8  -1    5.71    0.23
   4  -8   1    5.41    0.24
  -4   8  -1    5.52    0.23
  -5  -8  -1    9.02    0.30
   5  -8   1    8.98    0.32
  -5   8  -1    8.72    0.31
   6  -8   1   10.86    0.37
  -6  -8  -1   10.80    0.35
  -6   8  -1   11.44    0.36
  -7  -8  -1    1.20    0.13
   7  -8   1    1.32    0.14
  -7   8  -1    1.08    0.13
  -8  -8  -1    1.67    0.14
   8  -8   1    1.49    0.15
  -8   8  -1    1.42    0.14
   9  -8   1    1.17    0.14
  -9  -8  -1    1.05    0.12
  -9   8  -1    1.35    0.15
 -10  -8  -1    3.28    0.20
   6  -9  -1   10.41    0.42
  -6  -9   1   10.32    0.37
  -6   9   1   10.31    0.36
   5  -9  -1    4.84    0.24
  -5  -9   1    4.99    0.24
  -5   9   1    4.61    0.23
  -4  -9   1    0.26    0.09
   4  -9  -1    0.17    0.08
  -4   9   1    0.33    0.08
  -3  -9   1    3.62    0.21
   3  -9  -1    3.67    0.20
  -3   9   1    3.57    0.19
  -2  -9   1    1.20    0.13
   2  -9  -1    1.25    0.13
  -2   9   1    1.10    0.12
   1  -9  -1    0.46    0.10
  -1  -9   1    0.43    0.10
   0  -9   1    0.63    0.11
   0  -9  -1    0.46    0.10
  -1  -9  -1    5.17    0.23
   1  -9   1    4.76    0.23
  -2  -9  -1    0.09    0.08
   2  -9   1    0.08    0.08
  -2   9  -1    0.15    0.07
   3  -9   1    0.08    0.07
  -3  -9  -1    0.00    0.07
  -3   9  -1   -0.03    0.06
  -4  -9  -1    1.51    0.14
   4  -9   1    1.73    0.16
  -4   9  -1    1.62    0.14
  -5  -9  -1    1.22    0.13
   5  -9   1    0.97    0.13
  -5   9  -1    1.09    0.12
  -6  -9  -1    0.98    0.12
  -6   9  -1    0.93    0.12
  -7  -9  -1    0.40    0.10
  18   0  -2    0.41    0.15
  17   0  -2    0.92    0.11
 -17   0   2    0.80    0.10
  16   0  -2    0.11    0.07
 -16   0   2    0.16    0.06
 -15   0   2    2.73    0.15
  15   0  -2    2.72    0.16
  14   0  -2   16.18    0.44
 -14   0   2   16.19    0.44
 -13   0   2    3.59    0.16
  13   0  -2    3.70    0.17
 -12   0   2   12.44    0.34
  12   0  -2   12.45    0.34
  11   0  -2    2.20    0.11
 -11   0   2    2.36    0.12
 -11   0   2    2.17    0.10
  10   0  -2    0.19    0.05
 -10   0   2    0.32    0.05
  -9   0   2  102.46    1.83
   9   0  -2   74.76    1.84
   8   0  -2   10.40    0.27
  -7   0   2   32.90    0.82
   7   0  -2   41.09    0.84
  -7   0   2   43.13    0.84
  -6   0   2   37.00    0.79
  -6   0   2   37.13    0.78
  -5   0   2    0.45    0.04
  -5   0   2    0.42    0.04
  -4   0   2    0.16    0.03
  -4   0   2    0.17    0.03
  -3   0   2  277.01    5.76
  -3   0   2  281.88    5.71
  -2   0   2    6.29    0.14
  -2   0   2    6.03    0.14
   2   0  -2    5.48    0.14
   1   0  -2   82.99    1.72
  -1   0   2   82.23    1.74
  -1   0   2   79.94    1.72
   0   0  -2   51.17    1.05
   0   0  -2   50.99    1.06
   0   0   2   51.74    1.06
  -1   0  -2    0.89    0.03
  -1   0  -2    0.89    0.03
  -1   0  -2    0.92    0.03
  -2   0  -2   23.63    0.49
  -2   0  -2   23.90    0.49
  -2   0  -2   23.31    0.49
  -3   0  -2    0.05    0.02
  -3   0  -2    0.02    0.02
  -3   0  -2    0.07    0.02
  -4   0  -2   44.17    0.96
  -4   0  -2   47.02    0.96
  -4   0  -2   47.92    0.96
  -5   0  -2   26.48    0.57
  -6   0  -2    0.05    0.02
  -6   0  -2   -0.01    0.02
  -6   0  -2    0.01    0.02
  -7   0  -2  201.21    4.29
  -7   0  -2  204.26    4.16
  -8   0  -2    0.15    0.04
  -8   0  -2    0.18    0.04
  -8   0  -2    0.23    0.03
  -9   0  -2   38.10    0.82
  -9   0  -2   37.74    0.80
  -9   0  -2   36.74    0.82
 -10   0  -2    3.86    0.14
 -10   0  -2    3.90    0.13
 -10   0  -2    3.65    0.15
 -11   0  -2    4.80    0.17
 -11   0  -2    4.60    0.15
 -11   0  -2    4.60    0.17
 -12   0  -2   13.84    0.37
 -12   0  -2   13.75    0.37
 -13   0  -2    7.13    0.24
 -13   0  -2    7.09    0.23
 -14   0  -2    5.47    0.21
 -14   0  -2    5.74    0.22
 -15   0  -2    7.48    0.26
 -16   0  -2    1.71    0.13
  16   0   2    1.70    0.13
 -17   0  -2    6.79    0.26
  17   0   2    6.73    0.26
  18  -1  -2    5.34    0.28
  17  -1  -2    3.89    0.20
 -17  -1   2    3.62    0.19
  17   1  -2    3.96    0.21
 -17   1   2    3.69    0.19
 -16  -1   2    3.13    0.16
  16  -1  -2    2.76    0.17
  16   1  -2    2.68    0.17
 -16   1   2    2.96    0.16
  15  -1  -2    0.06    0.06
 -15  -1   2    0.07    0.05
  15   1  -2    0.14    0.06
 -15   1   2    0.10    0.05
  14  -1  -2    0.29    0.07
 -14  -1   2    0.23    0.06
 -14   1   2    0.27    0.06
  14   1  -2    0.22    0.06
 -13  -1   2    6.84    0.23
  13  -1  -2    7.24    0.24
 -13   1   2    7.13    0.27
 -13   1   2    6.90    0.24
  12  -1  -2    0.61    0.08
 -12  -1   2    0.47    0.07
 -12   1   2    0.61    0.07
 -12   1   2    0.58    0.07
 -11  -1   2    4.34    0.17
  11  -1  -2    4.56    0.17
 -11  -1   2    4.51    0.17
 -11   1   2    4.44    0.16
 -11   1   2    4.49    0.17
 -10  -1   2    2.23    0.11
  -9  -1   2    1.67    0.09
  -8  -1   2    0.24    0.04
   8  -1  -2    0.23    0.04
  -8  -1   2    0.21    0.04
  -8  -1   2    0.24    0.03
  -8   1   2    0.34    0.05
  -8   1   2    0.19    0.04
   7  -1  -2    3.92    0.13
  -7  -1   2    3.83    0.10
  -7  -1   2    4.13    0.13
  -7   1   2    3.98    0.13
  -7   1   2    4.03    0.13
  -6  -1   2    0.07    0.02
  -6  -1   2    0.10    0.02
   6  -1  -2    0.09    0.03
  -6   1   2    0.09    0.03
  -6   1   2    0.15    0.03
  -5  -1   2    0.20    0.02
   5  -1  -2    0.21    0.03
  -5  -1   2    0.19    0.03
  -5   1   2    0.23    0.03
   4  -1  -2   86.81    1.78
  -4  -1   2   91.12    1.77
  -4  -1   2   87.77    1.77
  -4   1   2   80.59    1.78
  -4   1   2   87.67    1.82
  -3  -1   2  201.31    4.17
  -3  -1   2  202.51    4.13
   3  -1  -2  202.98    4.18
  -3  -1   2  199.89    4.20
  -3   1   2  200.65    4.18
  -3   1   2  206.92    4.21
  -2  -1   2    0.01    0.02
   2  -1  -2    0.00    0.02
  -2  -1   2    0.01    0.02
  -2  -1   2    0.00    0.01
  -2   1   2    0.02    0.02
  -2   1   2   -0.01    0.01
   1  -1  -2   44.79    0.93
  -1  -1   2   44.91    0.93
  -1  -1   2   45.48    0.92
   1   1  -2   46.21    0.92
  -1   1   2   44.58    0.93
  -1   1   2   45.26    0.92
   0  -1  -2    0.89    0.03
   0  -1   2    0.91    0.04
   0  -1  -2    0.92    0.04
   0   1   2    0.85    0.04
   0   1  -2    0.90    0.04
   1  -1   2    4.39    0.09
  -1  -1  -2    3.64    0.11
  -1  -1  -2    4.57    0.10
   1  -1   2    4.51    0.11
  -1   1  -2    4.40    0.09
   1   1   2    4.62    0.11
  -2  -1  -2    2.04    0.06
  -2   1  -2    1.99    0.06
   2   1   2    2.03    0.06
  -2   1  -2    1.81    0.07
  -2   1  -2    1.95    0.05
  -3  -1  -2   65.35    1.38
  -3   1  -2   67.98    1.39
   3   1   2   70.32    1.40
  -3   1  -2   66.67    1.37
  -3   1  -2   67.28    1.38
  -4   1  -2   68.90    1.42
  -5  -1  -2    0.13    0.02
  -5   1  -2    0.08    0.02
  -6  -1  -2   26.96    0.59
  -6  -1  -2   26.00    0.59
  -6  -1  -2   28.05    0.57
  -6   1  -2   27.38    0.60
  -6   1  -2   27.53    0.59
  -6   1  -2   27.50    0.59
  -7  -1  -2    1.49    0.05
  -7  -1  -2    1.57    0.07
  -7  -1  -2    1.44    0.07
  -7   1  -2    1.40    0.07
  -7   1  -2    1.42    0.07
  -7   1  -2    1.47    0.07
  -8  -1  -2   11.15    0.25
  -8  -1  -2   11.20    0.29
  -8  -1  -2   11.05    0.28
  -8   1  -2   11.00    0.28
  -8   1  -2   11.00    0.28
  -8   1  -2   10.72    0.28
  -9  -1  -2    4.35    0.16
  -9  -1  -2    5.00    0.13
  -9  -1  -2    5.05    0.16
  -9   1  -2    5.27    0.17
  -9   1  -2    5.03    0.16
  -9   1  -2    4.98    0.16
 -10  -1  -2    1.60    0.09
 -10  -1  -2    1.46    0.10
 -10   1  -2    1.47    0.09
 -10   1  -2    1.57    0.10
 -10   1  -2    1.49    0.10
 -11  -1  -2    7.17    0.22
 -11  -1  -2    7.15    0.23
 -11   1  -2    7.18    0.23
 -11   1  -2    7.24    0.22
 -11   1  -2    7.13    0.21
 -12  -1  -2    2.06    0.12
 -12  -1  -2    2.16    0.12
 -12   1  -2    2.06    0.11
 -12   1  -2    2.19    0.11
  13  -1   2   -0.02    0.04
 -13  -1  -2    0.01    0.04
 -13  -1  -2   -0.03    0.05
 -13   1  -2    0.03    0.04
 -14  -1  -2    1.07    0.10
 -14  -1  -2    0.90    0.10
  14  -1   2    1.26    0.11
 -14   1  -2    1.08    0.10
 -15  -1  -2    4.37    0.19
 -15  -1  -2    4.29    0.20
  15  -1   2    4.54    0.19
 -15   1  -2    4.18    0.19
  16  -1   2    9.47    0.31
 -16  -1  -2    9.53    0.32
 -16  -1  -2    9.71    0.31
 -16   1  -2    9.38    0.32
  17  -1   2    0.22    0.08
 -17  -1  -2    0.03    0.05
 -17   1  -2    0.09    0.06
 -17  -2   2    0.35    0.08
  17  -2  -2    0.40    0.09
  17   2  -2    0.43    0.09
 -17   2   2    0.40    0.08
  16  -2  -2    0.15    0.07
 -16  -2   2    0.11    0.06
 -16   2   2    0.02    0.05
  16   2  -2    0.10    0.07
  15  -2  -2    0.51    0.08
 -15  -2   2    0.70    0.09
 -15   2   2    0.56    0.08
 -14  -2   2    0.00    0.06
 -14  -2   2    0.07    0.05
  14  -2  -2    0.09    0.06
 -14   2   2    0.00    0.05
 -14   2   2    0.04    0.05
 -13  -2   2    2.31    0.13
  13  -2  -2    2.47    0.14
 -13  -2   2    2.41    0.14
 -13   2   2    2.63    0.14
 -13   2   2    2.37    0.14
  12  -2  -2    0.08    0.05
 -12  -2   2    0.09    0.05
 -12  -2   2    0.13    0.05
 -12   2   2    0.13    0.06
 -12   2   2    0.12    0.05
  11  -2  -2    2.07    0.11
 -11  -2   2    2.06    0.12
 -11  -2   2    1.72    0.11
 -11   2   2    2.05    0.11
 -11   2   2    2.21    0.12
 -10  -2   2    7.92    0.24
 -10  -2   2    8.48    0.25
  10  -2  -2    8.02    0.24
 -10   2   2    8.09    0.24
 -10   2   2    8.30    0.25
  -9  -2   2    9.36    0.26
  -9  -2   2    9.36    0.26
   9  -2  -2    9.06    0.25
  -9   2   2    9.31    0.26
  -9   2   2    8.92    0.26
   8  -2  -2    4.85    0.16
  -8  -2   2    5.07    0.17
  -8  -2   2    5.28    0.17
  -8   2   2    5.41    0.18
  -8   2   2    5.29    0.17
  -7  -2   2   12.55    0.32
   7  -2  -2   12.87    0.31
  -7  -2   2   12.82    0.31
  -7   2   2   13.09    0.32
  -7   2   2   12.47    0.32
  -6  -2   2   24.30    0.54
   6  -2  -2   23.53    0.53
  -6  -2   2   24.37    0.53
  -6   2   2   24.17    0.55
  -6   2   2   24.51    0.54
  -5  -2   2    8.55    0.18
   5  -2  -2    8.62    0.21
  -5  -2   2    8.65    0.21
  -5  -2   2    8.36    0.22
  -5   2   2    8.68    0.22
  -5   2   2    8.32    0.22
  -4  -2   2    0.03    0.02
   4  -2  -2    0.06    0.02
  -4  -2   2    0.05    0.01
  -4   2   2    0.04    0.03
  -4   2   2    0.09    0.02
  -3  -2   2    0.28    0.03
   3  -2  -2    0.28    0.03
   3   2  -2    0.30    0.02
  -3   2   2    0.35    0.03
  -2  -2   2   -0.05    0.01
  -2  -2   2   -0.04    0.01
   2  -2  -2   -0.03    0.02
   2   2  -2   -0.04    0.01
  -2   2   2   -0.05    0.03
  -2   2   2   -0.03    0.02
   1  -2  -2   14.03    0.32
   1  -2  -2   14.38    0.32
  -1  -2   2   14.40    0.30
   1   2  -2   14.09    0.31
  -1   2   2   14.49    0.32
   0  -2  -2    5.92    0.15
   0  -2   2    6.27    0.13
   0  -2   2    6.06    0.16
   0  -2  -2    6.00    0.15
   0   2  -2    5.85    0.15
   0   2   2    6.18    0.16
  -1  -2  -2    5.46    0.14
   1  -2   2    5.74    0.12
   1  -2   2    5.41    0.15
  -1  -2  -2    5.72    0.14
  -1   2  -2    5.95    0.13
   1   2   2    5.57    0.14
  -1   2  -2    5.70    0.15
  -2  -2  -2   17.90    0.39
  -2  -2  -2   17.90    0.39
   2  -2   2   18.22    0.37
   2  -2   2   17.56    0.40
  -2   2  -2   17.62    0.40
   2   2   2   18.33    0.38
  -3  -2  -2    0.81    0.04
   3  -2   2    0.83    0.04
  -3  -2  -2    0.70    0.05
   3   2   2    0.83    0.04
  -4  -2  -2    5.26    0.15
   4  -2   2    5.08    0.13
   4   2   2    5.47    0.12
  -4   2  -2    5.17    0.15
  -4   2  -2    4.98    0.15
  -5  -2  -2    2.34    0.09
  -5  -2  -2    2.42    0.09
   5  -2   2    2.38    0.08
  -5   2  -2    2.38    0.10
   5   2   2    2.46    0.06
  -5   2  -2    2.52    0.09
   6  -2   2   78.25    1.63
  -6  -2  -2   76.44    1.64
  -6  -2  -2   80.52    1.65
  -6   2  -2   79.75    1.65
   6   2   2   81.66    1.61
  -6   2  -2   78.68    1.65
   7  -2   2    2.54    0.10
  -7  -2  -2    2.52    0.10
  -7  -2  -2    2.63    0.11
  -7   2  -2    2.53    0.11
  -7   2  -2    2.43    0.10
   8  -2   2    9.51    0.25
  -8  -2  -2    9.33    0.25
  -8   2  -2    9.63    0.26
  -8   2  -2    9.76    0.26
   9  -2   2    1.34    0.08
  -9  -2  -2    1.29    0.08
  -9   2  -2    1.25    0.09
  -9   2  -2    1.27    0.09
 -10  -2  -2   24.21    0.58
 -10  -2  -2   24.71    0.57
  10  -2   2   24.63    0.56
 -10   2  -2   24.58    0.57
 -10   2  -2   23.91    0.57
  11  -2   2    0.21    0.05
 -11  -2  -2    0.21    0.06
 -11  -2  -2    0.32    0.05
 -11   2  -2    0.29    0.06
 -11   2  -2    0.24    0.05
 -12  -2  -2    1.93    0.11
  12  -2   2    1.62    0.10
 -12  -2  -2    1.72    0.12
 -12   2  -2    1.64    0.11
 -12   2  -2    1.73    0.11
 -13  -2  -2    2.27    0.13
 -13  -2  -2    2.13    0.12
  13  -2   2    2.36    0.13
 -13   2  -2    2.10    0.13
 -13   2  -2    2.37    0.13
 -14  -2  -2    0.36    0.07
 -14  -2  -2    0.33    0.07
  14  -2   2    0.33    0.07
 -14   2  -2    0.36    0.07
 -15  -2  -2    0.09    0.06
 -15  -2  -2    0.15    0.06
  15  -2   2    0.24    0.07
 -15   2  -2    0.15    0.06
 -16  -2  -2    1.77    0.15
 -16  -2  -2    1.99    0.14
  16  -2   2    1.77    0.14
 -16   2  -2    1.84    0.14
 -17  -2  -2   -0.02    0.07
  17  -2   2    0.06    0.06
 -17  -2  -2   -0.03    0.06
 -17   2  -2    0.07    0.06
 -17  -3   2    8.57    0.34
  17  -3  -2    8.24    0.31
  17   3  -2    9.19    0.45
 -16  -3   2    1.02    0.11
  16  -3  -2    1.44    0.13
 -16   3   2    1.50    0.14
 -15  -3   2    0.15    0.06
 -15  -3   2    0.19    0.07
  15  -3  -2    0.10    0.06
 -15   3   2    0.17    0.07
 -15   3   2    0.06    0.06
 -14  -3   2    0.28    0.07
  14  -3  -2    0.37    0.07
 -14  -3   2    0.33    0.07
 -14   3   2    0.19    0.07
 -14   3   2    0.33    0.07
 -13  -3   2    1.36    0.11
 -13  -3   2    1.30    0.11
  13  -3  -2    1.11    0.10
 -13   3   2    1.22    0.10
 -13   3   2    1.35    0.12
 -12  -3   2    1.40    0.11
 -12  -3   2    1.31    0.11
  12  -3  -2    1.44    0.11
 -12   3   2    1.17    0.11
 -12   3   2    1.34    0.10
 -11  -3   2    9.10    0.27
  11  -3  -2    9.19    0.27
 -11  -3   2    9.22    0.27
 -11   3   2    8.65    0.28
 -11   3   2    9.06    0.28
 -10  -3   2    0.34    0.06
 -10  -3   2    0.54    0.07
  10  -3  -2    0.44    0.06
 -10   3   2    0.34    0.07
 -10   3   2    0.44    0.07
  -9  -3   2    4.02    0.15
  -9  -3   2    3.90    0.16
   9  -3  -2    3.59    0.15
  -9   3   2    3.57    0.16
  -9   3   2    3.88    0.15
   8  -3  -2    1.77    0.09
  -8  -3   2    1.84    0.10
  -8  -3   2    1.87    0.11
  -8   3   2    1.72    0.11
  -8   3   2    1.96    0.10
  -7  -3   2    0.09    0.04
  -7  -3   2    0.04    0.04
   7  -3  -2    0.02    0.03
  -7   3   2   -0.02    0.03
  -7   3   2    0.03    0.05
   6  -3  -2   21.31    0.48
  -6  -3   2   20.57    0.47
  -6  -3   2   21.18    0.49
  -6   3   2   20.91    0.50
  -6   3   2   21.19    0.49
  -5  -3   2   16.51    0.40
   5  -3  -2   16.78    0.39
  -5  -3   2   16.29    0.38
  -5  -3   2   17.19    0.35
  -5   3   2   17.45    0.40
   4  -3  -2    9.49    0.24
  -4  -3   2    9.81    0.25
  -4  -3   2    9.56    0.23
   4   3  -2    9.93    0.21
  -4   3   2    9.75    0.26
  -4   3   2    9.47    0.24
   3  -3  -2   29.53    0.63
  -3  -3   2   29.24    0.64
   3  -3  -2   29.35    0.64
  -3  -3   2   28.95    0.62
  -3   3   2   30.05    0.65
   3   3  -2   29.43    0.62
  -2  -3   2   23.62    0.50
  -2  -3   2   21.34    0.52
   2  -3  -2   23.84    0.52
   2  -3  -2   24.14    0.52
   2   3  -2   24.11    0.51
  -2   3   2   25.52    0.53
  -1  -3   2    7.47    0.17
   1  -3  -2    7.67    0.19
   1   3  -2    7.32    0.18
  -1   3   2    7.59    0.20
   0  -3   2    7.82    0.17
   0  -3  -2    7.79    0.20
   0   3  -2    7.80    0.20
   0   3   2    7.99    0.20
  -1  -3  -2   32.44    0.71
   1  -3   2   34.62    0.69
  -1   3  -2   33.84    0.72
   1   3   2   33.21    0.71
   2  -3   2   17.06    0.41
   2  -3   2   18.35    0.38
  -2  -3  -2   17.90    0.40
   2   3   2   18.05    0.39
  -2   3  -2   18.58    0.41
  -3  -3  -2   18.97    0.43
   3  -3   2   18.65    0.41
   3  -3   2   19.31    0.44
  -3  -3  -2   19.12    0.43
   3   3   2   19.07    0.41
  -3   3  -2   19.69    0.44
  -4  -3  -2   21.14    0.49
   4  -3   2   22.11    0.50
  -4  -3  -2   22.04    0.49
   4  -3   2   21.81    0.47
   4   3   2   22.41    0.46
  -5  -3  -2   12.43    0.31
   5  -3   2   12.68    0.29
  -5  -3  -2   12.81    0.31
   5   3   2   13.16    0.27
  -5   3  -2   12.91    0.32
  -5   3  -2   12.62    0.32
  -6  -3  -2   20.77    0.48
  -6  -3  -2   21.20    0.48
   6  -3   2   20.69    0.46
  -6   3  -2   20.40    0.49
  -6   3  -2   21.68    0.50
   7  -3   2    5.40    0.16
  -7  -3  -2    5.41    0.17
  -7  -3  -2    5.49    0.17
  -7   3  -2    4.92    0.17
  -7   3  -2    5.38    0.18
  -8  -3  -2   18.65    0.44
   8  -3   2   18.47    0.43
  -8  -3  -2   18.59    0.45
  -8   3  -2   18.39    0.46
  -8   3  -2   18.65    0.45
  -9  -3  -2    0.29    0.05
   9  -3   2    0.20    0.05
  -9  -3  -2    0.24    0.05
  -9   3  -2    0.29    0.06
  -9   3  -2    0.36    0.06
  10  -3   2   10.30    0.28
 -10  -3  -2   10.19    0.28
 -10  -3  -2    9.52    0.29
 -10   3  -2    9.94    0.29
 -10   3  -2   10.07    0.29
  11  -3   2   16.09    0.41
 -11  -3  -2   15.53    0.42
 -11  -3  -2   16.37    0.42
 -11   3  -2   16.12    0.43
 -11   3  -2   16.45    0.43
 -12  -3  -2    9.58    0.29
 -12  -3  -2    9.73    0.30
  12  -3   2    9.27    0.28
 -12   3  -2    9.51    0.29
 -12   3  -2    9.41    0.30
 -13  -3  -2    0.06    0.05
  13  -3   2    0.05    0.04
 -13  -3  -2    0.02    0.05
 -13   3  -2    0.06    0.05
 -13   3  -2   -0.12    0.04
  14  -3   2    2.69    0.15
 -14  -3  -2    2.70    0.15
 -14  -3  -2    2.70    0.16
 -14   3  -2    2.94    0.15
 -14   3  -2    2.68    0.16
  15  -3   2    8.39    0.28
 -15  -3  -2    8.69    0.30
 -15  -3  -2    8.65    0.29
 -15   3  -2    9.08    0.34
 -15   3  -2    8.42    0.30
 -16  -3  -2    2.33    0.15
  16  -3   2    2.10    0.15
 -16  -3  -2    2.14    0.16
 -16   3  -2    2.22    0.16
 -17  -3  -2    6.89    0.27
  17  -4  -2    0.80    0.11
 -16  -4   2   -0.04    0.06
 -16  -4   2    0.06    0.07
  16  -4  -2    0.07    0.06
 -16   4   2    0.02    0.06
 -16   4   2    0.01    0.07
  15  -4  -2    0.40    0.09
 -15  -4   2    0.27    0.07
 -15  -4   2    0.28    0.08
 -15   4   2    0.40    0.09
 -15   4   2    0.26    0.08
  14  -4  -2    2.21    0.14
 -14  -4   2    1.91    0.14
 -14  -4   2    2.22    0.15
 -14   4   2    2.05    0.15
 -14   4   2    2.00    0.14
 -13  -4   2    2.64    0.15
 -13  -4   2    2.42    0.14
  13  -4  -2    2.88    0.15
 -13   4   2    2.62    0.15
 -13   4   2    2.58    0.16
 -12  -4   2   18.28    0.48
  12  -4  -2   18.04    0.47
 -12  -4   2   18.14    0.47
 -12   4   2   17.77    0.49
 -12   4   2   18.37    0.49
  11  -4  -2   24.01    0.58
 -11  -4   2   24.22    0.60
 -11  -4   2   24.27    0.58
 -11   4   2   24.23    0.60
 -11   4   2   23.93    0.60
 -10  -4   2    1.32    0.10
 -10  -4   2    1.27    0.10
  10  -4  -2    1.39    0.10
 -10   4   2    1.25    0.11
 -10   4   2    1.26    0.10
   9  -4  -2   10.05    0.28
  -9  -4   2    9.96    0.28
  -9  -4   2    9.79    0.29
  -9   4   2    9.87    0.29
  -9   4   2   10.21    0.30
   8  -4  -2   14.66    0.37
  -8  -4   2   14.45    0.36
  -8  -4   2   14.31    0.38
  -8   4   2   14.63    0.38
  -8   4   2   14.46    0.39
  -7  -4   2   23.68    0.55
  -7  -4   2   24.03    0.57
   7  -4  -2   23.80    0.55
  -7   4   2   24.36    0.57
  -7   4   2   24.29    0.58
  -6  -4   2   15.89    0.38
   6  -4  -2   16.14    0.39
  -6  -4   2   16.12    0.40
  -6   4   2   16.55    0.40
   5  -4  -2    9.56    0.25
  -5  -4   2    9.56    0.27
  -5  -4   2    9.54    0.24
   5   4  -2    9.68    0.22
  -4  -4   2    0.64    0.05
   4  -4  -2    0.80    0.07
   4  -4  -2    0.83    0.06
  -4  -4   2    0.84    0.07
  -4   4   2    0.77    0.07
   4   4  -2    0.73    0.04
   3  -4  -2   22.51    0.51
   3  -4  -2   23.26    0.53
  -3  -4   2   22.25    0.50
  -3  -4   2   23.42    0.53
   3   4  -2   22.95    0.50
  -3   4   2   24.31    0.54
  -2  -4   2    4.49    0.12
   2  -4  -2    4.48    0.15
  -2  -4   2    4.61    0.15
   2  -4  -2    4.64    0.14
  -2   4   2    4.62    0.16
   2   4  -2    4.72    0.13
   1  -4  -2    4.56    0.14
  -1  -4   2    4.67    0.15
  -1  -4   2    4.59    0.12
   1  -4  -2    4.50    0.15
  -1   4   2    4.67    0.15
   1   4  -2    4.50    0.14
   0  -4   2    0.23    0.02
   0  -4   2    0.17    0.04
   0  -4  -2    0.25    0.04
   0  -4  -2    0.28    0.04
   0   4  -2    0.25    0.04
   0   4   2    0.22    0.04
   1  -4   2    2.26    0.10
  -1  -4  -2    2.13    0.09
   1  -4   2    2.04    0.06
  -1  -4  -2    2.20    0.10
  -1   4  -2    2.01    0.09
   1   4   2    2.02    0.09
  -2  -4  -2    2.73    0.11
  -2  -4  -2    2.68    0.10
   2  -4   2    2.66    0.08
   2   4   2    2.57    0.10
  -2   4  -2    2.64    0.11
   3  -4   2    1.62    0.06
  -3  -4  -2    1.60    0.08
  -3  -4  -2    1.54    0.08
  -3   4  -2    1.61    0.09
   3   4   2    1.60    0.07
   4  -4   2    2.78    0.09
  -4  -4  -2    2.75    0.11
  -4  -4  -2    2.82    0.11
   4   4   2    2.84    0.09
  -4   4  -2    2.89    0.13
  -5  -4  -2   10.18    0.27
  -5  -4  -2   10.14    0.27
   5  -4   2   10.20    0.24
   5   4   2   10.18    0.23
  -7  -4  -2   54.15    1.18
   7  -4   2   53.45    1.15
  -7  -4  -2   54.64    1.18
  -7   4  -2   55.33    1.20
  -7   4  -2   56.49    1.20
  -8  -4  -2    0.79    0.08
  -8  -4  -2    0.86    0.08
   8  -4   2    0.79    0.07
  -8   4  -2    0.55    0.07
  -8   4  -2    0.76    0.08
  -9  -4  -2   31.69    0.73
  -9  -4  -2   32.45    0.73
   9  -4   2   31.40    0.71
  -9   4  -2   31.99    0.75
  -9   4  -2   31.58    0.74
  10  -4   2   21.17    0.51
 -10  -4  -2   21.10    0.53
 -10  -4  -2   21.23    0.53
 -10   4  -2   21.97    0.54
 -10   4  -2   21.62    0.54
  11  -4   2    0.02    0.04
 -11  -4  -2    0.02    0.05
 -11  -4  -2    0.01    0.05
 -11   4  -2   -0.03    0.04
 -11   4  -2    0.07    0.05
 -12  -4  -2    3.56    0.16
 -12  -4  -2    3.70    0.17
  12  -4   2    3.81    0.17
 -12   4  -2    3.53    0.18
 -12   4  -2    3.69    0.18
 -13  -4  -2    2.79    0.16
 -13  -4  -2    2.94    0.15
 -13   4  -2    2.79    0.16
 -13   4  -2    2.97    0.16
 -14  -4  -2    0.17    0.07
 -14  -4  -2    0.26    0.07
 -14   4  -2    0.33    0.08
 -14   4  -2    0.23    0.07
 -15  -4  -2    0.19    0.08
 -15  -4  -2    0.10    0.06
 -15   4  -2    0.27    0.08
 -15   4  -2    0.12    0.07
 -16  -4  -2    3.44    0.19
 -16   4  -2    3.82    0.29
 -15  -5   2    0.08    0.07
 -15  -5   2   -0.03    0.06
 -15   5   2    0.10    0.08
 -15   5   2    0.09    0.07
 -14  -5   2    0.13    0.06
 -14  -5   2    0.11    0.07
 -14   5   2    0.13    0.07
 -14   5   2    0.09    0.07
 -13  -5   2    0.06    0.06
  13  -5  -2    0.03    0.05
 -13  -5   2    0.12    0.06
 -13   5   2    0.05    0.07
 -13   5   2    0.08    0.06
  12  -5  -2    0.01    0.05
 -12  -5   2    0.09    0.06
 -12  -5   2    0.04    0.06
 -12   5   2    0.02    0.06
 -12   5   2   -0.05    0.04
 -11  -5   2    6.81    0.23
  11  -5  -2    7.09    0.23
 -11  -5   2    6.49    0.25
 -11   5   2    7.45    0.27
 -11   5   2    6.66    0.25
 -10  -5   2    0.26    0.06
 -10  -5   2    0.30    0.07
  10  -5  -2    0.32    0.06
 -10   5   2    0.23    0.07
 -10   5   2    0.26    0.08
  -9  -5   2    5.57    0.22
  -9  -5   2    5.77    0.20
   9  -5  -2    6.01    0.20
  -9   5   2    6.24    0.23
  -9   5   2    6.07    0.22
  -8  -5   2    0.57    0.07
  -8  -5   2    0.60    0.08
   8  -5  -2    0.47    0.06
  -8   5   2    0.53    0.09
   7  -5  -2    0.16    0.05
  -7  -5   2    0.03    0.04
   7  -5  -2    0.05    0.04
  -7  -5   2    0.11    0.05
  -7   5   2    0.01    0.05
   6  -5  -2    0.60    0.06
  -6  -5   2    0.58    0.08
  -6  -5   2    0.52    0.06
   6  -5  -2    0.51    0.07
  -6   5   2    0.57    0.08
   5  -5  -2    1.25    0.08
  -5  -5   2    1.34    0.10
   5  -5  -2    1.20    0.10
  -5  -5   2    1.22    0.08
  -5   5   2    1.23    0.11
   4  -5  -2    3.35    0.14
   4  -5  -2    3.12    0.12
  -4  -5   2    3.11    0.11
  -4  -5   2    3.27    0.15
   4   5  -2    3.22    0.11
  -4   5   2    3.11    0.15
  -3  -5   2    2.07    0.12
  -3  -5   2    1.93    0.08
   3  -5  -2    2.06    0.11
   3  -5  -2    1.85    0.09
  -3   5   2    1.78    0.11
   3   5  -2    1.76    0.08
   2  -5  -2    7.69    0.23
  -2  -5   2    7.68    0.24
   2  -5  -2    8.03    0.21
  -2  -5   2    7.82    0.20
   2   5  -2    7.62    0.21
  -2   5   2    7.99    0.24
  -1  -5   2    2.82    0.13
   1  -5  -2    2.78    0.11
   1  -5  -2    2.94    0.13
  -1  -5   2    2.75    0.09
   1   5  -2    2.47    0.11
  -1   5   2    2.78    0.13
   0  -5  -2    0.06    0.03
   0  -5   2    0.04    0.02
   0  -5  -2    0.08    0.05
   0  -5   2    0.00    0.04
   0   5  -2    0.08    0.04
   0   5   2    0.01    0.04
  -1  -5  -2    2.76    0.12
  -1  -5  -2    2.73    0.11
   1  -5   2    2.81    0.13
   1  -5   2    2.90    0.09
   1   5   2    2.71    0.11
  -1   5  -2    2.70    0.12
   2  -5   2    1.32    0.06
  -2  -5  -2    1.32    0.09
  -2  -5  -2    1.42    0.08
  -2   5  -2    1.42    0.10
   2   5   2    1.42    0.08
   3  -5   2    8.23    0.20
  -3  -5  -2    8.24    0.24
  -3  -5  -2    8.52    0.23
   3   5   2    7.94    0.21
  -3   5  -2    7.96    0.24
  -4  -5  -2    6.42    0.20
   4  -5   2    7.12    0.19
  -4  -5  -2    6.55    0.21
  -4   5  -2    6.63    0.22
   4   5   2    6.57    0.18
  -5  -5  -2   12.86    0.34
  -5  -5  -2   12.75    0.33
   5  -5   2   13.25    0.36
  -5   5  -2   13.22    0.36
  -6  -5  -2    0.12    0.05
  -6  -5  -2    0.13    0.05
   6  -5   2    0.27    0.06
  -6   5  -2    0.13    0.05
  -7  -5  -2    0.26    0.06
   7  -5   2    0.34    0.07
  -7  -5  -2    0.35    0.06
  -7   5  -2    0.37    0.07
  -8  -5  -2    1.37    0.10
  -8  -5  -2    1.44    0.11
   8  -5   2    1.46    0.11
  -8   5  -2    1.70    0.12
   9  -5   2    0.33    0.07
  -9  -5  -2    0.42    0.07
  -9  -5  -2    0.47    0.07
  -9   5  -2    0.48    0.08
 -10  -5  -2    0.68    0.08
 -10  -5  -2    0.55    0.08
 -10   5  -2    0.53    0.08
 -11  -5  -2    0.06    0.05
 -11  -5  -2    0.01    0.05
 -11   5  -2    0.04    0.05
 -11   5  -2    0.06    0.06
 -12  -5  -2    0.79    0.09
 -12  -5  -2    0.80    0.10
 -12   5  -2    0.74    0.10
 -12   5  -2    0.66    0.09
 -13  -5  -2   -0.02    0.06
 -13  -5  -2    0.02    0.06
 -13   5  -2    0.04    0.06
 -13   5  -2   -0.01    0.06
 -14  -5  -2    1.64    0.14
 -14  -5  -2    1.47    0.13
 -14   5  -2    1.47    0.14
 -14   5  -2    1.48    0.14
 -15  -5  -2    1.79    0.14
 -15   5  -2    1.62    0.15
 -14  -6   2    1.35    0.14
 -14  -6   2    1.69    0.14
 -14   6   2    1.45    0.18
 -13  -6   2    0.06    0.07
 -13  -6   2    0.09    0.06
 -13   6   2    0.03    0.08
 -12  -6   2    0.19    0.08
 -12  -6   2    0.19    0.07
  12  -6  -2    0.14    0.07
 -12   6   2    0.09    0.08
 -11  -6   2    1.00    0.11
 -11  -6   2    0.76    0.09
  11  -6  -2    0.81    0.10
 -11   6   2    0.63    0.10
 -10  -6   2    2.80    0.14
 -10  -6   2    2.53    0.16
  10  -6  -2    2.43    0.15
 -10   6   2    2.60    0.17
   9  -6  -2    2.45    0.15
  -9  -6   2    2.59    0.13
  -9  -6   2    2.43    0.15
  -9   6   2    2.33    0.16
  -8  -6   2   18.76    0.46
   8  -6  -2   18.16    0.50
  -8  -6   2   19.24    0.50
  -8   6   2   19.09    0.51
   7  -6  -2    0.93    0.09
  -7  -6   2    0.96    0.08
  -7  -6   2    0.91    0.10
   7  -6  -2    0.93    0.08
  -7   6   2    0.81    0.10
   6  -6  -2   19.19    0.50
  -6  -6   2   18.82    0.45
  -6  -6   2   19.13    0.49
   6  -6  -2   19.22    0.46
  -6   6   2   19.38    0.50
  -5  -6   2    1.80    0.12
  -5  -6   2    1.65    0.09
   5  -6  -2    1.78    0.10
   5  -6  -2    1.83    0.11
  -5   6   2    1.72    0.12
  -4  -6   2   23.61    0.57
  -4  -6   2   23.15    0.53
   4  -6  -2   23.54    0.54
   4  -6  -2   23.81    0.58
  -4   6   2   23.01    0.58
   3  -6  -2    2.23    0.13
  -3  -6   2    2.56    0.14
  -3  -6   2    2.42    0.13
   3  -6  -2    2.20    0.10
   3   6  -2    2.42    0.10
  -3   6   2    2.26    0.13
   2  -6  -2    2.94    0.12
   2  -6  -2    3.46    0.15
  -2  -6   2    3.18    0.15
  -2   6   2    3.02    0.15
   2   6  -2    3.03    0.12
  -1  -6   2   -0.01    0.05
   1  -6  -2   -0.01    0.03
   1  -6  -2    0.02    0.05
  -1   6   2   -0.03    0.04
   1   6  -2   -0.03    0.04
   0  -6  -2    1.85    0.09
   0  -6  -2    1.92    0.12
   0  -6   2    1.74    0.11
   0   6   2    1.72    0.11
   0   6  -2    1.82    0.10
  -1  -6  -2    0.01    0.05
   1  -6   2    0.03    0.05
  -1  -6  -2    0.03    0.04
   1   6   2    0.02    0.04
  -1   6  -2   -0.01    0.04
  -2  -6  -2    7.20    0.23
  -2  -6  -2    6.85    0.21
   2  -6   2    7.55    0.24
  -2   6  -2    7.10    0.23
   2   6   2    7.07    0.21
  -3  -6  -2   13.33    0.34
   3  -6   2   13.73    0.38
  -3  -6  -2   13.42    0.36
  -3   6  -2   13.04    0.36
   3   6   2   13.92    0.37
  -4  -6  -2   21.86    0.52
  -4  -6  -2   21.94    0.53
   4  -6   2   22.32    0.55
  -4   6  -2   21.19    0.54
  -5  -6  -2    5.05    0.18
   5  -6   2    5.32    0.21
  -5  -6  -2    4.97    0.19
  -5   6  -2    5.28    0.20
   6  -6   2   11.18    0.34
  -6  -6  -2   10.81    0.31
  -6  -6  -2   10.84    0.31
  -6   6  -2   11.37    0.33
  -7  -6  -2    2.81    0.14
  -7  -6  -2    2.75    0.14
   7  -6   2    3.13    0.16
  -7   6  -2    2.86    0.16
  -8  -6  -2   13.95    0.38
   8  -6   2   13.40    0.40
  -8  -6  -2   13.81    0.37
  -8   6  -2   13.74    0.40
   9  -6   2    6.82    0.26
  -9  -6  -2    7.20    0.24
  -9  -6  -2    6.96    0.25
  -9   6  -2    6.69    0.26
 -10  -6  -2    0.08    0.06
 -10  -6  -2    0.00    0.05
  10  -6   2    0.05    0.06
 -10   6  -2    0.01    0.06
 -11  -6  -2    1.01    0.11
  11  -6   2    1.01    0.12
 -11  -6  -2    1.04    0.11
 -11   6  -2    0.91    0.11
 -12  -6  -2    0.75    0.10
  12  -6   2    0.71    0.11
 -12  -6  -2    0.70    0.10
 -12   6  -2    0.87    0.12
  13  -6   2    5.79    0.26
 -13  -6  -2    5.63    0.24
 -13  -6  -2    5.82    0.24
 -13   6  -2    5.49    0.25
 -14  -6  -2    1.98    0.15
  12  -7  -2    1.01    0.15
 -12  -7   2    1.14    0.13
  11  -7  -2    2.99    0.19
 -11  -7   2    2.84    0.18
 -11   7   2    2.98    0.19
  10  -7  -2    0.04    0.06
 -10  -7   2   -0.04    0.06
 -10   7   2    0.04    0.08
  -9  -7   2    0.28    0.08
   9  -7  -2    0.20    0.07
  -9   7   2    0.15    0.08
  -8  -7   2    0.29    0.08
   8  -7  -2    0.16    0.07
  -8   7   2    0.25    0.08
  -7  -7   2    2.38    0.15
   7  -7  -2    2.38    0.15
  -7   7   2    2.30    0.16
   6  -7  -2    2.60    0.16
  -6  -7   2    2.66    0.15
  -6   7   2    2.62    0.16
   5  -7  -2    4.27    0.19
  -5  -7   2    4.55    0.20
  -5   7   2    4.65    0.20
   4  -7  -2    2.67    0.15
  -4  -7   2    2.91    0.16
  -4   7   2    2.88    0.16
   3  -7  -2    4.51    0.19
  -3  -7   2    4.18    0.19
  -3   7   2    4.43    0.19
   2  -7  -2    1.62    0.12
  -2  -7   2    1.41    0.12
  -2   7   2    1.77    0.13
   1  -7  -2    4.77    0.19
  -1  -7   2    4.91    0.20
  -1   7   2    4.77    0.19
   1   7  -2    4.86    0.17
   0  -7   2    0.67    0.09
   0  -7  -2    0.78    0.09
   0   7   2    0.60    0.08
   0   7  -2    0.67    0.08
  -1  -7  -2   10.16    0.28
   1  -7   2   10.16    0.32
  -1  -7  -2   10.43    0.31
  -1   7  -2   10.11    0.30
   1   7   2    9.42    0.28
   2  -7   2   16.84    0.47
  -2  -7  -2   17.63    0.45
  -2  -7  -2   16.88    0.42
  -2   7  -2   16.82    0.45
   3  -7   2    7.07    0.26
  -3  -7  -2    7.30    0.23
  -3  -7  -2    7.36    0.25
  -3   7  -2    7.25    0.25
   4  -7   2    3.03    0.17
  -4  -7  -2    3.07    0.15
  -4  -7  -2    3.15    0.14
  -4   7  -2    2.81    0.15
   5  -7   2    2.30    0.15
  -5  -7  -2    2.50    0.14
  -5  -7  -2    2.35    0.12
  -5   7  -2    2.27    0.14
  -6  -7  -2    0.05    0.05
   6  -7   2    0.00    0.06
  -6  -7  -2    0.04    0.06
  -6   7  -2   -0.02    0.06
  -7  -7  -2   -0.07    0.05
   7  -7   2    0.07    0.06
  -7  -7  -2   -0.02    0.04
  -7   7  -2   -0.05    0.05
   8  -7   2    0.28    0.08
  -8  -7  -2    0.24    0.06
  -8  -7  -2    0.23    0.07
  -8   7  -2    0.23    0.08
   9  -7   2    5.24    0.24
  -9  -7  -2    5.43    0.21
  -9  -7  -2    4.96    0.22
  -9   7  -2    5.15    0.23
  10  -7   2    0.28    0.09
 -10  -7  -2    0.28    0.07
 -10  -7  -2    0.37    0.08
 -10   7  -2    0.16    0.08
 -11  -7  -2    1.22    0.13
  11  -7   2    1.50    0.15
 -11  -7  -2    1.47    0.13
 -11   7  -2    1.41    0.14
 -12  -7  -2    1.98    0.15
 -12  -7  -2    1.97    0.15
 -10  -8   2   -0.06    0.07
   9  -8  -2    0.34    0.09
  -9  -8   2    0.22    0.09
  -9   8   2    0.44    0.10
   8  -8  -2    2.57    0.18
  -8  -8   2    2.83    0.19
  -8   8   2    2.59    0.18
  -7  -8   2    1.88    0.16
   7  -8  -2    1.90    0.15
  -7   8   2    1.92    0.17
  -6  -8   2    2.20    0.16
   6  -8  -2    2.09    0.16
  -6   8   2    1.93    0.16
   5  -8  -2    0.13    0.07
  -5  -8   2    0.08    0.07
  -5   8   2    0.00    0.06
  -4  -8   2    3.83    0.19
   4  -8  -2    3.64    0.19
  -4   8   2    3.99    0.20
  -3  -8   2    0.98    0.11
   3  -8  -2    1.08    0.12
  -3   8   2    1.03    0.11
   2  -8  -2    1.12    0.12
  -2  -8   2    0.86    0.11
  -2   8   2    0.76    0.10
  -1  -8   2    0.42    0.09
   1  -8  -2    0.41    0.08
  -1   8   2    0.33    0.07
   0  -8   2    1.28    0.12
   0  -8  -2    1.02    0.11
   0   8  -2    1.02    0.10
  -1  -8  -2    1.91    0.14
   1  -8   2    1.86    0.15
  -1   8  -2    1.88    0.13
  -2  -8  -2    2.19    0.15
   2  -8   2    2.46    0.16
  -2   8  -2    2.35    0.14
  -3  -8  -2    0.04    0.06
   3  -8   2   -0.01    0.07
  -3   8  -2    0.06    0.06
  -4  -8  -2    0.07    0.06
   4  -8   2    0.04    0.07
  -4   8  -2    0.02    0.06
  -5  -8  -2    1.06    0.11
   5  -8   2    1.07    0.12
  -5   8  -2    0.99    0.11
  -6  -8  -2    3.23    0.17
   6  -8   2    3.41    0.20
  -6   8  -2    3.24    0.19
   7  -8   2    0.33    0.09
  -7  -8  -2    0.27    0.08
  -7   8  -2    0.21    0.08
   8  -8   2    0.19    0.08
  -8  -8  -2    0.28    0.08
  -8   8  -2    0.23    0.08
   9  -8   2    0.13    0.12
  -9  -8  -2    0.08    0.07
  -9   8  -2    0.11    0.09
 -10  -8  -2    0.89    0.13
  -6  -9   2    2.89    0.23
   6  -9  -2    2.81    0.19
  -6   9   2    2.86    0.19
   5  -9  -2    1.26    0.14
  -5  -9   2    0.91    0.13
  -5   9   2    0.83    0.12
  -4  -9   2    4.92    0.24
   4  -9  -2    4.88    0.23
  -4   9   2    4.96    0.23
  -3  -9   2    0.76    0.11
   3  -9  -2    0.74    0.11
  -3   9   2    0.83    0.11
   2  -9  -2    0.53    0.10
  -2  -9   2    0.53    0.11
  -2   9   2    0.45    0.11
   1  -9  -2    0.57    0.10
  -1  -9   2    0.49    0.10
   0  -9  -2    0.10    0.08
   0  -9   2    0.19    0.09
  -1  -9  -2    0.66    0.11
   1  -9   2    0.75    0.12
  -2  -9  -2    6.58    0.27
   2  -9   2    7.10    0.28
  -2   9  -2    6.32    0.25
   3  -9   2    1.33    0.14
  -3  -9  -2    1.59    0.14
  -3   9  -2    1.27    0.13
   4  -9   2    4.51    0.23
  -4  -9  -2    4.74    0.22
  -4   9  -2    4.40    0.21
   5  -9   2    0.24    0.15
  -5  -9  -2    0.34    0.09
  -5   9  -2    0.34    0.09
  -6  -9  -2    0.26    0.08
  -6   9  -2    0.21    0.10
  -7  -9  -2    0.74    0.17
  18   0  -3   -0.01    0.12
 -17   0   3    0.02    0.05
  17   0  -3    0.06    0.07
 -16   0   3    0.08    0.06
  16   0  -3    0.00    0.06
 -15   0   3    0.03    0.05
  15   0  -3    0.10    0.06
  14   0  -3    0.04    0.06
 -14   0   3   -0.01    0.04
 -13   0   3   -0.01    0.04
  13   0  -3   -0.02    0.05
  12   0  -3    0.03    0.05
 -12   0   3   -0.01    0.03
 -11   0   3    0.05    0.03
  11   0  -3    0.00    0.04
 -11   0   3    0.02    0.04
 -10   0   3    0.03    0.04
  10   0  -3   -0.01    0.02
 -10   0   3   -0.01    0.01
   9   0  -3    0.00    0.01
  -9   0   3    0.00    0.02
  -9   0   3   -0.05    0.03
  -8   0   3    0.00    0.03
  -8   0   3   -0.01    0.03
   8   0  -3   -0.02    0.02
  -7   0   3   -0.04    0.01
  -7   0   3    0.00    0.02
   7   0  -3   -0.02    0.01
  -6   0   3    0.00    0.03
   6   0  -3    0.00    0.01
  -6   0   3   -0.01    0.02
  -5   0   3   -0.01    0.02
  -5   0   3    0.01    0.02
   5   0  -3   -0.02    0.01
  -4   0   3   -0.03    0.02
  -4   0   3   -0.07    0.02
   4   0  -3   -0.07    0.01
   3   0  -3    0.00    0.02
  -3   0   3    0.04    0.02
  -3   0   3    0.02    0.03
  -2   0   3   -0.10    0.02
   2   0  -3   -0.11    0.02
  -2   0   3   -0.12    0.03
   1   0  -3   -0.01    0.01
  -1   0   3    0.03    0.01
  -1   0   3    0.01    0.01
   0   0   3   -0.03    0.01
   0   0  -3   -0.04    0.01
   0   0  -3   -0.03    0.01
   0   0   3   -0.03    0.01
  -1   0  -3   -0.01    0.01
  -1   0  -3    0.07    0.02
  -1   0  -3    0.03    0.02
  -2   0  -3   -0.01    0.02
  -2   0  -3    0.01    0.01
  -2   0  -3   -0.01    0.02
  -3   0  -3    0.00    0.02
  -3   0  -3    0.01    0.02
  -3   0  -3    0.03    0.01
  -4   0  -3    0.00    0.01
  -4   0  -3    0.01    0.02
  -4   0  -3    0.00    0.01
  -5   0  -3   -0.04    0.01
  -5   0  -3   -0.04    0.02
  -5   0  -3   -0.05    0.02
  -6   0  -3    0.02    0.02
  -6   0  -3    0.02    0.02
  -6   0  -3    0.02    0.02
  -7   0  -3   -0.02    0.03
  -7   0  -3    0.01    0.02
  -7   0  -3   -0.01    0.02
  -8   0  -3    0.01    0.02
  -8   0  -3   -0.02    0.03
  -8   0  -3    0.01    0.03
  -9   0  -3   -0.02    0.02
  -9   0  -3   -0.01    0.03
  -9   0  -3    0.00    0.03
 -10   0  -3   -0.04    0.03
 -10   0  -3    0.01    0.03
 -10   0  -3    0.05    0.04
 -11   0  -3    0.01    0.04
 -11   0  -3    0.04    0.04
 -11   0  -3    0.14    0.04
 -12   0  -3   -0.01    0.04
 -12   0  -3   -0.05    0.03
 -13   0  -3    0.02    0.04
 -13   0  -3    0.00    0.05
 -14   0  -3   -0.06    0.05
 -14   0  -3   -0.01    0.04
 -15   0  -3   -0.03    0.04
 -15   0  -3   -0.02    0.05
 -16   0  -3    0.00    0.05
  17   0   3    0.10    0.07
 -17   0  -3   -0.02    0.05
  18  -1  -3    1.54    0.22
 -17  -1   3    6.40    0.26
  17  -1  -3    6.50    0.26
  17   1  -3    6.36    0.26
 -17   1   3    6.15    0.25
  16  -1  -3   -0.03    0.06
 -16  -1   3    0.01    0.05
 -16   1   3    0.00    0.05
  16   1  -3    0.07    0.07
 -15  -1   3    3.79    0.18
  15  -1  -3    3.95    0.19
 -15   1   3    3.98    0.18
  15   1  -3    4.15    0.19
 -14  -1   3   10.73    0.32
  14  -1  -3   10.16    0.32
 -14   1   3   10.14    0.32
  14   1  -3   11.09    0.33
  13  -1  -3    5.61    0.21
 -13  -1   3    5.66    0.21
 -13   1   3    5.68    0.21
 -13   1   3    5.25    0.19
  13   1  -3    6.11    0.22
  12  -1  -3   17.64    0.45
 -12  -1   3   17.60    0.45
 -12   1   3   16.97    0.43
 -12   1   3   17.57    0.45
  12   1  -3   17.27    0.44
  11  -1  -3   29.07    0.68
 -11  -1   3   29.31    0.68
  11   1  -3   29.95    0.68
 -11   1   3   29.59    0.68
 -11   1   3   28.67    0.66
  10  -1  -3    1.57    0.10
 -10   1   3    1.82    0.10
 -10   1   3    1.69    0.10
  -9  -1   3   19.11    0.44
   9  -1  -3   20.02    0.48
  -9   1   3   21.12    0.48
  -9   1   3   20.74    0.47
  -8  -1   3    1.15    0.08
  -8  -1   3    1.52    0.08
  -8  -1   3    1.48    0.06
   8  -1  -3    1.54    0.09
  -8   1   3    1.38    0.08
  -8   1   3    1.62    0.08
  -7  -1   3    7.55    0.20
  -7  -1   3    7.39    0.18
   7  -1  -3    7.40    0.20
  -7  -1   3    7.71    0.21
  -7   1   3    7.52    0.20
  -7   1   3    7.13    0.20
  -6  -1   3    0.84    0.06
  -6  -1   3    0.72    0.05
   6  -1  -3    0.64    0.05
  -6  -1   3    0.78    0.05
  -6   1   3    0.76    0.06
  -6   1   3    0.76    0.05
  -5  -1   3   43.20    0.90
  -5  -1   3   43.84    0.89
   5  -1  -3   43.02    0.91
  -5  -1   3   42.74    0.91
  -5   1   3   42.30    0.90
  -4  -1   3    1.24    0.06
   4  -1  -3    1.11    0.06
  -4  -1   3    1.13    0.05
  -4   1   3    1.13    0.05
  -3  -1   3   39.89    0.83
  -3  -1   3   40.54    0.82
   3  -1  -3   40.50    0.83
  -3   1   3   39.38    0.82
   3   1  -3   40.09    0.82
  -3   1   3   38.52    0.83
   2  -1  -3   79.09    1.69
  -2  -1   3   83.42    1.70
  -2  -1   3   83.29    1.69
  -2   1   3   84.55    1.73
   2   1  -3   83.14    1.68
  -1  -1   3   63.39    1.30
   1   1  -3   62.14    1.28
   1   1  -3   63.47    1.29
  -1   1   3   65.48    1.30
  -1   1   3   62.64    1.30
   0  -1  -3    0.52    0.02
   0  -1   3    0.53    0.02
   0  -1   3    0.51    0.04
   0   1  -3    0.57    0.02
   0   1  -3    0.53    0.04
   0   1   3    0.55    0.05
   1  -1   3   62.60    1.26
  -1  -1  -3   61.33    1.26
  -1   1  -3   62.10    1.25
   1   1   3   60.67    1.27
  -2  -1  -3    2.39    0.06
  -2   1  -3    2.32    0.07
  -2   1  -3    2.42    0.06
   2   1   3    2.38    0.07
  -2   1  -3    1.95    0.07
  -3  -1  -3  169.54    3.56
  -3   1  -3  172.17    3.54
   3   1   3  172.56    3.54
  -3   1  -3  172.75    3.53
  -4  -1  -3  175.97    3.73
  -4   1  -3  178.73    3.67
   4   1   3  183.08    3.71
  -5  -1  -3   13.40    0.28
  -5  -1  -3   13.01    0.31
  -5   1  -3   12.96    0.30
  -5   1  -3   12.67    0.30
  -6  -1  -3    4.21    0.13
  -6  -1  -3    4.27    0.12
  -6  -1  -3    4.19    0.11
  -6   1  -3    4.23    0.13
  -6   1  -3    4.25    0.13
  -6   1  -3    4.15    0.12
  -7  -1  -3   21.67    0.49
  -7  -1  -3   21.96    0.46
  -7  -1  -3   20.87    0.48
  -7   1  -3   21.53    0.49
  -7   1  -3   21.67    0.48
  -7   1  -3   21.95    0.49
  -8  -1  -3    0.60    0.06
  -8  -1  -3    0.57    0.04
  -8  -1  -3    0.60    0.06
  -8   1  -3    0.52    0.05
  -8   1  -3    0.55    0.06
  -8   1  -3    0.74    0.06
  -9  -1  -3    0.09    0.04
  -9  -1  -3    0.01    0.02
  -9  -1  -3    0.11    0.05
  -9   1  -3    0.07    0.04
  -9   1  -3    0.30    0.05
  -9   1  -3    0.09    0.04
 -10  -1  -3    5.78    0.19
 -10  -1  -3    5.65    0.18
 -10   1  -3    5.45    0.18
 -10   1  -3    5.78    0.18
 -10   1  -3    5.79    0.19
 -11  -1  -3    2.03    0.12
 -11  -1  -3    2.00    0.11
 -11   1  -3    2.10    0.10
 -11   1  -3    2.12    0.11
 -11   1  -3    2.35    0.12
 -12  -1  -3    6.76    0.23
 -12  -1  -3    6.87    0.22
 -12   1  -3    7.25    0.22
 -12   1  -3    7.27    0.23
 -12   1  -3    7.27    0.23
 -13  -1  -3    0.22    0.06
 -13  -1  -3    0.21    0.06
 -13   1  -3    0.17    0.06
 -14  -1  -3    0.38    0.07
 -14  -1  -3    0.52    0.08
  14  -1   3    0.44    0.07
 -14   1  -3    0.35    0.07
 -15  -1  -3    0.49    0.08
 -15  -1  -3    0.59    0.09
  15  -1   3    0.60    0.09
 -15   1  -3    0.48    0.08
 -16  -1  -3    8.77    0.29
  16  -1   3    8.47    0.29
 -16  -1  -3    8.61    0.30
 -16   1  -3    8.11    0.29
 -17  -1  -3    5.60    0.25
  17  -1   3    5.81    0.24
 -17  -1  -3    5.92    0.24
 -17   1  -3    5.95    0.24
  17  -2  -3    1.39    0.14
 -17  -2   3    1.22    0.13
 -17   2   3    1.51    0.14
  17   2  -3    1.18    0.13
 -16  -2   3   10.12    0.33
  16  -2  -3    9.78    0.33
 -16   2   3    9.69    0.33
  16   2  -3    9.86    0.33
  15  -2  -3    0.08    0.06
 -15  -2   3    0.08    0.06
  15   2  -3    0.04    0.06
 -15   2   3    0.11    0.06
 -14  -2   3    7.41    0.26
  14  -2  -3    7.37    0.26
 -14   2   3    7.99    0.26
  14   2  -3    7.92    0.26
 -14   2   3    7.30    0.26
 -13  -2   3    1.72    0.12
  13  -2  -3    1.60    0.12
 -13   2   3    1.73    0.12
 -13   2   3    1.62    0.12
  12  -2  -3    1.81    0.12
 -12  -2   3    1.89    0.12
 -12  -2   3    1.79    0.12
 -12   2   3    1.85    0.12
 -12   2   3    2.01    0.12
  11  -2  -3    0.39    0.06
 -11  -2   3    0.22    0.06
 -11  -2   3    0.28    0.06
 -11   2   3    0.27    0.06
 -11   2   3    0.36    0.07
 -10  -2   3    4.65    0.17
 -10  -2   3    4.94    0.17
  10  -2  -3    4.70    0.17
 -10   2   3    4.90    0.18
 -10   2   3    4.84    0.18
   9  -2  -3   20.63    0.49
  -9  -2   3   20.65    0.49
  -9   2   3   21.15    0.50
  -9   2   3   20.54    0.50
   8  -2  -3   23.52    0.55
  -8  -2   3   23.79    0.55
  -8  -2   3   24.21    0.50
  -8   2   3   25.09    0.56
  -8   2   3   23.99    0.56
  -7  -2   3   29.72    0.62
   7  -2  -3   28.99    0.66
  -7  -2   3   30.40    0.66
  -7   2   3   30.23    0.66
  -7   2   3   29.53    0.67
  -6  -2   3   14.96    0.32
  -6  -2   3   14.48    0.34
   6  -2  -3   14.89    0.35
  -6   2   3   14.33    0.36
  -6   2   3   15.55    0.35
  -5  -2   3   32.20    0.75
   5  -2  -3   35.58    0.75
  -5  -2   3   35.56    0.72
  -5  -2   3   35.18    0.74
  -5   2   3   35.02    0.76
  -5   2   3   36.02    0.75
  -4  -2   3   35.84    0.73
  -4  -2   3   34.68    0.75
   4  -2  -3   35.68    0.75
  -4  -2   3   35.13    0.74
  -4   2   3   34.84    0.75
  -4   2   3   35.32    0.76
   3  -2  -3   27.20    0.58
  -3  -2   3   26.78    0.59
  -3  -2   3   27.70    0.57
  -3   2   3   26.98    0.58
   3   2  -3   27.31    0.57
   2  -2  -3   92.21    1.89
  -2  -2   3   92.35    1.90
  -2  -2   3   93.75    1.88
  -2   2   3   92.40    1.90
   2   2  -3   93.80    1.91
  -2   2   3   90.40    1.89
   1  -2  -3   13.19    0.29
   1  -2  -3   13.15    0.30
  -1  -2   3   13.26    0.27
  -1  -2   3   12.96    0.30
   1   2  -3   12.92    0.29
  -1   2   3   13.07    0.30
   0  -2   3    4.25    0.12
   0  -2  -3    4.41    0.11
   0  -2  -3    4.27    0.12
   0   2  -3    4.25    0.12
   0   2   3    4.37    0.12
  -1  -2  -3    3.17    0.09
  -1  -2  -3    3.15    0.10
   1  -2   3    3.16    0.10
  -1   2  -3    3.16    0.10
   1   2   3    3.13    0.09
  -2  -2  -3    1.21    0.05
  -2  -2  -3    1.23    0.06
   2  -2   3    1.27    0.06
   2  -2   3    1.27    0.04
  -2   2  -3    1.22    0.06
   2   2   3    1.19    0.05
  -3  -2  -3   42.59    0.89
   3  -2   3   42.96    0.88
  -3  -2  -3   43.72    0.91
   3   2   3   42.33    0.88
   4  -2   3   31.10    0.66
  -4  -2  -3   32.04    0.68
  -4   2  -3   30.75    0.68
   4   2   3   32.16    0.66
  -4   2  -3   31.64    0.68
  -5  -2  -3    5.83    0.15
  -5  -2  -3    5.70    0.16
  -5   2  -3    5.26    0.16
   5   2   3    5.52    0.13
  -5   2  -3    5.51    0.16
  -6  -2  -3    1.73    0.09
  -6  -2  -3    1.99    0.08
  -6   2  -3    1.96    0.09
   6   2   3    2.01    0.06
  -6   2  -3    1.92    0.09
  -7  -2  -3   14.16    0.34
   7   2   3   14.22    0.31
  -7   2  -3   14.37    0.35
  -7   2  -3   14.19    0.35
  -8  -2  -3    4.74    0.15
  -8   2  -3    4.62    0.16
  -8   2  -3    4.70    0.16
   8   2   3    4.58    0.12
  -9  -2  -3   25.06    0.57
   9  -2   3   24.55    0.56
  -9   2  -3   24.92    0.58
  -9   2  -3   24.65    0.58
 -10  -2  -3   33.79    0.75
  10  -2   3   33.23    0.74
 -10  -2  -3   32.38    0.74
 -10   2  -3   32.93    0.75
 -10   2  -3   32.70    0.75
 -11  -2  -3    1.00    0.08
  11  -2   3    0.80    0.07
 -11  -2  -3    0.84    0.08
 -11   2  -3    0.93    0.08
 -11   2  -3    1.18    0.09
 -12  -2  -3   26.48    0.63
  12  -2   3   26.34    0.63
 -12  -2  -3   27.20    0.65
 -12   2  -3   27.29    0.63
 -12   2  -3   27.04    0.65
  13  -2   3    4.96    0.19
 -13  -2  -3    5.08    0.20
 -13  -2  -3    5.15    0.19
 -13   2  -3    4.89    0.18
 -13   2  -3    4.53    0.19
  14  -2   3   11.95    0.34
 -14  -2  -3   11.58    0.36
 -14  -2  -3   12.29    0.35
 -14   2  -3   11.56    0.35
 -15  -2  -3    3.25    0.18
 -15  -2  -3    3.27    0.16
  15  -2   3    3.24    0.16
 -15   2  -3    3.33    0.18
 -16  -2  -3    1.27    0.12
 -16  -2  -3    1.16    0.12
  16  -2   3    1.42    0.12
 -16   2  -3    1.40    0.13
  17  -2   3    0.10    0.07
 -17  -2  -3    0.04    0.06
 -17   2  -3    0.03    0.06
 -17  -3   3    0.03    0.07
  17  -3  -3    0.08    0.07
  17   3  -3   -0.06    0.07
 -16  -3   3    3.53    0.19
  16  -3  -3    3.96    0.20
  16   3  -3    3.44    0.19
 -16   3   3    3.58    0.19
 -15  -3   3    0.87    0.10
  15  -3  -3    0.86    0.10
 -15   3   3    0.70    0.10
 -15   3   3    1.09    0.12
 -14  -3   3    1.89    0.13
  14  -3  -3    2.08    0.14
 -14  -3   3    2.06    0.14
 -14   3   3    1.76    0.13
 -14   3   3    1.63    0.13
 -13  -3   3    1.23    0.11
  13  -3  -3    1.12    0.10
 -13  -3   3    0.98    0.10
 -13   3   3    1.28    0.11
 -13   3   3    1.27    0.11
 -12  -3   3    0.06    0.05
  12  -3  -3    0.02    0.05
 -12  -3   3    0.00    0.05
 -12   3   3    0.01    0.04
 -12   3   3    0.02    0.05
  11  -3  -3    0.10    0.05
 -11  -3   3    0.03    0.04
 -11  -3   3    0.07    0.05
 -11   3   3   -0.01    0.05
 -11   3   3    0.18    0.05
 -10  -3   3    8.78    0.26
  10  -3  -3    8.78    0.26
 -10  -3   3    8.87    0.27
 -10   3   3    8.66    0.26
 -10   3   3    8.80    0.27
   9  -3  -3    0.72    0.07
  -9  -3   3    0.59    0.07
  -9  -3   3    0.56    0.07
  -9   3   3    0.65    0.09
  -9   3   3    0.70    0.08
   8  -3  -3    0.99    0.08
  -8  -3   3    0.79    0.07
  -8   3   3    1.13    0.08
  -8   3   3    0.91    0.09
  -7  -3   3    0.02    0.03
   7  -3  -3    0.01    0.04
  -7  -3   3    0.01    0.02
  -7   3   3    0.04    0.04
  -7   3   3    0.01    0.04
  -6  -3   3    0.06    0.03
  -6  -3   3    0.05    0.04
   6  -3  -3    0.07    0.04
  -6  -3   3    0.12    0.02
  -6   3   3    0.11    0.03
  -6   3   3    0.04    0.05
  -5  -3   3   27.60    0.61
  -5  -3   3   28.46    0.59
   5  -3  -3   28.37    0.62
  -5   3   3   28.18    0.62
   4  -3  -3    0.16    0.04
  -4  -3   3    0.21    0.03
   4   3  -3    0.13    0.02
  -4   3   3    0.11    0.03
  -4   3   3    0.25    0.05
   3  -3  -3    7.36    0.19
  -3  -3   3    7.08    0.17
   3   3  -3    7.24    0.17
  -3   3   3    7.44    0.21
  -2  -3   3    8.35    0.19
   2  -3  -3    7.20    0.20
   2  -3  -3    8.40    0.21
  -2  -3   3    7.93    0.21
   2   3  -3    8.61    0.20
  -2   3   3    8.64    0.22
  -1  -3   3    0.84    0.03
   1  -3  -3    0.82    0.06
  -1  -3   3    0.75    0.06
  -1   3   3    0.83    0.06
   1   3  -3    0.82    0.05
   0  -3  -3   22.30    0.50
   0  -3   3   22.86    0.51
   0  -3   3   23.05    0.46
   0   3   3   22.32    0.50
   0   3  -3   22.25    0.50
   1  -3   3   63.02    1.31
  -1  -3  -3   61.69    1.30
  -1   3  -3   62.60    1.30
   1   3   3   61.92    1.29
   2  -3   3    0.01    0.03
  -2  -3  -3    0.00    0.02
  -2  -3  -3    0.04    0.03
   2  -3   3    0.02    0.01
  -2   3  -3    0.00    0.03
   2   3   3    0.02    0.03
  -3  -3  -3   10.00    0.25
  -3  -3  -3    8.83    0.24
   3  -3   3   10.33    0.26
   3  -3   3    9.95    0.22
  -3   3  -3   10.00    0.26
   3   3   3    9.90    0.23
   4  -3   3    0.36    0.03
   4  -3   3    0.40    0.05
  -4  -3  -3    0.33    0.04
  -4  -3  -3    0.36    0.05
   4   3   3    0.38    0.03
  -5  -3  -3   11.64    0.29
   5  -3   3   10.95    0.26
  -5  -3  -3   11.08    0.28
  -5   3  -3   10.62    0.28
  -5   3  -3   11.19    0.29
   5   3   3   11.34    0.25
   6  -3   3    1.77    0.07
  -6  -3  -3    1.59    0.09
  -6  -3  -3    1.83    0.10
  -6   3  -3    1.78    0.10
   6   3   3    1.78    0.06
  -6   3  -3    1.83    0.10
  -7  -3  -3    2.92    0.12
  -7  -3  -3    2.91    0.11
   7  -3   3    2.70    0.10
  -7   3  -3    2.92    0.13
  -7   3  -3    2.87    0.12
  -8  -3  -3    1.37    0.09
  -8  -3  -3    1.18    0.09
   8  -3   3    1.34    0.08
  -8   3  -3    1.35    0.10
  -8   3  -3    1.24    0.09
  -9  -3  -3    5.69    0.19
  -9  -3  -3    5.90    0.20
   9  -3   3    5.75    0.18
  -9   3  -3    5.88    0.20
  -9   3  -3    5.50    0.20
  10  -3   3    1.70    0.09
 -10  -3  -3    1.59    0.11
 -10  -3  -3    1.52    0.10
 -10   3  -3    1.59    0.11
 -10   3  -3    1.55    0.10
  11  -3   3    0.00    0.04
 -11  -3  -3    0.00    0.04
 -11  -3  -3    0.00    0.05
 -11   3  -3   -0.01    0.04
 -11   3  -3   -0.04    0.04
  12  -3   3   15.71    0.41
 -12  -3  -3   16.15    0.42
 -12  -3  -3   15.63    0.43
 -12   3  -3   15.41    0.43
 -12   3  -3   16.03    0.42
 -13  -3  -3    3.99    0.17
 -13  -3  -3    3.74    0.18
  13  -3   3    3.85    0.17
 -13   3  -3    3.81    0.18
 -13   3  -3    4.11    0.18
 -14  -3  -3    8.51    0.29
  14  -3   3    8.21    0.27
 -14  -3  -3    8.42    0.27
 -14   3  -3    8.02    0.29
 -14   3  -3    8.35    0.28
 -15  -3  -3    4.92    0.23
 -15  -3  -3    5.37    0.22
  15  -3   3    5.66    0.22
 -15   3  -3    5.48    0.23
 -16  -3  -3    0.56    0.10
 -16  -3  -3    0.65    0.10
 -16   3  -3    0.58    0.10
 -17  -3  -3    0.87    0.11
  17  -4  -3    1.26    0.13
  16  -4  -3    0.79    0.11
 -16  -4   3    0.48    0.09
 -16   4   3    0.52    0.10
 -16   4   3    0.57    0.10
  15  -4  -3   -0.01    0.06
 -15  -4   3    0.02    0.06
 -15  -4   3    0.01    0.06
 -15   4   3   -0.08    0.06
 -15   4   3   -0.05    0.05
  14  -4  -3   -0.11    0.05
 -14  -4   3    0.02    0.06
 -14  -4   3    0.08    0.06
 -14   4   3   -0.06    0.07
 -14   4   3    0.05    0.05
 -13  -4   3    0.19    0.06
 -13  -4   3    0.32    0.08
  13  -4  -3    0.26    0.07
 -13   4   3    0.27    0.08
 -13   4   3    0.39    0.08
  12  -4  -3    0.65    0.08
 -12  -4   3    0.45    0.07
 -12  -4   3    0.60    0.08
 -12   4   3    0.61    0.09
 -12   4   3    0.63    0.09
  11  -4  -3    6.57    0.23
 -11  -4   3    6.54    0.24
 -11  -4   3    6.67    0.22
 -11   4   3    6.84    0.24
 -11   4   3    6.66    0.25
 -10  -4   3    0.12    0.05
  10  -4  -3    0.11    0.05
 -10  -4   3    0.10    0.05
 -10   4   3    0.07    0.06
 -10   4   3    0.10    0.05
  -9  -4   3    2.42    0.13
  -9  -4   3    2.43    0.12
   9  -4  -3    2.42    0.12
  -9   4   3    2.29    0.12
  -9   4   3    2.33    0.14
  -8  -4   3    9.67    0.28
   8  -4  -3    9.60    0.27
  -8  -4   3    9.49    0.26
  -8   4   3    9.48    0.29
  -8   4   3    9.53    0.28
  -7  -4   3   10.44    0.30
  -7  -4   3   10.40    0.27
   7  -4  -3   10.19    0.28
  -7   4   3   10.05    0.29
  -7   4   3   10.54    0.30
  -6  -4   3    1.04    0.07
  -6  -4   3    1.11    0.09
   6  -4  -3    1.14    0.08
  -6   4   3    1.12    0.08
   5  -4  -3    1.07    0.07
  -5  -4   3    1.23    0.07
  -5  -4   3    0.99    0.07
   5   4  -3    1.17    0.05
  -4  -4   3    0.10    0.03
  -4  -4   3    0.10    0.04
   4  -4  -3    0.15    0.04
   4  -4  -3    0.17    0.04
   4   4  -3    0.11    0.03
  -4   4   3    0.09    0.05
   3  -4  -3   17.65    0.42
  -3  -4   3   17.94    0.43
   3  -4  -3   17.53    0.41
  -3  -4   3   17.03    0.39
   3   4  -3   17.57    0.39
  -3   4   3   18.39    0.43
  -2  -4   3    0.14    0.02
  -2  -4   3    0.05    0.02
   2  -4  -3    0.09    0.04
   2  -4  -3    0.10    0.03
  -2   4   3    0.10    0.04
   2   4  -3    0.04    0.03
  -1  -4   3   32.00    0.66
   1  -4  -3   31.57    0.70
   1  -4  -3   32.11    0.70
   1   4  -3   31.32    0.69
  -1   4   3   32.82    0.71
   0  -4  -3    0.51    0.05
   0  -4  -3    0.44    0.05
   0  -4   3    0.40    0.03
   0   4   3    0.48    0.05
   0   4  -3    0.40    0.05
  -1  -4  -3    7.19    0.19
   1  -4   3    7.24    0.16
  -1  -4  -3    7.11    0.19
   1  -4   3    5.88    0.20
  -1   4  -3    7.29    0.20
   1   4   3    7.27    0.19
  -2  -4  -3    1.26    0.07
  -2  -4  -3    1.18    0.07
   2  -4   3    1.18    0.09
   2  -4   3    1.34    0.05
  -2   4  -3    1.34    0.08
   2   4   3    1.38    0.07
  -3  -4  -3    0.16    0.04
   3  -4   3    0.16    0.05
   3  -4   3    0.19    0.02
  -3  -4  -3    0.12    0.04
  -3   4  -3    0.22    0.05
   3   4   3    0.20    0.04
   4  -4   3    4.21    0.17
  -4  -4  -3    5.09    0.16
   4  -4   3    5.24    0.13
  -4  -4  -3    5.28    0.17
   4   4   3    5.24    0.14
  -4   4  -3    5.56    0.18
  -5  -4  -3    0.11    0.04
   5  -4   3    0.06    0.04
   5  -4   3    0.14    0.03
  -5  -4  -3    0.13    0.04
   5   4   3    0.13    0.03
  -6  -4  -3   27.13    0.62
   6  -4   3   26.89    0.58
   6  -4   3   26.80    0.63
  -6  -4  -3   26.95    0.61
   7  -4   3    5.32    0.15
  -7  -4  -3    5.27    0.18
  -7  -4  -3    4.98    0.18
  -7   4  -3    5.15    0.19
   8  -4   3    5.64    0.17
  -8  -4  -3    5.52    0.19
  -8  -4  -3    5.44    0.18
  -8   4  -3    5.50    0.20
  -8   4  -3    5.95    0.21
   9  -4   3    0.52    0.06
  -9  -4  -3    0.49    0.07
  -9  -4  -3    0.56    0.07
  -9   4  -3    0.59    0.08
  -9   4  -3    0.62    0.08
  10  -4   3    2.16    0.12
 -10  -4  -3    1.98    0.12
 -10  -4  -3    1.91    0.11
 -10   4  -3    1.99    0.13
 -10   4  -3    1.99    0.12
 -11  -4  -3    1.23    0.10
 -11  -4  -3    1.19    0.10
 -11   4  -3    1.14    0.11
 -11   4  -3    1.09    0.11
 -12  -4  -3   13.01    0.37
 -12  -4  -3   12.89    0.36
 -12   4  -3   12.52    0.37
 -12   4  -3   12.71    0.38
 -13  -4  -3   21.38    0.56
 -13  -4  -3   22.40    0.56
 -13   4  -3   21.59    0.56
 -13   4  -3   21.62    0.58
 -14  -4  -3    0.13    0.07
 -14  -4  -3    0.00    0.05
 -14   4  -3   -0.07    0.05
 -14   4  -3    0.03    0.06
 -15  -4  -3    0.13    0.07
 -15  -4  -3    0.04    0.05
 -15   4  -3    0.04    0.06
 -15   4  -3   -0.08    0.05
 -16  -4  -3    0.34    0.08
 -15  -5   3    1.09    0.12
 -15  -5   3    0.85    0.11
 -15   5   3    1.24    0.14
 -15   5   3    1.07    0.13
 -14  -5   3    3.40    0.18
  14  -5  -3    3.54    0.18
 -14  -5   3    3.74    0.20
 -14   5   3    3.66    0.20
 -14   5   3    3.50    0.19
 -13  -5   3    5.48    0.21
 -13  -5   3    5.66    0.24
  13  -5  -3    5.15    0.21
 -13   5   3    5.77    0.24
 -13   5   3    5.26    0.24
  12  -5  -3   20.30    0.51
 -12  -5   3   20.07    0.51
 -12  -5   3   19.68    0.53
 -12   5   3   19.31    0.53
 -12   5   3   19.45    0.54
 -11  -5   3   29.88    0.70
 -11  -5   3   30.37    0.73
  11  -5  -3   29.90    0.71
 -11   5   3   29.03    0.73
 -11   5   3   29.47    0.73
  10  -5  -3    6.72    0.22
 -10  -5   3    6.78    0.22
 -10  -5   3    6.60    0.24
 -10   5   3    6.43    0.24
 -10   5   3    6.61    0.25
   9  -5  -3    0.08    0.05
  -9  -5   3    0.07    0.05
  -9  -5   3    0.07    0.06
  -9   5   3    0.04    0.06
  -9   5   3    0.01    0.05
   8  -5  -3    4.19    0.16
  -8  -5   3    4.36    0.18
  -8  -5   3    4.21    0.15
  -8   5   3    4.44    0.19
  -7  -5   3    2.80    0.14
   7  -5  -3    2.48    0.13
   7  -5  -3    2.76    0.12
  -7  -5   3    2.62    0.11
  -7   5   3    2.53    0.14
   6  -5  -3    1.15    0.09
   6  -5  -3    1.39    0.09
  -6  -5   3    1.51    0.11
  -6  -5   3    1.26    0.08
  -6   5   3    1.32    0.11
  -5  -5   3    2.80    0.14
   5  -5  -3    2.80    0.12
   5  -5  -3    2.96    0.13
  -5  -5   3    2.74    0.11
  -5   5   3    2.70    0.15
   4  -5  -3    0.01    0.04
   4  -5  -3    0.00    0.04
  -4  -5   3    0.02    0.05
  -4  -5   3    0.04    0.03
   4   5  -3    0.05    0.03
  -4   5   3    0.02    0.05
  -3  -5   3   18.34    0.47
  -3  -5   3   18.94    0.42
   3  -5  -3   18.71    0.44
   3  -5  -3   18.83    0.46
  -3   5   3   19.07    0.47
   3   5  -3   18.99    0.43
  -2  -5   3    0.21    0.05
   2  -5  -3    0.42    0.06
  -2  -5   3    0.46    0.04
   2  -5  -3    0.49    0.05
   2   5  -3    0.39    0.05
  -2   5   3    0.47    0.07
  -1  -5   3    1.46    0.06
   1  -5  -3    1.51    0.10
   1  -5  -3    1.52    0.09
  -1   5   3    1.55    0.10
   1   5  -3    1.58    0.09
   0  -5  -3    0.39    0.06
   0  -5  -3    0.35    0.05
   0  -5   3    0.32    0.03
   0   5   3    0.26    0.05
   0   5  -3    0.26    0.05
  -1  -5  -3   56.11    1.22
  -1  -5  -3   57.93    1.22
  -1   5  -3   56.96    1.22
   1   5   3   57.68    1.21
  -2  -5  -3   26.92    0.62
  -2  -5  -3   27.00    0.61
   2   5   3   27.08    0.60
  -2   5  -3   27.48    0.63
  -3  -5  -3   20.67    0.48
  -3  -5  -3   19.60    0.48
   3   5   3   20.94    0.47
  -3   5  -3   20.57    0.50
   4  -5   3    4.97    0.19
  -4  -5  -3    5.05    0.17
  -4  -5  -3    5.22    0.17
   4   5   3    4.97    0.15
  -4   5  -3    4.90    0.18
   5  -5   3    3.51    0.15
  -5  -5  -3    3.63    0.15
  -5  -5  -3    3.62    0.14
  -5   5  -3    3.61    0.16
   6  -5   3    9.36    0.29
  -6  -5  -3    9.24    0.27
  -6  -5  -3    9.64    0.27
  -6   5  -3    9.35    0.29
  -7  -5  -3    8.55    0.26
  -7  -5  -3    8.64    0.26
   7  -5   3    8.63    0.28
  -7   5  -3    8.89    0.28
  -8  -5  -3    0.08    0.05
   8  -5   3    0.20    0.06
  -8  -5  -3    0.05    0.04
  -8   5  -3    0.05    0.06
   9  -5   3    0.05    0.05
  -9  -5  -3    0.03    0.05
  -9  -5  -3   -0.06    0.04
  -9   5  -3   -0.10    0.05
 -10  -5  -3    0.79    0.09
  10  -5   3    0.85    0.10
 -10  -5  -3    0.94    0.10
 -10   5  -3    0.83    0.10
 -11  -5  -3    0.77    0.09
 -11  -5  -3    0.69    0.09
 -11   5  -3    0.78    0.10
 -12  -5  -3    2.76    0.16
 -12  -5  -3    2.77    0.15
 -12   5  -3    2.71    0.16
 -13  -5  -3   -0.03    0.05
 -13  -5  -3    0.12    0.07
 -13   5  -3    0.13    0.07
 -13   5  -3    0.12    0.07
 -14  -5  -3    1.30    0.13
 -14  -5  -3    1.33    0.12
 -14   5  -3    1.24    0.14
 -14   5  -3    1.20    0.13
 -15  -5  -3    0.19    0.08
 -15   5  -3    0.13    0.07
 -14  -6   3    0.08    0.12
 -14  -6   3    0.09    0.07
 -14   6   3    0.07    0.11
 -13  -6   3    1.14    0.13
 -13  -6   3    1.08    0.11
 -13   6   3    1.07    0.13
 -12  -6   3    0.09    0.07
 -12  -6   3    0.14    0.06
 -12   6   3   -0.02    0.07
 -11  -6   3    0.48    0.08
  11  -6  -3    0.34    0.08
 -11  -6   3    0.29    0.08
 -11   6   3    0.57    0.10
 -10  -6   3    0.30    0.08
  10  -6  -3    0.30    0.07
 -10  -6   3    0.44    0.07
 -10   6   3    0.36    0.09
   9  -6  -3    0.02    0.05
   9  -6  -3   -0.07    0.04
  -9  -6   3   -0.04    0.04
  -9  -6   3   -0.11    0.06
  -9   6   3   -0.11    0.06
  -8  -6   3    4.80    0.21
   8  -6  -3    4.77    0.18
  -8  -6   3    4.43    0.17
   8  -6  -3    4.55    0.20
  -8   6   3    4.55    0.21
  -7  -6   3    8.66    0.25
   7  -6  -3    8.89    0.28
  -7  -6   3    8.31    0.28
   7  -6  -3    8.70    0.26
  -7   6   3    8.72    0.29
  -6  -6   3    8.17    0.27
   6  -6  -3    8.20    0.24
   6  -6  -3    8.32    0.27
  -6  -6   3    8.59    0.24
  -6   6   3    7.78    0.27
   5  -6  -3    0.29    0.05
   5  -6  -3    0.33    0.06
  -5  -6   3    0.22    0.07
  -5   6   3    0.31    0.07
  -4  -6   3    2.80    0.15
   4  -6  -3    2.74    0.12
   4  -6  -3    2.57    0.13
  -4   6   3    2.52    0.14
   3  -6  -3    3.52    0.14
  -3  -6   3    3.69    0.16
   3  -6  -3    3.98    0.16
   3   6  -3    3.64    0.13
  -3   6   3    3.49    0.16
  -2  -6   3    9.18    0.28
   2  -6  -3    8.55    0.25
   2  -6  -3    8.61    0.27
  -2   6   3    8.98    0.27
   2   6  -3    8.73    0.24
   1  -6  -3    1.30    0.09
  -1  -6   3    1.45    0.12
   1  -6  -3    1.17    0.10
   1   6  -3    1.25    0.09
  -1   6   3    1.17    0.10
   0  -6  -3   17.15    0.42
   0  -6   3   18.00    0.46
   0  -6  -3   17.33    0.44
   0   6   3   17.49    0.43
   0   6  -3   17.01    0.43
  -1  -6  -3   11.06    0.31
  -1  -6  -3   10.74    0.29
   1  -6   3   11.14    0.33
   1   6   3   10.67    0.29
  -1   6  -3   10.85    0.30
  -2  -6  -3    2.54    0.12
  -2  -6  -3    2.51    0.13
   2  -6   3    2.46    0.14
  -2   6  -3    2.60    0.13
   2   6   3    2.51    0.12
  -3  -6  -3   14.40    0.38
  -3  -6  -3   14.93    0.38
   3  -6   3   14.66    0.40
  -3   6  -3   14.59    0.39
  -4  -6  -3    2.64    0.13
  -4  -6  -3    2.64    0.13
   4  -6   3    2.82    0.15
  -4   6  -3    2.39    0.14
  -5  -6  -3    6.28    0.21
  -5  -6  -3    6.31    0.21
   5  -6   3    6.66    0.24
  -5   6  -3    6.13    0.23
   6  -6   3    8.53    0.28
  -6  -6  -3    7.99    0.25
  -6  -6  -3    8.17    0.26
  -6   6  -3    8.32    0.28
  -7  -6  -3   12.24    0.34
   7  -6   3   12.25    0.37
  -7  -6  -3   12.59    0.35
  -7   6  -3   12.37    0.37
  -8  -6  -3    0.40    0.07
  -8  -6  -3    0.42    0.07
   8  -6   3    0.34    0.07
  -8   6  -3    0.33    0.07
  -9  -6  -3    0.62    0.08
   9  -6   3    0.52    0.08
  -9  -6  -3    0.64    0.08
  -9   6  -3    0.60    0.09
  10  -6   3    0.36    0.08
 -10  -6  -3    0.50    0.08
 -10  -6  -3    0.42    0.08
 -10   6  -3    0.44    0.09
  11  -6   3    0.34    0.08
 -11  -6  -3    0.22    0.07
 -11  -6  -3    0.40    0.08
 -11   6  -3    0.18    0.08
 -12  -6  -3    4.27    0.20
 -12  -6  -3    4.05    0.20
  12  -6   3    3.95    0.21
 -12   6  -3    4.18    0.21
 -13  -6  -3    4.08    0.21
  13  -6   3    4.39    0.24
 -13  -6  -3    3.77    0.24
 -13   6  -3    4.05    0.21
 -12  -7   3    0.66    0.11
  12  -7  -3    0.68    0.11
  11  -7  -3    0.08    0.07
 -11  -7   3   -0.02    0.07
 -11   7   3    0.01    0.07
  10  -7  -3    0.02    0.06
 -10  -7   3   -0.09    0.06
 -10   7   3   -0.01    0.07
  -9  -7   3    0.27    0.08
   9  -7  -3    0.20    0.07
  -9   7   3    0.24    0.09
  -8  -7   3    2.69    0.17
   8  -7  -3    2.81    0.16
  -8   7   3    2.56    0.17
   7  -7  -3    2.40    0.15
  -7  -7   3    2.26    0.15
  -7   7   3    2.22    0.16
   6  -7  -3    0.24    0.07
  -6  -7   3    0.22    0.07
  -6   7   3    0.22    0.08
   5  -7  -3    0.30    0.07
  -5  -7   3    0.34    0.08
  -5   7   3    0.27    0.07
   4  -7  -3    0.00    0.05
  -4  -7   3   -0.01    0.06
  -4   7   3   -0.02    0.05
   3  -7  -3    0.46    0.08
  -3  -7   3    0.58    0.09
  -3   7   3    0.60    0.09
   2  -7  -3    3.49    0.17
   2  -7  -3    3.75    0.16
  -2  -7   3    3.66    0.18
  -2   7   3    3.49    0.17
   2   7  -3    3.84    0.17
   1  -7  -3    0.88    0.08
  -1  -7   3    0.96    0.11
   1  -7  -3    0.87    0.09
   1   7  -3    0.85    0.08
  -1   7   3    0.97    0.09
   0  -7  -3    0.01    0.05
   0  -7  -3   -0.05    0.04
   0  -7   3    0.01    0.06
   0   7   3    0.04    0.05
   0   7  -3    0.01    0.04
   1  -7   3   -0.03    0.06
  -1  -7  -3   -0.04    0.05
  -1  -7  -3   -0.01    0.04
  -1   7  -3   -0.03    0.04
   1   7   3    0.00    0.05
  -2  -7  -3    6.67    0.23
   2  -7   3    6.82    0.25
  -2  -7  -3    6.82    0.22
  -2   7  -3    6.80    0.23
  -3  -7  -3    1.59    0.11
  -3  -7  -3    1.66    0.11
   3  -7   3    1.62    0.13
  -3   7  -3    1.75    0.12
  -4  -7  -3    0.09    0.05
  -4  -7  -3    0.08    0.06
   4  -7   3   -0.01    0.06
  -4   7  -3    0.01    0.05
  -5  -7  -3    0.24    0.07
   5  -7   3    0.24    0.08
  -5  -7  -3    0.14    0.05
  -5   7  -3    0.18    0.06
  -6  -7  -3    3.80    0.17
  -6  -7  -3    3.81    0.17
   6  -7   3    4.12    0.20
  -6   7  -3    3.70    0.18
  -7  -7  -3    0.14    0.06
  -7  -7  -3    0.09    0.06
   7  -7   3    0.09    0.07
  -7   7  -3    0.02    0.06
  -8  -7  -3    0.37    0.08
  -8  -7  -3    0.33    0.07
   8  -7   3    0.29    0.08
  -8   7  -3    0.39    0.09
  -9  -7  -3    0.33    0.07
   9  -7   3    0.32    0.09
  -9  -7  -3    0.45    0.08
  -9   7  -3    0.37    0.09
  10  -7   3    1.17    0.13
 -10  -7  -3    1.22    0.12
 -10  -7  -3    0.99    0.11
 -10   7  -3    1.09    0.13
  11  -7   3    0.94    0.13
 -11  -7  -3    0.97    0.11
 -11   7  -3    0.63    0.11
 -12  -7  -3    0.12    0.07
  10  -8  -3    0.93    0.18
  -9  -8   3    5.77    0.26
   9  -8  -3    5.39    0.25
  -9   8   3    4.91    0.25
  -8  -8   3    9.89    0.34
   8  -8  -3    9.32    0.34
  -8   8   3    9.62    0.35
  -7  -8   3    3.42    0.19
   7  -8  -3    3.39    0.19
  -7   8   3    3.50    0.20
  -6  -8   3    1.93    0.15
   6  -8  -3    1.83    0.15
  -6   8   3    1.77    0.15
   5  -8  -3    0.16    0.07
  -5  -8   3    0.39    0.09
  -5   8   3    0.29    0.08
  -4  -8   3    0.15    0.08
   4  -8  -3    0.22    0.08
  -4   8   3    0.15    0.07
  -3  -8   3    1.38    0.13
   3  -8  -3    1.43    0.13
  -3   8   3    1.46    0.13
   2  -8  -3    6.63    0.25
  -2  -8   3    6.81    0.26
  -2   8   3    6.57    0.24
  -1  -8   3    5.24    0.23
   1  -8  -3    5.12    0.21
  -1   8   3    5.29    0.21
   0  -8  -3    0.87    0.10
   0  -8   3    0.58    0.10
   0   8  -3    0.82    0.09
  -1  -8  -3    4.74    0.20
   1  -8   3    4.64    0.22
  -1   8  -3    4.46    0.19
  -2  -8  -3    1.12    0.11
   2  -8   3    1.13    0.12
  -2   8  -3    1.28    0.11
  -3  -8  -3    2.33    0.15
   3  -8   3    2.50    0.17
  -3   8  -3    2.07    0.14
  -4  -8  -3    0.98    0.11
   4  -8   3    0.96    0.12
  -4   8  -3    0.95    0.11
  -5  -8  -3    0.24    0.07
   5  -8   3    0.37    0.09
  -5   8  -3    0.26    0.08
  -6  -8  -3   10.41    0.33
   6  -8   3   10.32    0.36
  -6   8  -3   10.12    0.34
  -7  -8  -3    0.91    0.11
   7  -8   3    1.13    0.13
  -7   8  -3    1.08    0.12
   8  -8   3    3.08    0.20
  -8   8  -3    3.29    0.20
   6  -9  -3    3.88    0.21
  -6   9   3    4.06    0.23
  -5  -9   3   -0.13    0.08
   5  -9  -3    0.08    0.07
  -5   9   3   -0.01    0.07
  -4  -9   3    0.02    0.08
   4  -9  -3    0.09    0.07
  -4   9   3    0.07    0.07
  -3  -9   3    3.75    0.21
   3  -9  -3    3.95    0.20
  -3   9   3    3.58    0.20
  -2  -9   3   -0.11    0.07
   2  -9  -3   -0.07    0.06
   1  -9  -3    0.20    0.08
  -1  -9   3    0.48    0.10
   0  -9  -3    0.31    0.09
   0  -9   3    0.20    0.09
   1  -9   3    3.21    0.20
  -1  -9  -3    3.27    0.18
   2  -9   3    2.57    0.18
  -2  -9  -3    2.54    0.17
  -2   9  -3    2.81    0.17
  -3  -9  -3    2.34    0.17
   3  -9   3    2.06    0.17
  -3   9  -3    2.44    0.16
   4  -9   3    7.18    0.34
  -4  -9  -3    6.47    0.31
  -4   9  -3    7.04    0.27
  -5   9  -3    0.84    0.11
 -17   0   4    5.81    0.24
  17   0  -4    5.80    0.25
  16   0  -4    7.48    0.28
 -16   0   4    7.59    0.27
  15   0  -4   23.16    0.60
 -15   0   4   23.43    0.60
 -14   0   4   20.29    0.52
  14   0  -4   20.02    0.52
  13   0  -4   21.60    0.54
 -13   0   4   21.92    0.55
 -12   0   4    0.42    0.06
  12   0  -4    0.55    0.07
  11   0  -4   31.33    0.72
 -11   0   4   31.14    0.69
 -11   0   4   31.12    0.72
 -10   0   4    1.57    0.09
 -10   0   4    1.43    0.09
  -9   0   4    1.05    0.08
  -9   0   4    1.04    0.08
  -8   0   4   28.08    0.58
  -8   0   4   28.65    0.60
   8   0  -4   22.20    0.58
  -7   0   4    8.93    0.22
  -7   0   4    7.06    0.20
   7   0  -4    8.44    0.22
   6   0  -4    0.52    0.05
  -6   0   4    0.39    0.04
  -5   0   4   33.39    0.69
   5   0  -4   31.59    0.69
  -5   0   4   31.25    0.68
  -4   0   4   57.70    1.21
  -4   0   4   59.27    1.21
  -3   0   4   31.80    0.67
   3   0  -4   31.75    0.67
  -3   0   4   32.07    0.67
   2   0  -4  995.94   22.32
  -2   0   4  994.28   21.52
  -2   0   4 1000.00   22.36
  -1   0   4   15.60    0.30
   1   0  -4   14.88    0.31
  -1   0   4   12.26    0.31
   0   0   4  388.38    7.21
   0   0  -4  371.03    7.29
   0   0   4  309.47    7.31
   1   0   4   21.93    0.44
  -1   0  -4   21.03    0.45
  -2   0  -4   21.55    0.45
  -2   0  -4   21.07    0.45
  -2   0  -4   20.97    0.44
  -3   0  -4   85.00    1.72
  -3   0  -4   83.79    1.73
  -3   0  -4   83.09    1.73
  -4   0  -4    0.05    0.02
  -4   0  -4    0.04    0.02
  -6   0  -4    7.40    0.18
  -6   0  -4    6.46    0.18
  -6   0  -4    7.28    0.19
  -7   0  -4   12.21    0.30
  -7   0  -4   12.52    0.30
  -7   0  -4   12.51    0.29
  -8   0  -4   33.43    0.73
  -8   0  -4   33.36    0.71
  -8   0  -4   32.26    0.72
  -9   0  -4    7.21    0.21
  -9   0  -4    6.89    0.19
  -9   0  -4    6.99    0.20
 -10   0  -4   11.75    0.31
 -10   0  -4   11.90    0.32
 -10   0  -4   12.00    0.29
 -11   0  -4   43.76    0.95
 -11   0  -4   42.17    0.94
 -11   0  -4   42.37    0.95
 -12   0  -4   14.56    0.38
 -12   0  -4   14.52    0.39
 -13   0  -4   14.58    0.40
 -13   0  -4   15.00    0.40
 -14   0  -4    3.08    0.15
 -14   0  -4    3.18    0.16
 -15   0  -4    3.41    0.17
 -15   0  -4    3.56    0.18
 -16   0  -4    4.36    0.21
 -16   0  -4    4.19    0.19
 -17   0  -4    7.94    0.29
 -17  -1   4    1.23    0.13
  17  -1  -4    1.14    0.13
 -17   1   4    1.37    0.13
  17   1  -4    1.19    0.13
  16  -1  -4    0.27    0.08
 -16  -1   4    0.36    0.08
  16   1  -4    0.38    0.08
 -16   1   4    0.54    0.09
  15  -1  -4    1.85    0.14
 -15  -1   4    1.98    0.13
 -15   1   4    1.95    0.13
  15   1  -4    1.94    0.14
 -14  -1   4    0.08    0.05
  14  -1  -4    0.08    0.06
 -14   1   4    0.00    0.04
  14   1  -4   -0.02    0.05
  13  -1  -4   21.96    0.56
 -13  -1   4   22.67    0.56
 -13   1   4   22.86    0.54
 -13   1   4   22.03    0.56
  13   1  -4   23.33    0.57
  12  -1  -4    1.34    0.11
 -12  -1   4    1.33    0.10
 -12   1   4    1.24    0.10
  12   1  -4    1.42    0.11
 -12   1   4    1.33    0.10
 -11  -1   4    8.04    0.25
  11  -1  -4    7.76    0.25
  11   1  -4    8.21    0.25
 -11   1   4    8.25    0.24
 -11   1   4    8.21    0.25
 -10  -1   4    1.04    0.08
 -10  -1   4    1.03    0.07
  10  -1  -4    1.41    0.10
  10   1  -4    1.27    0.09
 -10   1   4    1.22    0.08
 -10   1   4    1.25    0.09
   9  -1  -4   13.27    0.34
  -9   1   4   12.86    0.33
   9   1  -4   13.61    0.34
  -9   1   4   12.81    0.33
   8  -1  -4    5.17    0.17
  -8  -1   4    5.52    0.17
  -8   1   4    5.27    0.17
  -8   1   4    5.62    0.17
   8   1  -4    5.12    0.17
   7  -1  -4    0.19    0.04
  -7  -1   4    0.21    0.04
  -7  -1   4    0.25    0.03
   7   1  -4    0.22    0.04
  -7   1   4    0.22    0.04
  -7   1   4    0.25    0.04
  -6  -1   4   12.56    0.30
  -6  -1   4   12.92    0.29
   6  -1  -4   12.52    0.31
  -6   1   4   12.49    0.30
   6   1  -4   12.55    0.30
  -6   1   4   12.71    0.31
   5  -1  -4    3.91    0.12
  -5  -1   4    4.04    0.12
  -5  -1   4    3.80    0.11
  -5   1   4    3.78    0.11
  -5   1   4    3.91    0.12
   5   1  -4    3.72    0.11
  -4  -1   4   11.00    0.24
  -4  -1   4   10.84    0.25
  -4   1   4   11.13    0.24
   4   1  -4    8.97    0.24
   3  -1  -4   -0.01    0.01
  -3  -1   4    0.02    0.02
  -3  -1   4    0.04    0.02
  -3   1   4   -0.01    0.01
  -3   1   4    0.04    0.02
   3   1  -4    0.01    0.02
  -2  -1   4   73.09    1.47
  -2  -1   4   70.83    1.47
   2   1  -4   71.58    1.46
  -2   1   4   71.50    1.50
  -1  -1   4    8.42    0.20
   1   1  -4    8.22    0.19
  -1   1   4    8.60    0.18
  -1   1   4    8.44    0.20
   1   1  -4    8.39    0.18
   0  -1  -4   10.40    0.21
   0  -1  -4   10.25    0.21
   0  -1   4   10.41    0.23
   0   1  -4    9.94    0.23
   0   1  -4    9.96    0.22
   0   1   4   10.05    0.24
   1  -1   4   28.89    0.60
  -1  -1  -4   28.56    0.58
  -1   1  -4   28.97    0.59
   1   1   4   28.44    0.61
  -2  -1  -4   17.28    0.36
  -2   1  -4   17.57    0.37
   2   1   4   17.36    0.38
  -3  -1  -4   12.44    0.27
   3   1   4   12.25    0.27
  -3   1  -4   11.98    0.28
  -3   1  -4   12.40    0.27
  -4  -1  -4   18.20    0.39
  -4  -1  -4   18.28    0.41
   4   1   4   18.76    0.39
  -4   1  -4   16.98    0.40
  -4   1  -4   18.46    0.39
  -5  -1  -4    0.24    0.04
  -5   1  -4    0.29    0.04
  -5   1  -4    0.24    0.03
  -6  -1  -4    1.21    0.05
  -6  -1  -4    1.14    0.06
  -6  -1  -4    1.22    0.07
  -6   1  -4    1.25    0.06
  -6   1  -4    1.13    0.06
  -6   1  -4    1.21    0.06
  -7  -1  -4    5.24    0.16
  -7  -1  -4    5.23    0.15
  -7   1  -4    5.22    0.15
  -7   1  -4    5.23    0.16
  -7   1  -4    5.00    0.15
  -8  -1  -4    0.00    0.01
  -8  -1  -4   -0.03    0.03
  -8  -1  -4    0.06    0.03
  -8   1  -4    0.02    0.03
  -8   1  -4    0.05    0.03
  -8   1  -4    0.11    0.04
  -9  -1  -4   20.16    0.47
  -9  -1  -4   20.09    0.48
  -9  -1  -4   19.79    0.44
  -9   1  -4   20.22    0.47
  -9   1  -4   19.95    0.47
  -9   1  -4   19.39    0.47
 -10  -1  -4   11.14    0.30
 -10  -1  -4   10.62    0.29
 -10   1  -4   10.58    0.29
 -10   1  -4   10.72    0.29
 -10   1  -4   10.64    0.28
 -11  -1  -4   11.61    0.31
 -11  -1  -4   11.22    0.32
 -11   1  -4   11.30    0.31
 -11   1  -4   11.10    0.30
 -11   1  -4   11.18    0.31
 -12  -1  -4    0.04    0.04
 -12  -1  -4    0.06    0.05
 -12   1  -4    0.02    0.04
 -12   1  -4    0.04    0.04
 -12   1  -4    0.00    0.03
 -13  -1  -4    0.95    0.09
 -13  -1  -4    0.88    0.09
 -13   1  -4    0.66    0.08
 -13   1  -4    0.80    0.09
 -14  -1  -4    2.29    0.13
 -14  -1  -4    2.30    0.14
 -14   1  -4    2.29    0.13
 -15  -1  -4    4.87    0.21
 -15  -1  -4    4.49    0.19
  15  -1   4    4.47    0.19
 -15   1  -4    4.70    0.20
 -16  -1  -4    1.64    0.12
 -16  -1  -4    1.85    0.15
  16  -1   4    1.88    0.14
 -16   1  -4    1.85    0.13
  17  -1   4   -0.04    0.06
 -17  -1  -4    0.05    0.06
 -17  -1  -4   -0.09    0.07
 -17   1  -4    0.01    0.06
  17  -2  -4    0.30    0.08
 -17  -2   4    0.15    0.07
  17   2  -4    0.11    0.08
 -17   2   4    0.14    0.07
  16  -2  -4    1.38    0.13
 -16  -2   4    1.67    0.13
  16   2  -4    1.58    0.14
 -16   2   4    1.76    0.14
 -15  -2   4   14.59    0.42
  15  -2  -4   14.62    0.43
 -15   2   4   14.44    0.43
  15   2  -4   14.94    0.42
 -14  -2   4    1.90    0.13
  14  -2  -4    1.82    0.13
  14   2  -4    1.87    0.13
 -14   2   4    1.85    0.13
 -14   2   4    1.84    0.13
 -13  -2   4    3.29    0.16
  13  -2  -4    3.63    0.17
 -13   2   4    3.57    0.16
  13   2  -4    3.49    0.16
 -13   2   4    3.34    0.16
 -12  -2   4    1.93    0.12
  12  -2  -4    1.94    0.12
 -12   2   4    1.95    0.12
 -12   2   4    1.93    0.12
  12   2  -4    1.99    0.12
  11  -2  -4    3.93    0.16
 -11  -2   4    4.09    0.16
 -11   2   4    4.24    0.17
 -11   2   4    3.97    0.17
 -10  -2   4    0.11    0.04
  10  -2  -4    0.08    0.05
 -10   2   4    0.12    0.05
 -10   2   4    0.13    0.06
  -9  -2   4    5.87    0.19
   9  -2  -4    5.97    0.19
  -9   2   4    5.91    0.20
  -9   2   4    5.42    0.19
   8  -2  -4    7.11    0.21
  -8  -2   4    7.21    0.21
  -8  -2   4    7.06    0.17
  -8   2   4    7.52    0.22
  -8   2   4    7.11    0.21
  -7  -2   4    1.11    0.07
  -7  -2   4    1.03    0.05
   7  -2  -4    1.07    0.08
  -7  -2   4    1.21    0.08
  -7   2   4    1.10    0.09
  -7   2   4    1.20    0.07
   6  -2  -4    9.64    0.25
  -6  -2   4    9.90    0.22
  -6  -2   4    9.53    0.24
  -6  -2   4    9.85    0.26
  -6   2   4    9.61    0.25
  -6   2   4    9.54    0.26
  -5  -2   4    0.34    0.04
  -5  -2   4    0.38    0.04
  -5  -2   4    0.30    0.03
   5  -2  -4    0.37    0.04
  -5   2   4    0.39    0.04
  -5   2   4    0.31    0.04
  -4  -2   4   14.05    0.34
   4  -2  -4   14.56    0.34
  -4  -2   4   14.74    0.31
  -4  -2   4   14.37    0.32
  -4   2   4   14.29    0.33
  -4   2   4   14.12    0.34
   3  -2  -4   44.51    0.93
  -3  -2   4   44.91    0.93
  -3   2   4   43.34    0.92
   2  -2  -4    7.81    0.20
  -2  -2   4    7.67    0.20
  -2   2   4    7.71    0.20
   2   2  -4    7.77    0.18
  -2   2   4    7.80    0.18
   2   2  -4    7.80    0.17
   1  -2  -4   35.87    0.74
   1  -2  -4   35.32    0.75
  -1  -2   4   35.40    0.75
   1   2  -4   35.50    0.72
   1   2  -4   35.25    0.74
  -1   2   4   35.45    0.75
   0  -2   4    1.01    0.06
   0  -2  -4    0.91    0.05
   0  -2  -4    1.04    0.04
   0   2   4    1.01    0.06
   0   2  -4    0.97    0.05
  -1  -2  -4   90.53    1.81
   1  -2   4   88.80    1.83
  -1  -2  -4   89.50    1.83
   1   2   4   86.56    1.82
  -1   2  -4   89.21    1.83
  -2  -2  -4    1.88    0.06
  -2  -2  -4    1.91    0.08
   2  -2   4    1.88    0.08
   2   2   4    1.89    0.07
  -2   2  -4    1.76    0.07
  -3  -2  -4   15.18    0.35
  -3  -2  -4   15.54    0.33
   3  -2   4   14.94    0.35
  -3   2  -4   15.06    0.32
   3   2   4   15.28    0.34
  -4   2  -4   16.10    0.38
  -4   2  -4   16.54    0.35
  -4   2  -4   16.66    0.38
   4   2   4   16.56    0.36
  -5  -2  -4    0.63    0.05
   5   2   4    0.76    0.04
  -5   2  -4    0.75    0.06
  -5   2  -4    0.60    0.05
  -6  -2  -4    8.66    0.22
  -6   2  -4    8.74    0.24
  -6   2  -4    8.57    0.23
   6   2   4    8.64    0.20
  -6   2  -4    8.73    0.21
  -7  -2  -4   13.30    0.32
   7   2   4   13.07    0.30
  -7   2  -4   13.50    0.32
  -7   2  -4   13.52    0.34
  -7   2  -4   13.58    0.33
  -8  -2  -4    0.18    0.04
  -8   2  -4    0.23    0.04
   8   2   4    0.21    0.03
  -8   2  -4    0.16    0.05
  -8   2  -4    0.24    0.05
  -9  -2  -4    3.89    0.15
  -9  -2  -4    3.87    0.14
  -9   2  -4    3.92    0.14
  -9   2  -4    3.82    0.15
  -9   2  -4    3.92    0.15
 -10  -2  -4    1.55    0.10
 -10  -2  -4    1.42    0.09
 -10   2  -4    1.45    0.10
 -10   2  -4    1.49    0.10
  11  -2   4    5.75    0.19
 -11  -2  -4    5.70    0.21
 -11  -2  -4    5.80    0.19
 -11   2  -4    5.89    0.20
 -11   2  -4    5.85    0.20
 -12  -2  -4    1.03    0.09
  12  -2   4    0.96    0.09
 -12  -2  -4    1.06    0.10
 -12   2  -4    1.15    0.09
 -12   2  -4    1.15    0.10
  13  -2   4    1.78    0.11
 -13  -2  -4    1.95    0.13
 -13  -2  -4    1.68    0.11
 -13   2  -4    1.67    0.11
 -13   2  -4    1.82    0.12
 -14  -2  -4    0.47    0.08
  14  -2   4    0.43    0.07
 -14  -2  -4    0.46    0.08
 -14   2  -4    0.52    0.08
 -15  -2  -4    0.43    0.09
  15  -2   4    0.47    0.08
 -15  -2  -4    0.51    0.08
 -15   2  -4    0.54    0.09
  16  -2   4    1.32    0.12
 -16  -2  -4    1.32    0.12
 -16  -2  -4    1.54    0.14
 -16   2  -4    1.61    0.13
 -17  -2  -4    1.39    0.13
  17  -2   4    1.36    0.13
 -17   2  -4    1.57    0.22
  17  -3  -4    0.39    0.09
  17   3  -4    0.25    0.10
  16  -3  -4    0.13    0.07
 -16  -3   4    0.13    0.06
  16   3  -4    0.24    0.08
 -16   3   4    0.13    0.07
 -15  -3   4    0.54    0.09
  15  -3  -4    0.56    0.09
 -15   3   4    0.72    0.10
  15   3  -4    0.60    0.09
 -15   3   4    0.62    0.09
  14  -3  -4    0.12    0.06
 -14  -3   4    0.01    0.05
  14   3  -4    0.01    0.05
 -14   3   4    0.04    0.05
 -14   3   4    0.07    0.06
  13  -3  -4    1.37    0.11
 -13  -3   4    1.37    0.11
 -13   3   4    1.30    0.11
 -13   3   4    1.24    0.11
  12  -3  -4   13.64    0.38
 -12  -3   4   13.71    0.39
 -12  -3   4   14.16    0.38
 -12   3   4   13.98    0.39
 -12   3   4   13.54    0.39
 -11  -3   4   32.40    0.74
 -11  -3   4   31.78    0.72
  11  -3  -4   30.62    0.73
 -11   3   4   30.90    0.74
 -11   3   4   30.57    0.73
 -10  -3   4   21.28    0.51
 -10  -3   4   22.32    0.53
  10  -3  -4   20.97    0.52
 -10   3   4   21.13    0.52
 -10   3   4   21.77    0.54
   9  -3  -4    8.39    0.25
  -9  -3   4    9.22    0.27
  -9  -3   4    8.49    0.24
  -9   3   4    8.53    0.25
  -9   3   4    8.69    0.27
  -8  -3   4   -0.01    0.01
   8  -3  -4    0.01    0.04
  -8  -3   4    0.08    0.04
  -8   3   4    0.09    0.04
  -8   3   4    0.02    0.05
  -7  -3   4   29.64    0.66
   7  -3  -4   29.39    0.67
  -7   3   4   29.83    0.67
  -7   3   4   30.17    0.68
  -6  -3   4   31.98    0.68
   6  -3  -4   32.97    0.72
  -6  -3   4   32.25    0.70
  -6   3   4   33.02    0.73
  -6   3   4   32.19    0.71
  -5  -3   4   22.18    0.49
  -5  -3   4   22.39    0.52
   5  -3  -4   22.39    0.51
  -5  -3   4   22.89    0.48
  -5   3   4   21.93    0.50
  -4  -3   4   41.07    0.88
  -4  -3   4   43.14    0.91
   4  -3  -4   42.29    0.90
   4   3  -4   41.17    0.87
  -4   3   4   41.85    0.90
  -4   3   4   43.35    0.92
  -3  -3   4    3.26    0.09
  -3  -3   4    3.29    0.12
   3  -3  -4    3.19    0.11
   3   3  -4    3.15    0.10
  -3   3   4    3.25    0.12
  -2  -3   4    0.23    0.04
   2  -3  -4    0.17    0.04
   2  -3  -4    0.03    0.02
  -2  -3   4    0.12    0.02
  -2   3   4    0.16    0.04
   2   3  -4    0.11    0.03
  -1  -3   4   24.97    0.55
  -1  -3   4   24.37    0.50
   1  -3  -4   24.71    0.54
   1   3  -4   23.80    0.53
  -1   3   4   24.27    0.54
   0  -3  -4   14.56    0.34
   0  -3   4   15.00    0.35
   0   3   4   14.57    0.34
   0   3  -4   14.59    0.34
  -1  -3  -4   65.69    1.38
   1  -3   4   67.38    1.39
   1   3   4   65.32    1.38
  -1   3  -4   67.24    1.39
  -2  -3  -4   16.97    0.39
   2  -3   4   16.94    0.40
   2   3   4   16.38    0.38
  -2   3  -4   17.33    0.40
   3  -3   4   64.60    1.35
  -3  -3  -4   63.70    1.34
   3  -3   4   63.62    1.30
   3   3   4   63.21    1.32
  -3   3  -4   65.21    1.35
   4  -3   4    4.49    0.15
  -4  -3  -4    4.44    0.13
   4  -3   4    4.34    0.11
  -4  -3  -4    4.58    0.15
   4   3   4    4.55    0.12
   5  -3   4    0.04    0.02
  -5  -3  -4    0.00    0.03
  -5  -3  -4    0.00    0.03
  -5   3  -4    0.05    0.04
   5   3   4    0.07    0.03
  -6  -3  -4    0.02    0.03
   6  -3   4    0.03    0.02
  -6  -3  -4   -0.01    0.04
   6   3   4    0.04    0.02
  -6   3  -4    0.01    0.03
  -6   3  -4    0.06    0.04
  -7  -3  -4   12.77    0.31
   7  -3   4   12.81    0.30
  -7  -3  -4   12.01    0.33
  -7   3  -4   12.65    0.33
  -7   3  -4   12.73    0.33
  -8  -3  -4   26.74    0.60
  -8  -3  -4   26.36    0.62
   8  -3   4   27.46    0.59
  -8   3  -4   25.70    0.62
  -8   3  -4   26.72    0.62
  -9  -3  -4   22.62    0.53
   9  -3   4   23.28    0.52
  -9  -3  -4   22.70    0.55
  -9   3  -4   23.16    0.55
  -9   3  -4   22.82    0.55
  10  -3   4    5.95    0.19
 -10  -3  -4    5.82    0.21
 -10  -3  -4    5.92    0.19
 -10   3  -4    6.02    0.21
 -10   3  -4    5.88    0.21
  11  -3   4    5.62    0.19
 -11  -3  -4    5.49    0.19
 -11  -3  -4    5.41    0.21
 -11   3  -4    5.76    0.21
 -11   3  -4    5.76    0.21
  12  -3   4    0.31    0.06
 -12  -3  -4    0.37    0.06
 -12  -3  -4    0.23    0.06
 -12   3  -4    0.33    0.07
 -12   3  -4    0.35    0.07
  13  -3   4    0.01    0.04
 -13  -3  -4    0.00    0.04
 -13  -3  -4    0.00    0.05
 -13   3  -4   -0.01    0.05
 -13   3  -4    0.09    0.05
  14  -3   4    1.81    0.18
 -14  -3  -4    1.72    0.14
 -14  -3  -4    1.70    0.12
 -14   3  -4    1.72    0.13
 -14   3  -4    1.72    0.13
 -15  -3  -4    0.79    0.10
 -15  -3  -4    0.77    0.10
 -15   3  -4    0.96    0.11
 -16  -3  -4    2.22    0.15
 -16  -3  -4    2.19    0.19
 -16   3  -4    2.19    0.16
  17  -4  -4    2.69    0.20
 -16  -4   4    4.61    0.23
  16  -4  -4    4.85    0.23
 -16   4   4    4.92    0.23
  16   4  -4    4.69    0.22
 -16   4   4    4.48    0.22
 -15  -4   4    4.80    0.22
  15  -4  -4    5.15    0.23
  15   4  -4    5.10    0.22
 -15   4   4    4.97    0.23
 -15   4   4    5.02    0.23
 -14  -4   4   14.97    0.43
  14  -4  -4   14.09    0.42
 -14   4   4   14.21    0.43
 -14   4   4   14.61    0.43
 -13  -4   4    0.59    0.08
 -13  -4   4    0.51    0.09
  13  -4  -4    0.61    0.09
 -13   4   4    0.57    0.09
 -13   4   4    0.50    0.08
 -12  -4   4    0.08    0.06
  12  -4  -4    0.06    0.05
 -12  -4   4    0.05    0.05
 -12   4   4    0.01    0.06
 -12   4   4   -0.03    0.05
  11  -4  -4    0.76    0.09
 -11  -4   4    0.75    0.09
 -11  -4   4    0.65    0.08
 -11   4   4    0.62    0.08
 -11   4   4    0.73    0.10
 -10  -4   4    0.18    0.05
  10  -4  -4    0.18    0.05
 -10  -4   4    0.26    0.07
 -10   4   4    0.23    0.07
 -10   4   4    0.18    0.05
  -9  -4   4   -0.01    0.04
   9  -4  -4    0.02    0.04
  -9  -4   4    0.00    0.05
  -9   4   4    0.01    0.04
  -9   4   4   -0.03    0.05
  -8  -4   4    0.09    0.04
   8  -4  -4   -0.04    0.04
  -8  -4   4    0.00    0.05
  -8   4   4    0.10    0.05
  -8   4   4    0.01    0.05
  -7  -4   4    1.47    0.08
  -7  -4   4    1.10    0.10
   7  -4  -4    1.30    0.09
  -7   4   4    1.61    0.10
  -7   4   4    1.48    0.12
  -6  -4   4    6.09    0.18
   6  -4  -4    6.02    0.19
  -6   4   4    6.28    0.19
   5  -4  -4   15.52    0.38
  -5  -4   4   15.57    0.36
   5   4  -4   15.57    0.34
   4  -4  -4   39.36    0.84
  -4  -4   4   38.36    0.82
   4  -4  -4   37.68    0.84
  -4   4   4   39.67    0.86
   4   4  -4   38.45    0.81
  -3  -4   4    0.08    0.02
   3  -4  -4    0.00    0.03
  -3  -4   4   -0.01    0.03
   3  -4  -4    0.03    0.03
  -3   4   4    0.01    0.05
   3   4  -4    0.02    0.03
   2  -4  -4   56.45    1.18
   2  -4  -4   56.07    1.18
  -2  -4   4   51.88    1.19
  -2  -4   4   57.52    1.15
   2   4  -4   56.38    1.17
  -2   4   4   57.31    1.20
  -1  -4   4   14.15    0.30
   1  -4  -4   13.66    0.34
   1  -4  -4   14.26    0.34
  -1  -4   4   14.57    0.36
  -1   4   4   14.50    0.35
   1   4  -4   13.53    0.33
   0  -4  -4   66.19    1.41
   0  -4   4   68.76    1.43
   0  -4   4   68.87    1.36
   0  -4  -4   67.32    1.42
   0   4  -4   67.90    1.41
   0   4   4   65.79    1.41
   1  -4   4    0.13    0.05
  -1  -4  -4    0.19    0.04
  -1  -4  -4    0.20    0.04
   1   4   4    0.17    0.04
  -1   4  -4    0.17    0.04
   2  -4   4    1.13    0.08
  -2  -4  -4    1.24    0.08
  -2  -4  -4    1.22    0.07
   2   4   4    1.21    0.07
  -2   4  -4    1.15    0.08
   3  -4   4    1.27    0.04
   3  -4   4    1.49    0.09
  -3  -4  -4    1.32    0.08
  -3  -4  -4    1.43    0.08
  -3   4  -4    1.36    0.09
   3   4   4    1.38    0.07
  -4  -4  -4   13.25    0.34
   4  -4   4   13.24    0.29
   4  -4   4   12.95    0.34
  -4  -4  -4   13.36    0.32
   4   4   4   13.10    0.31
  -4   4  -4   13.81    0.35
  -5  -4  -4    2.79    0.11
  -5  -4  -4    2.61    0.12
   5  -4   4    2.65    0.08
   5  -4   4    2.75    0.13
   5   4   4    2.83    0.09
  -6  -4  -4   13.05    0.34
   6  -4   4   13.05    0.29
  -6  -4  -4   12.74    0.32
   6  -4   4   12.96    0.34
  -6   4  -4   11.56    0.33
   7  -4   4    2.22    0.12
  -7  -4  -4    1.97    0.11
  -7  -4  -4    2.09    0.11
   7  -4   4    1.99    0.09
  -7   4  -4    2.10    0.12
  -8  -4  -4    0.66    0.07
  -8  -4  -4    0.53    0.07
  -8   4  -4    0.56    0.08
  -9  -4  -4    1.58    0.10
  -9  -4  -4    1.53    0.11
  -9   4  -4    1.47    0.11
  -9   4  -4    1.80    0.12
 -10  -4  -4    0.11    0.05
 -10  -4  -4    0.07    0.05
 -10   4  -4    0.11    0.05
 -10   4  -4    0.10    0.06
 -11  -4  -4    7.68    0.24
 -11  -4  -4    7.44    0.26
 -11   4  -4    7.18    0.26
 -11   4  -4    7.52    0.26
 -12  -4  -4   11.91    0.34
 -12  -4  -4   11.46    0.35
 -12   4  -4   12.18    0.36
 -12   4  -4   11.48    0.35
 -13  -4  -4    6.12    0.22
 -13  -4  -4    5.75    0.23
 -13   4  -4    5.89    0.24
 -13   4  -4    5.83    0.24
 -14  -4  -4    8.80    0.31
 -14  -4  -4    9.03    0.29
 -14   4  -4    9.35    0.31
 -14   4  -4    8.76    0.31
 -15  -4  -4    1.33    0.13
 -15  -4  -4    1.39    0.14
 -15   4  -4    1.37    0.14
 -15   4  -4    1.55    0.14
 -15  -5   4    0.53    0.10
  15  -5  -4    0.40    0.08
 -15   5   4    0.46    0.09
 -15   5   4    0.44    0.10
 -14  -5   4    0.06    0.07
  14  -5  -4    0.02    0.06
 -14  -5   4    0.03    0.07
 -14   5   4    0.05    0.06
 -14   5   4   -0.06    0.07
 -13  -5   4    0.06    0.07
 -13  -5   4    0.13    0.07
  13  -5  -4    0.13    0.06
 -13   5   4    0.16    0.07
 -13   5   4    0.15    0.08
 -12  -5   4    3.38    0.16
  12  -5  -4    3.62    0.17
 -12  -5   4    3.81    0.19
 -12   5   4    3.95    0.20
 -12   5   4    3.53    0.18
 -11  -5   4    3.22    0.17
  11  -5  -4    3.72    0.17
 -11  -5   4    3.59    0.16
 -11   5   4    3.73    0.19
 -11   5   4    3.37    0.17
 -10  -5   4    3.69    0.18
  10  -5  -4    3.74    0.16
 -10  -5   4    3.51    0.15
 -10   5   4    3.70    0.19
 -10   5   4    3.43    0.17
   9  -5  -4    9.07    0.27
  -9  -5   4    9.16    0.26
  -9  -5   4    9.14    0.29
  -9   5   4    9.14    0.30
  -9   5   4    9.13    0.29
  -8  -5   4    0.95    0.10
  -8  -5   4    0.94    0.08
   8  -5  -4    1.14    0.09
  -8   5   4    0.95    0.10
  -7  -5   4    0.02    0.05
   7  -5  -4    0.10    0.04
   7  -5  -4   -0.02    0.04
  -7  -5   4    0.02    0.03
  -7   5   4   -0.04    0.05
  -6  -5   4    1.60    0.09
   6  -5  -4    1.70    0.10
  -6  -5   4    1.72    0.12
   6  -5  -4    1.73    0.11
  -6   5   4    1.91    0.13
   5  -5  -4    6.45    0.21
  -5  -5   4    6.54    0.18
  -5  -5   4    6.46    0.22
   5  -5  -4    6.55    0.20
  -5   5   4    6.97    0.23
  -4  -5   4    0.61    0.07
   4  -5  -4    0.71    0.07
  -4  -5   4    0.69    0.06
   4  -5  -4    0.67    0.07
  -4   5   4    0.91    0.09
   4   5  -4    0.68    0.06
   3  -5  -4    2.69    0.12
  -3  -5   4    2.56    0.09
   3  -5  -4    2.63    0.12
  -3   5   4    2.59    0.14
   3   5  -4    2.51    0.10
   2  -5  -4    5.59    0.18
   2  -5  -4    5.27    0.18
  -2  -5   4    5.69    0.15
  -2   5   4    5.98    0.20
   2   5  -4    5.50    0.17
   1  -5  -4    0.33    0.06
   1  -5  -4    0.46    0.06
   1   5  -4    0.46    0.06
  -1   5   4    0.67    0.08
   0  -5  -4    0.27    0.05
   0  -5  -4    0.28    0.05
   0   5  -4    0.35    0.05
   0   5   4    0.33    0.06
  -1  -5  -4    3.97    0.14
  -1  -5  -4    4.02    0.15
  -1   5  -4    4.02    0.15
   1   5   4    3.93    0.15
  -2  -5  -4   -0.03    0.04
  -2  -5  -4    0.04    0.04
   2  -5   4   -0.02    0.05
   2   5   4    0.04    0.04
  -2   5  -4    0.02    0.04
  -3  -5  -4    0.55    0.06
  -3  -5  -4    0.53    0.06
   3  -5   4    0.51    0.07
  -3   5  -4    0.55    0.07
   3   5   4    0.51    0.06
  -4  -5  -4    1.43    0.09
  -4  -5  -4    1.15    0.09
   4  -5   4    1.15    0.10
  -4   5  -4    1.22    0.10
   4   5   4    1.18    0.08
   5  -5   4    0.30    0.07
  -5  -5  -4    0.24    0.06
  -5   5  -4    0.22    0.06
   6  -5   4    9.89    0.30
  -6  -5  -4    9.74    0.28
  -6  -5  -4   10.01    0.28
  -6   5  -4    9.82    0.30
  -7  -5  -4    9.53    0.27
  -7  -5  -4    9.11    0.28
   7  -5   4    9.98    0.30
  -7   5  -4    9.18    0.29
  -8  -5  -4    1.12    0.10
   8  -5   4    1.08    0.11
  -8  -5  -4    1.12    0.09
  -8   5  -4    1.13    0.11
  -9  -5  -4    1.16    0.10
  -9  -5  -4    1.04    0.10
   9  -5   4    1.41    0.12
  -9   5  -4    1.52    0.12
 -10  -5  -4    0.22    0.06
 -10  -5  -4    0.17    0.06
  10  -5   4    0.25    0.07
 -10   5  -4    0.18    0.07
  11  -5   4    0.45    0.09
 -11  -5  -4    0.20    0.06
 -11  -5  -4    0.19    0.06
 -11   5  -4    0.39    0.08
 -12  -5  -4    0.14    0.07
 -12  -5  -4    0.14    0.06
 -12   5  -4    0.13    0.07
 -13  -5  -4   -0.01    0.06
 -13  -5  -4    0.03    0.06
 -13   5  -4   -0.01    0.06
 -14  -5  -4    0.03    0.07
 -14   5  -4    0.16    0.08
 -14  -6   4    2.53    0.16
 -14   6   4    2.77    0.30
 -14   6   4    2.79    0.30
 -13  -6   4    1.91    0.15
 -13  -6   4    2.26    0.15
 -13   6   4    2.08    0.17
 -12  -6   4    0.04    0.05
 -12  -6   4    0.03    0.07
 -12   6   4    0.08    0.08
  11  -6  -4    0.70    0.10
  11  -6  -4    0.68    0.10
 -11  -6   4    0.84    0.09
 -11  -6   4    0.76    0.11
 -11   6   4    0.71    0.11
 -10  -6   4    0.63    0.10
 -10  -6   4    0.67    0.08
  10  -6  -4    0.74    0.10
  10  -6  -4    0.74    0.09
 -10   6   4    0.58    0.10
  -9  -6   4    0.29    0.07
  -9  -6   4    0.23    0.07
   9  -6  -4    0.25    0.07
   9  -6  -4    0.27    0.06
  -9   6   4    0.16    0.07
   8  -6  -4    1.38    0.11
  -8  -6   4    1.30    0.12
   8  -6  -4    1.45    0.10
  -8   6   4    1.47    0.13
   7  -6  -4    4.01    0.18
   7  -6  -4    3.81    0.16
  -7  -6   4    4.06    0.18
  -7   6   4    3.97    0.19
   6  -6  -4    5.89    0.20
   6  -6  -4    5.43    0.21
  -6  -6   4    6.02    0.23
  -6   6   4    6.04    0.23
   5  -6  -4   12.28    0.35
  -5  -6   4   13.18    0.36
   5  -6  -4   12.13    0.33
  -5   6   4   12.63    0.37
   4  -6  -4    1.06    0.08
   4  -6  -4    1.11    0.10
  -4  -6   4    0.94    0.09
  -4   6   4    1.07    0.10
  -3  -6   4    2.22    0.14
   3  -6  -4    2.12    0.11
   3  -6  -4    2.51    0.13
  -3   6   4    2.01    0.13
   3   6  -4    2.34    0.10
   2  -6  -4    9.82    0.29
  -2  -6   4   10.27    0.31
   2  -6  -4   10.20    0.28
  -2   6   4   10.14    0.30
   2   6  -4   10.34    0.27
  -1  -6   4   55.50    1.22
   1  -6  -4   54.23    1.18
   1  -6  -4   54.41    1.19
  -1   6   4   55.48    1.20
   1   6  -4   55.09    1.18
   0  -6  -4    0.13    0.05
   0  -6   4    0.01    0.06
   0  -6  -4    0.10    0.04
   0   6  -4    0.11    0.04
   0   6   4    0.12    0.05
  -1  -6  -4   15.91    0.41
  -1  -6  -4   16.12    0.40
   1  -6   4   15.87    0.43
  -1   6  -4   15.92    0.41
   1   6   4   16.70    0.41
   2  -6   4    5.59    0.21
  -2  -6  -4    5.55    0.19
  -2  -6  -4    5.38    0.19
  -2   6  -4    5.37    0.19
   2   6   4    5.60    0.18
   3  -6   4    5.61    0.22
  -3  -6  -4    5.49    0.19
  -3  -6  -4    5.69    0.19
  -3   6  -4    5.57    0.20
  -4  -6  -4    6.59    0.22
   4  -6   4    6.68    0.24
  -4  -6  -4    6.72    0.22
  -4   6  -4    6.79    0.23
   5  -6   4    0.36    0.08
  -5  -6  -4    0.35    0.06
  -5  -6  -4    0.29    0.06
  -5   6  -4    0.20    0.06
   6  -6   4    0.39    0.08
  -6  -6  -4    0.44    0.07
  -6  -6  -4    0.34    0.07
  -6   6  -4    0.42    0.07
  -7  -6  -4    0.10    0.05
  -7  -6  -4    0.17    0.06
   7  -6   4    0.19    0.07
  -7   6  -4    0.16    0.06
  -8  -6  -4    0.26    0.06
  -8  -6  -4    0.20    0.06
   8  -6   4    0.21    0.07
  -8   6  -4    0.17    0.06
   9  -6   4    2.05    0.15
  -9  -6  -4    2.17    0.13
  -9  -6  -4    1.90    0.13
  -9   6  -4    1.92    0.14
 -10  -6  -4    0.74    0.09
  10  -6   4    0.83    0.11
 -10  -6  -4    0.58    0.08
 -10   6  -4    0.56    0.09
  11  -6   4    3.13    0.19
 -11  -6  -4    3.16    0.18
 -11   6  -4    3.39    0.19
  12  -6   4    5.20    0.24
 -12  -6  -4    5.34    0.23
 -12   6  -4    4.80    0.23
 -13  -6  -4    5.53    0.24
 -13   6  -4    5.61    0.28
  12  -7  -4    4.13    0.22
 -12  -7   4    4.42    0.33
 -11  -7   4    9.78    0.35
  11  -7  -4    9.22    0.34
 -11   7   4    9.97    0.35
 -10  -7   4    9.13    0.32
  10  -7  -4    8.76    0.32
 -10   7   4    9.10    0.33
   9  -7  -4    0.96    0.11
  -9  -7   4    0.85    0.12
  -9   7   4    0.79    0.11
   8  -7  -4    0.19    0.07
  -8  -7   4    0.19    0.08
  -8   7   4    0.17    0.08
   7  -7  -4    3.52    0.18
  -7  -7   4    3.41    0.18
  -7   7   4    3.96    0.20
   6  -7  -4    7.27    0.26
  -6  -7   4    7.59    0.27
  -6   7   4    7.50    0.28
   5  -7  -4   18.32    0.49
  -5  -7   4   18.14    0.50
  -5   7   4   19.17    0.50
   4  -7  -4    3.04    0.16
   4  -7  -4    3.04    0.14
  -4  -7   4    2.78    0.16
  -4   7   4    2.71    0.16
  -3  -7   4    1.59    0.13
   3  -7  -4    1.37    0.10
   3  -7  -4    1.47    0.11
  -3   7   4    1.43    0.12
   2  -7  -4    0.09    0.05
   2  -7  -4    0.12    0.06
  -2  -7   4    0.05    0.06
  -2   7   4    0.11    0.06
   2   7  -4    0.21    0.05
  -1  -7   4    1.41    0.12
   1  -7  -4    1.36    0.10
   1  -7  -4    1.51    0.11
   1   7  -4    1.39    0.10
  -1   7   4    1.29    0.11
   0  -7  -4    0.12    0.05
   0  -7  -4    0.09    0.06
   0  -7   4    0.05    0.06
   0   7   4    0.08    0.05
   0   7  -4    0.01    0.04
  -1  -7  -4    1.93    0.11
   1  -7   4    2.07    0.14
  -1  -7  -4    2.12    0.13
   1   7   4    1.93    0.12
  -1   7  -4    1.85    0.12
  -2  -7  -4    2.51    0.13
  -2  -7  -4    2.40    0.14
   2  -7   4    2.70    0.15
  -2   7  -4    2.50    0.14
  -3  -7  -4   10.55    0.31
   3  -7   4   10.52    0.34
  -3  -7  -4   10.65    0.31
  -3   7  -4   10.59    0.32
  -4  -7  -4   10.79    0.31
  -4  -7  -4   10.70    0.31
   4  -7   4   10.31    0.34
  -4   7  -4   10.22    0.32
   5  -7   4    2.39    0.16
  -5  -7  -4    2.21    0.13
  -5  -7  -4    2.38    0.14
  -5   7  -4    2.37    0.15
  -6  -7  -4    0.29    0.06
   6  -7   4    0.20    0.08
  -6  -7  -4    0.24    0.07
  -6   7  -4    0.23    0.07
  -7  -7  -4   15.74    0.43
   7  -7   4   15.43    0.46
  -7  -7  -4   16.01    0.43
  -7   7  -4   16.20    0.46
  -8  -7  -4   10.26    0.41
  -8  -7  -4    9.83    0.31
   8  -7   4    9.27    0.34
  -8   7  -4    9.55    0.33
  -9  -7  -4    3.14    0.17
   9  -7   4    3.17    0.19
  -9   7  -4    3.01    0.18
  10  -7   4    4.00    0.22
 -10  -7  -4    3.90    0.19
 -10   7  -4    3.98    0.21
  11  -7   4    3.46    0.30
 -11  -7  -4    3.58    0.19
 -11   7  -4    3.50    0.30
  10  -8  -4    0.13    0.09
   9  -8  -4    3.75    0.21
  -9  -8   4    3.77    0.21
  -9   8   4    3.76    0.22
  -8  -8   4    0.06    0.08
   8  -8  -4    0.15    0.07
  -8   8   4    0.02    0.07
  -7  -8   4   -0.01    0.07
   7  -8  -4    0.13    0.07
  -7   8   4   -0.10    0.06
  -6  -8   4    1.23    0.13
   6  -8  -4    1.16    0.13
  -6   8   4    0.98    0.13
   5  -8  -4    0.73    0.10
  -5  -8   4    0.67    0.11
  -5   8   4    0.63    0.11
   4  -8  -4    0.15    0.07
  -4  -8   4    0.00    0.07
  -4   8   4   -0.03    0.06
   3  -8  -4    0.05    0.06
  -3  -8   4    0.01    0.07
  -3   8   4   -0.01    0.06
  -2  -8   4    2.06    0.15
   2  -8  -4    1.84    0.14
  -2   8   4    1.78    0.14
  -1  -8   4    0.20    0.08
   1  -8  -4    0.37    0.08
  -1   8   4    0.22    0.07
   0  -8  -4    1.26    0.12
   0  -8   4    1.07    0.12
   0   8  -4    1.06    0.10
   1  -8   4    1.52    0.14
  -1  -8  -4    1.38    0.12
  -1   8  -4    1.37    0.12
  -2  -8  -4   -0.06    0.05
   2  -8   4   -0.02    0.06
  -2   8  -4    0.04    0.05
  -3  -8  -4    0.01    0.06
   3  -8   4    0.05    0.07
  -3   8  -4   -0.04    0.05
   4  -8   4    0.57    0.10
  -4  -8  -4    0.54    0.09
  -4   8  -4    0.55    0.09
   5  -8   4    0.25    0.09
  -5  -8  -4    0.24    0.09
  -5   8  -4    0.28    0.08
  -6  -8  -4    4.82    0.21
   6  -8   4    4.94    0.24
  -6   8  -4    4.73    0.22
   7  -8   4    0.06    0.08
  -7  -8  -4    0.02    0.06
  -7   8  -4    0.09    0.07
   8  -8   4    1.21    0.14
  -8  -8  -4    1.20    0.12
  -8   8  -4    1.16    0.13
  -9  -8  -4    0.73    0.10
 -10  -8  -4   -0.03    0.06
   6  -9  -4    0.42    0.10
  -6   9   4    0.28    0.11
   5  -9  -4    0.11    0.07
  -5   9   4   -0.05    0.07
  -4  -9   4    0.21    0.09
   4  -9  -4    0.21    0.08
  -4   9   4    0.06    0.07
  -3  -9   4    0.26    0.09
   3  -9  -4    0.20    0.08
  -3   9   4    0.17    0.08
   2  -9  -4    0.51    0.10
  -2  -9   4    0.42    0.10
  -1  -9   4    3.02    0.20
   1  -9  -4    3.47    0.19
   0  -9  -4    0.52    0.10
   0  -9   4    0.59    0.11
   1  -9   4    0.43    0.10
   2  -9   4    0.04    0.08
  -2   9  -4    0.14    0.07
   3  -9   4    5.77    0.27
  -3   9  -4    5.48    0.24
  -4   9  -4    0.60    0.10
  -5   9  -4   -0.02    0.07
  17   0  -5    0.02    0.07
 -17   0   5    0.01    0.05
 -16   0   5    0.03    0.05
  16   0  -5   -0.08    0.06
  15   0  -5    0.05    0.06
 -15   0   5    0.01    0.04
 -14   0   5   -0.03    0.04
  14   0  -5    0.02    0.06
  13   0  -5   -0.03    0.05
 -13   0   5    0.01    0.04
  12   0  -5    0.00    0.05
 -12   0   5    0.00    0.04
  11   0  -5    0.01    0.05
 -11   0   5    0.08    0.05
 -11   0   5   -0.03    0.03
 -10   0   5    0.00    0.04
  10   0  -5    0.00    0.04
 -10   0   5   -0.02    0.04
   9   0  -5   -0.01    0.02
  -9   0   5    0.06    0.04
  -9   0   5    0.02    0.03
  -8   0   5    0.00    0.03
  -8   0   5    0.03    0.04
   8   0  -5    0.01    0.03
  -7   0   5   -0.01    0.03
   7   0  -5    0.01    0.03
  -7   0   5    0.01    0.02
  -6   0   5    0.03    0.03
   6   0  -5   -0.03    0.02
  -6   0   5    0.01    0.02
   5   0  -5   -0.06    0.02
  -5   0   5   -0.02    0.02
  -5   0   5   -0.02    0.02
  -4   0   5   -0.04    0.01
  -4   0   5   -0.04    0.02
   4   0  -5   -0.04    0.02
  -3   0   5   -0.15    0.02
  -3   0   5   -0.11    0.02
   3   0  -5   -0.16    0.02
   2   0  -5    0.02    0.02
  -2   0   5    0.02    0.01
  -2   0   5    0.02    0.02
  -1   0   5    0.09    0.02
  -1   0   5    0.00    0.01
   1   0  -5    0.01    0.02
   0   0   5    0.02    0.02
   0   0  -5    0.11    0.02
   0   0   5    0.02    0.01
  -1   0  -5    0.06    0.02
   1   0   5   -0.03    0.02
   1   0   5   -0.02    0.01
  -2   0  -5   -0.06    0.02
  -2   0  -5   -0.05    0.02
  -2   0  -5   -0.06    0.01
  -3   0  -5   -0.01    0.02
  -3   0  -5    0.01    0.01
  -3   0  -5   -0.01    0.01
  -4   0  -5    0.00    0.02
  -4   0  -5    0.02    0.01
  -4   0  -5    0.00    0.02
  -5   0  -5    0.00    0.02
  -5   0  -5   -0.04    0.02
  -5   0  -5    0.01    0.01
  -6   0  -5   -0.01    0.02
  -6   0  -5   -0.02    0.02
  -6   0  -5   -0.01    0.03
  -7   0  -5    0.00    0.02
  -7   0  -5    0.00    0.03
  -7   0  -5    0.09    0.03
  -8   0  -5    0.04    0.04
  -8   0  -5    0.03    0.03
  -8   0  -5   -0.01    0.03
  -9   0  -5   -0.01    0.03
  -9   0  -5   -0.01    0.03
  -9   0  -5    0.04    0.04
 -10   0  -5    0.08    0.04
 -10   0  -5    0.00    0.03
 -10   0  -5    0.00    0.04
 -11   0  -5   -0.02    0.03
 -11   0  -5   -0.01    0.04
 -12   0  -5    0.01    0.04
 -12   0  -5    0.13    0.05
 -13   0  -5    0.00    0.04
 -13   0  -5   -0.02    0.05
 -14   0  -5    0.03    0.05
 -14   0  -5   -0.01    0.05
 -15   0  -5    0.07    0.05
 -15   0  -5    0.06    0.06
 -16   0  -5    0.02    0.05
 -16   0  -5    0.01    0.06
 -17   0  -5   -0.04    0.05
  17  -1  -5    3.84    0.21
 -17  -1   5    3.94    0.20
  17   1  -5    4.01    0.21
 -17   1   5    3.84    0.20
 -16  -1   5    0.62    0.10
  16  -1  -5    0.47    0.09
  16   1  -5    0.55    0.09
 -16   1   5    0.60    0.09
  15  -1  -5    2.22    0.15
 -15  -1   5    2.19    0.14
 -15   1   5    2.22    0.14
  15   1  -5    2.31    0.15
 -14  -1   5    0.14    0.05
  14  -1  -5    0.17    0.06
 -14   1   5    0.21    0.06
  14   1  -5    0.21    0.07
 -13  -1   5    0.78    0.08
  13  -1  -5    0.74    0.09
 -13   1   5    0.87    0.09
 -13   1   5    0.83    0.09
  13   1  -5    0.80    0.09
 -12  -1   5    0.34    0.06
  12  -1  -5    0.25    0.06
 -12   1   5    0.28    0.06
 -12   1   5    0.31    0.06
  12   1  -5    0.23    0.06
 -11  -1   5   19.74    0.49
  11  -1  -5   19.56    0.49
  11   1  -5   20.37    0.49
 -11   1   5   19.41    0.49
 -11   1   5   19.79    0.48
 -10  -1   5    0.52    0.07
  10  -1  -5    0.51    0.07
 -10  -1   5    0.48    0.05
 -10   1   5    0.60    0.07
  10   1  -5    0.55    0.07
 -10   1   5    0.46    0.07
  -9  -1   5    6.63    0.18
  -9  -1   5    6.27    0.20
  -9   1   5    6.31    0.20
  -9   1   5    6.52    0.20
   9   1  -5    6.32    0.20
   8  -1  -5    1.76    0.10
  -8  -1   5    2.07    0.10
   8   1  -5    2.02    0.10
  -8   1   5    1.88    0.09
  -8   1   5    1.75    0.10
  -7  -1   5   15.59    0.36
   7  -1  -5   12.55    0.35
  -7   1   5   15.34    0.36
   7   1  -5   15.43    0.36
  -7   1   5   15.14    0.36
  -6  -1   5   57.42    1.19
  -6   1   5   56.39    1.18
  -6   1   5   55.76    1.19
   6   1  -5   56.13    1.18
  -5  -1   5   86.19    1.78
  -5  -1   5   88.43    1.77
  -5   1   5   86.50    1.78
   5   1  -5   84.46    1.77
  -5   1   5   85.36    1.82
  -4  -1   5   14.00    0.32
  -4  -1   5   13.89    0.32
  -4   1   5   14.26    0.32
  -4   1   5   14.17    0.33
  -3  -1   5   32.58    0.68
  -3  -1   5   32.31    0.68
   3   1  -5   32.03    0.67
  -3   1   5   31.59    0.67
  -2  -1   5   12.72    0.29
  -2  -1   5   12.74    0.29
  -2   1   5   13.07    0.28
   2   1  -5   12.90    0.28
  -1  -1   5    5.19    0.13
  -1   1   5    5.07    0.15
   1   1  -5    5.16    0.12
  -1   1   5    5.41    0.12
   0  -1   5   29.10    0.60
   0   1  -5   28.28    0.61
   0   1   5   28.39    0.62
   0   1  -5   29.43    0.60
   1  -1   5    7.41    0.18
   1   1   5    7.43    0.19
  -1   1  -5    7.66    0.17
   2  -1   5    6.78    0.17
  -2  -1  -5    6.85    0.15
  -2   1  -5    6.81    0.16
   2   1   5    6.54    0.17
  -3  -1  -5    1.92    0.06
  -3  -1  -5    1.85    0.08
  -3   1  -5    1.82    0.07
  -3   1  -5    1.82    0.06
  -3   1  -5    1.71    0.07
   3   1   5    1.85    0.07
  -4  -1  -5    0.86    0.06
  -4  -1  -5    0.80    0.04
   4   1   5    0.79    0.04
  -4   1  -5    0.78    0.05
  -4   1  -5    0.73    0.04
  -5  -1  -5   14.43    0.34
  -5   1  -5   13.52    0.32
   5   1   5   14.30    0.32
  -5   1  -5   13.89    0.33
  -5   1  -5   14.03    0.32
  -6  -1  -5    0.64    0.06
  -6  -1  -5    0.63    0.05
  -6   1  -5    0.52    0.05
  -6   1  -5    0.63    0.05
  -6   1  -5    0.59    0.05
  -7  -1  -5   25.16    0.57
  -7  -1  -5   24.98    0.55
  -7  -1  -5   24.39    0.54
  -7   1  -5   24.92    0.56
  -7   1  -5   24.95    0.56
  -7   1  -5   24.72    0.55
  -8  -1  -5   42.25    0.92
  -8  -1  -5   42.59    0.88
  -8  -1  -5   41.83    0.90
  -8   1  -5   41.53    0.91
  -8   1  -5   41.38    0.91
  -8   1  -5   42.19    0.90
  -9  -1  -5   13.73    0.34
  -9  -1  -5   13.75    0.35
  -9  -1  -5   13.59    0.32
  -9   1  -5   13.61    0.34
  -9   1  -5   13.52    0.35
  -9   1  -5   13.92    0.34
 -10  -1  -5   55.16    1.20
 -10  -1  -5   56.31    1.19
 -10   1  -5   54.71    1.19
 -10   1  -5   55.94    1.20
 -10   1  -5   55.57    1.20
 -11  -1  -5    0.52    0.06
 -11  -1  -5    0.61    0.07
 -11   1  -5    0.60    0.07
 -11   1  -5    0.58    0.06
 -11   1  -5    0.59    0.07
 -12  -1  -5    0.01    0.05
 -12  -1  -5    0.02    0.04
 -12   1  -5    0.02    0.04
 -12   1  -5    0.05    0.04
 -12   1  -5    0.02    0.04
 -13  -1  -5    0.04    0.05
 -13  -1  -5    0.00    0.04
 -13   1  -5    0.01    0.04
 -13   1  -5   -0.06    0.04
 -14  -1  -5    0.98    0.09
 -14  -1  -5    1.30    0.12
 -14   1  -5    1.23    0.11
 -14   1  -5    1.03    0.10
 -15  -1  -5    0.42    0.08
 -15  -1  -5    0.71    0.09
 -15   1  -5    0.48    0.08
 -16  -1  -5    2.48    0.16
  16  -1   5    2.65    0.15
 -16  -1  -5    2.48    0.15
 -16   1  -5    2.36    0.15
 -17  -1  -5    0.87    0.11
  17  -1   5    0.79    0.10
 -17   1  -5    0.74    0.10
  17  -2  -5    1.89    0.16
 -17  -2   5    1.74    0.14
 -17   2   5    1.75    0.14
  17   2  -5    1.87    0.16
 -16  -2   5    5.06    0.22
  16  -2  -5    5.49    0.24
 -16   2   5    5.42    0.23
  16   2  -5    5.25    0.23
 -15  -2   5    0.66    0.09
  15  -2  -5    0.96    0.11
 -15   2   5    0.72    0.09
  15   2  -5    0.69    0.10
 -14  -2   5   24.84    0.62
  14  -2  -5   23.85    0.62
 -14   2   5   24.90    0.62
 -14   2   5   24.44    0.60
  14   2  -5   24.59    0.61
 -13  -2   5    5.35    0.21
  13  -2  -5    5.19    0.21
 -13   2   5    5.54    0.21
  13   2  -5    5.20    0.21
 -13   2   5    5.78    0.21
 -12  -2   5    5.40    0.20
  12  -2  -5    5.32    0.20
 -12   2   5    5.44    0.20
 -12   2   5    5.25    0.20
  12   2  -5    5.35    0.20
  11  -2  -5    3.13    0.15
 -11  -2   5    3.40    0.15
 -11   2   5    3.52    0.15
  11   2  -5    3.27    0.15
 -11   2   5    3.41    0.16
 -10  -2   5   15.92    0.40
  10  -2  -5   15.22    0.40
  10   2  -5   15.28    0.39
 -10   2   5   15.57    0.40
 -10   2   5   15.01    0.39
  -9  -2   5   22.96    0.54
   9  -2  -5   22.24    0.53
   9   2  -5   22.77    0.53
  -9   2   5   22.39    0.54
  -9   2   5   22.07    0.53
   8  -2  -5    2.40    0.12
  -8  -2   5    2.34    0.09
  -8  -2   5    2.67    0.12
  -8   2   5    2.60    0.11
   8   2  -5    2.21    0.11
  -8   2   5    2.35    0.12
  -7  -2   5   40.29    0.89
  -7  -2   5   41.38    0.85
   7  -2  -5   41.20    0.88
   7   2  -5   39.78    0.87
  -7   2   5   39.70    0.89
  -7   2   5   40.95    0.88
   6  -2  -5    0.28    0.05
  -6  -2   5    0.30    0.04
  -6  -2   5    0.26    0.04
   6   2  -5    0.28    0.04
  -6   2   5    0.25    0.04
  -6   2   5    0.21    0.05
   5  -2  -5    1.68    0.08
  -5  -2   5    1.76    0.09
  -5  -2   5    1.65    0.07
  -5   2   5    1.65    0.09
  -5   2   5    1.68    0.07
   5   2  -5    1.52    0.07
   4  -2  -5   12.12    0.29
  -4  -2   5   11.88    0.29
  -4  -2   5   11.95    0.27
  -4   2   5   10.96    0.29
  -4   2   5   11.54    0.27
   3  -2  -5    1.85    0.08
  -3  -2   5    1.80    0.08
  -3  -2   5    1.62    0.06
   3   2  -5    1.90    0.06
  -3   2   5    1.74    0.06
  -3   2   5    1.34    0.08
   2  -2  -5  100.19    2.06
  -2  -2   5  101.10    2.06
   2   2  -5   98.98    2.05
   2   2  -5   99.68    2.03
  -2   2   5  100.45    2.07
  -2   2   5  101.62    2.07
   1  -2  -5   25.06    0.51
  -1  -2   5   24.54    0.53
   1  -2  -5   24.57    0.53
   1   2  -5   23.66    0.52
  -1   2   5   23.72    0.53
   1   2  -5   23.94    0.50
   0  -2   5   88.06    1.81
   0  -2  -5   87.95    1.81
   0  -2  -5   90.62    1.79
   0   2  -5   86.13    1.81
   0   2   5   87.27    1.81
  -1  -2  -5   14.78    0.31
   1  -2   5   14.78    0.34
   1   2   5   14.54    0.34
  -1   2  -5   14.56    0.34
  -2  -2  -5   31.85    0.64
   2  -2   5   31.33    0.67
   2   2   5   31.74    0.66
  -2   2  -5   28.80    0.67
  -2   2  -5   31.28    0.63
   3  -2   5   34.28    0.74
  -3  -2  -5   34.18    0.72
  -3   2  -5   34.77    0.71
   3   2   5   34.39    0.73
  -4  -2  -5   92.77    1.90
  -4   2  -5   94.82    1.92
  -4   2  -5   93.80    1.89
   4   2   5   90.15    1.90
  -5  -2  -5   70.62    1.73
   5   2   5   86.74    1.74
  -5   2  -5   92.81    1.77
  -5   2  -5   88.88    1.76
  -6  -2  -5    8.09    0.24
  -6  -2  -5    9.14    0.23
  -6   2  -5    9.67    0.25
  -6   2  -5    9.43    0.22
   6   2   5    9.02    0.22
  -6   2  -5    9.10    0.24
  -7  -2  -5   12.60    0.31
  -7   2  -5   12.82    0.32
  -7   2  -5   12.61    0.30
   7   2   5   12.47    0.29
  -7   2  -5   12.82    0.32
  -8  -2  -5    0.03    0.04
  -8  -2  -5    0.06    0.03
  -8   2  -5   -0.06    0.03
   8   2   5    0.08    0.03
  -8   2  -5    0.06    0.03
  -8   2  -5    0.04    0.04
  -9  -2  -5    0.24    0.05
  -9  -2  -5    0.26    0.05
  -9   2  -5    0.24    0.05
  -9   2  -5    0.27    0.05
  -9   2  -5    0.23    0.05
 -10  -2  -5    0.39    0.06
 -10  -2  -5    0.33    0.05
 -10   2  -5    0.30    0.06
 -10   2  -5    0.39    0.05
 -10   2  -5    0.37    0.06
 -11  -2  -5    0.39    0.06
 -11  -2  -5    0.52    0.07
 -11   2  -5    0.57    0.07
 -11   2  -5    0.64    0.08
 -12  -2  -5    6.54    0.22
 -12  -2  -5    6.80    0.23
 -12   2  -5    6.60    0.22
 -12   2  -5    6.06    0.22
 -13  -2  -5    9.00    0.27
 -13  -2  -5    8.97    0.29
  13  -2   5    9.07    0.27
 -13   2  -5    8.79    0.29
 -13   2  -5    9.31    0.28
 -14  -2  -5   10.25    0.32
  14  -2   5    9.73    0.30
 -14  -2  -5    9.94    0.30
 -14   2  -5    9.45    0.31
 -15  -2  -5    0.95    0.11
 -15  -2  -5    0.69    0.09
  15  -2   5    0.87    0.10
 -15   2  -5    1.07    0.11
  16  -2   5    0.19    0.07
 -16  -2  -5    0.07    0.06
 -16  -2  -5    0.09    0.07
 -16   2  -5    0.13    0.07
  17  -3  -5    0.27    0.09
  17   3  -5    0.21    0.09
  16  -3  -5    0.21    0.08
 -16  -3   5    0.30    0.08
 -16   3   5    0.28    0.08
  16   3  -5    0.31    0.08
 -15  -3   5    0.27    0.07
  15  -3  -5    0.08    0.07
 -15   3   5    0.18    0.06
 -15   3   5    0.04    0.07
  15   3  -5    0.21    0.07
 -14  -3   5    0.89    0.10
  14  -3  -5    0.99    0.11
 -14   3   5    0.82    0.10
  14   3  -5    0.89    0.10
 -14   3   5    0.92    0.10
 -13  -3   5    2.28    0.14
  13  -3  -5    2.37    0.14
 -13   3   5    2.20    0.15
 -13   3   5    2.18    0.14
  13   3  -5    1.97    0.13
 -12  -3   5    0.98    0.09
  12  -3  -5    1.09    0.10
 -12   3   5    1.09    0.11
 -12   3   5    1.29    0.10
  12   3  -5    1.23    0.10
  11  -3  -5    0.23    0.06
 -11  -3   5    0.25    0.06
 -11   3   5    0.32    0.06
 -11   3   5    0.22    0.07
 -10  -3   5    1.64    0.11
  10  -3  -5    1.52    0.11
 -10   3   5    1.52    0.10
 -10   3   5    1.57    0.12
  -9  -3   5   19.38    0.47
   9  -3  -5   18.96    0.47
  -9  -3   5   18.04    0.45
  -9   3   5   18.49    0.46
  -9   3   5   18.95    0.48
  -8  -3   5    0.18    0.04
   8  -3  -5    0.15    0.05
  -8  -3   5    0.14    0.05
  -8   3   5    0.12    0.06
  -8   3   5    0.12    0.04
   7  -3  -5   28.08    0.65
  -7  -3   5   28.28    0.63
  -7  -3   5   28.60    0.60
  -7   3   5   28.62    0.64
  -7   3   5   28.47    0.66
  -6  -3   5    3.71    0.14
  -6  -3   5    3.60    0.11
   6  -3  -5    3.78    0.14
  -6  -3   5    3.44    0.12
  -6   3   5    3.65    0.13
  -6   3   5    2.96    0.14
  -5  -3   5    1.11    0.05
   5  -3  -5    0.98    0.07
  -5  -3   5    1.31    0.08
  -5  -3   5    1.18    0.06
  -5   3   5    1.13    0.07
  -4  -3   5    1.11    0.08
   4  -3  -5    1.08    0.07
  -4   3   5    1.15    0.09
  -4   3   5    1.05    0.06
   3  -3  -5    0.90    0.07
  -3  -3   5    1.07    0.07
   3   3  -5    0.95    0.05
  -3   3   5    0.93    0.07
   2  -3  -5    9.47    0.24
  -2  -3   5    9.18    0.24
  -2   3   5    9.16    0.24
   2   3  -5    9.15    0.20
   2   3  -5    9.06    0.22
   1  -3  -5    0.95    0.07
  -1  -3   5    0.81    0.06
   1   3  -5    0.85    0.03
  -1   3   5    0.91    0.07
   1   3  -5    0.85    0.05
   0  -3   5    2.96    0.11
   0  -3  -5    2.99    0.11
   0  -3  -5    2.87    0.09
   0   3  -5    2.97    0.11
   0   3   5    3.12    0.11
   1  -3   5   11.02    0.28
  -1  -3  -5   11.02    0.28
  -1  -3  -5   10.80    0.25
  -1   3  -5   11.28    0.28
   1   3   5   10.80    0.27
   2  -3   5    0.29    0.05
  -2  -3  -5    0.14    0.03
  -2  -3  -5    0.25    0.04
   2   3   5    0.39    0.04
  -2   3  -5    0.19    0.04
  -3  -3  -5   34.96    0.76
   3  -3   5   34.39    0.76
   3  -3   5   34.78    0.71
   3   3   5   33.79    0.74
  -3   3  -5   35.34    0.76
  -4  -3  -5    0.48    0.05
   4  -3   5    0.52    0.03
   4  -3   5    0.55    0.06
  -4  -3  -5    0.63    0.05
   4   3   5    0.60    0.05
   5  -3   5    0.84    0.04
  -5  -3  -5    0.89    0.06
  -5  -3  -5    0.66    0.06
   5  -3   5    1.01    0.08
  -5   3  -5    0.76    0.07
   5   3   5    0.85    0.06
  -6  -3  -5    7.65    0.21
   6  -3   5    7.75    0.19
  -6   3  -5    7.71    0.23
   6   3   5    7.87    0.19
   7  -3   5    4.49    0.13
  -7  -3  -5    4.44    0.14
  -7   3  -5    4.54    0.17
  -7   3  -5    4.36    0.16
  -8  -3  -5   16.99    0.41
   8  -3   5   17.23    0.40
  -8  -3  -5   17.08    0.43
  -8   3  -5   17.68    0.44
  -8   3  -5   16.87    0.43
  -9  -3  -5    0.59    0.07
  -9  -3  -5    0.76    0.07
   9  -3   5    0.61    0.06
  -9   3  -5    0.56    0.07
  -9   3  -5    0.74    0.08
 -10  -3  -5    0.57    0.06
  10  -3   5    0.59    0.06
 -10  -3  -5    0.48    0.07
 -10   3  -5    0.48    0.07
 -10   3  -5    0.56    0.07
 -11  -3  -5    0.89    0.09
 -11  -3  -5    0.79    0.08
  11  -3   5    0.64    0.07
 -11   3  -5    0.72    0.08
 -11   3  -5    0.78    0.09
 -12  -3  -5    4.38    0.19
  12  -3   5    4.39    0.18
 -12  -3  -5    4.65    0.17
 -12   3  -5    4.10    0.18
 -12   3  -5    4.39    0.18
 -13  -3  -5    0.46    0.08
 -13   3  -5    0.36    0.07
 -13   3  -5    0.45    0.08
 -14  -3  -5    3.36    0.18
 -14  -3  -5    3.20    0.16
 -14   3  -5    3.41    0.17
 -14   3  -5    3.02    0.17
 -15  -3  -5    0.05    0.06
 -15   3  -5   -0.01    0.06
 -16   3  -5    0.02    0.06
  16  -4  -5    3.89    0.20
 -16  -4   5    3.52    0.22
 -16   4   5    3.50    0.21
 -16   4   5    3.73    0.20
  16   4  -5    3.14    0.19
  15  -4  -5    5.78    0.24
 -15  -4   5    5.64    0.24
 -15   4   5    6.04    0.25
 -15   4   5    5.63    0.25
  15   4  -5    5.82    0.24
 -14  -4   5    2.36    0.15
  14  -4  -5    2.44    0.16
 -14   4   5    2.09    0.16
 -14   4   5    2.46    0.15
  14   4  -5    2.18    0.15
  13  -4  -5    0.24    0.07
 -13  -4   5    0.17    0.07
 -13   4   5    0.24    0.07
 -13   4   5    0.20    0.08
  12  -4  -5    1.83    0.13
 -12  -4   5    1.99    0.13
 -12   4   5    1.65    0.12
 -12   4   5    1.79    0.14
 -11  -4   5    4.52    0.18
  11  -4  -5    4.23    0.18
 -11  -4   5    4.82    0.20
 -11   4   5    4.04    0.20
 -11   4   5    4.19    0.18
 -10  -4   5   11.90    0.35
  10  -4  -5   11.70    0.33
 -10  -4   5   12.21    0.32
 -10   4   5   11.41    0.34
 -10   4   5   12.02    0.35
  -9  -4   5    5.69    0.19
  -9  -4   5    5.88    0.21
   9  -4  -5    5.78    0.20
  -9   4   5    5.80    0.22
  -9   4   5    5.51    0.20
   8  -4  -5    5.80    0.20
  -8  -4   5    6.02    0.19
  -8  -4   5    6.09    0.22
  -8   4   5    5.99    0.20
  -8   4   5    5.96    0.22
  -7  -4   5    0.08    0.04
   7  -4  -5    0.16    0.05
  -7  -4   5    0.11    0.06
  -7   4   5    0.13    0.04
  -7   4   5    0.12    0.06
  -6  -4   5    0.39    0.05
   6  -4  -5    0.41    0.06
  -6   4   5    0.31    0.05
  -5  -4   5    0.79    0.06
   5  -4  -5    0.69    0.07
  -5   4   5    0.48    0.07
   4  -4  -5    4.46    0.15
  -4  -4   5    4.16    0.12
   4  -4  -5    4.13    0.14
  -4   4   5    4.49    0.17
   4   4  -5    4.27    0.13
  -3  -4   5    1.42    0.06
  -3  -4   5    1.66    0.10
   3  -4  -5    1.53    0.08
   3  -4  -5    1.44    0.09
  -3   4   5    1.44    0.10
   3   4  -5    1.50    0.07
   2  -4  -5    0.76    0.07
   2  -4  -5    0.81    0.06
  -2  -4   5    0.69    0.07
  -2  -4   5    0.76    0.04
  -2   4   5    0.72    0.07
   2   4  -5    0.86    0.06
   1  -4  -5   26.27    0.59
   1  -4  -5   26.33    0.60
  -1  -4   5   27.01    0.61
  -1   4   5   26.75    0.60
   1   4  -5   26.65    0.59
   0  -4  -5   29.48    0.65
   0  -4  -5   29.56    0.66
   0  -4   5   30.46    0.67
   0   4   5   29.56    0.66
   0   4  -5   29.48    0.66
  -1  -4  -5    0.31    0.04
  -1  -4  -5    0.42    0.05
   1  -4   5    0.30    0.05
   1   4   5    0.24    0.05
  -1   4  -5    0.31    0.05
   2  -4   5   11.49    0.31
  -2  -4  -5   11.46    0.28
  -2  -4  -5   11.38    0.30
  -2   4  -5   12.16    0.31
   2   4   5   11.33    0.29
  -3  -4  -5   10.64    0.26
   3  -4   5   10.84    0.29
  -3  -4  -5   10.41    0.28
  -3   4  -5   10.60    0.29
   3   4   5   10.32    0.26
   4  -4   5    4.91    0.17
  -4  -4  -5    4.75    0.16
  -4  -4  -5    4.69    0.15
   4   4   5    4.78    0.14
  -4   4  -5    3.80    0.15
  -5  -4  -5    1.65    0.10
  -5  -4  -5    1.65    0.09
   5  -4   5    1.71    0.11
   5   4   5    1.52    0.08
  -6  -4  -5   11.52    0.32
   6  -4   5   11.90    0.33
  -6  -4  -5   12.21    0.30
  -6   4  -5   11.86    0.33
   7  -4   5   10.24    0.30
  -7  -4  -5   10.73    0.30
  -7  -4  -5   10.65    0.28
  -7   4  -5   10.52    0.31
  -8  -4  -5    2.51    0.11
  -8  -4  -5    2.31    0.13
   8  -4   5    2.45    0.13
  -8   4  -5    2.64    0.14
  -9  -4  -5    0.04    0.04
  -9  -4  -5    0.15    0.06
  -9   4  -5    0.07    0.05
 -10  -4  -5    0.94    0.09
 -10  -4  -5    1.16    0.09
 -10   4  -5    1.24    0.11
 -10   4  -5    1.20    0.10
 -11  -4  -5    0.01    0.05
 -11  -4  -5    0.00    0.04
 -11   4  -5    0.01    0.05
 -11   4  -5   -0.03    0.05
 -12  -4  -5    0.32    0.06
 -12  -4  -5    0.27    0.07
 -12   4  -5    0.32    0.07
 -12   4  -5    0.35    0.08
 -13  -4  -5    9.23    0.31
 -13   4  -5    9.47    0.32
 -13   4  -5    9.07    0.31
 -14  -4  -5    0.78    0.11
 -14   4  -5    0.66    0.10
 -14   4  -5    0.59    0.09
 -15  -4  -5    1.13    0.19
 -15   4  -5    1.24    0.13
 -15   4  -5    1.21    0.12
  16  -5  -5    6.12    0.26
 -15  -5   5   -0.06    0.06
  15  -5  -5    0.18    0.08
 -15   5   5   -0.01    0.08
 -15   5   5   -0.09    0.06
  15   5  -5    0.12    0.07
 -14  -5   5    3.28    0.19
  14  -5  -5    3.35    0.18
  14   5  -5    3.48    0.17
 -14   5   5    3.47    0.19
 -14   5   5    3.56    0.20
  13  -5  -5   -0.06    0.05
 -13  -5   5   -0.02    0.05
 -13   5   5    0.00    0.06
 -13   5   5   -0.08    0.07
  12  -5  -5    0.13    0.06
 -12  -5   5    0.08    0.07
 -12  -5   5    0.18    0.06
 -12   5   5    0.24    0.06
 -12   5   5    0.08    0.07
 -11  -5   5    7.20    0.26
  11  -5  -5    7.00    0.24
 -11  -5   5    6.90    0.23
 -11   5   5    6.82    0.25
 -11   5   5    6.98    0.27
  10  -5  -5    0.28    0.07
 -10  -5   5    0.34    0.08
 -10  -5   5    0.30    0.06
 -10   5   5    0.28    0.07
 -10   5   5    0.35    0.09
   9  -5  -5    0.58    0.08
  -9  -5   5    0.43    0.08
  -9  -5   5    0.44    0.06
  -9   5   5    0.49    0.09
  -9   5   5    0.42    0.07
   8  -5  -5    0.29    0.06
  -8  -5   5    0.26    0.07
  -8  -5   5    0.35    0.05
  -8   5   5    0.26    0.06
  -8   5   5    0.29    0.07
   7  -5  -5    8.90    0.27
  -7  -5   5    9.06    0.24
   7  -5  -5    9.01    0.27
  -7  -5   5    8.88    0.28
  -7   5   5    8.74    0.29
   6  -5  -5    0.14    0.05
  -6  -5   5    0.16    0.04
  -6  -5   5    0.27    0.06
   6  -5  -5    0.17    0.05
  -6   5   5    0.13    0.06
  -5  -5   5   80.21    1.67
  -5  -5   5   80.89    1.73
   5  -5  -5   79.89    1.71
   5  -5  -5   79.29    1.71
  -5   5   5   82.13    1.74
   5   5  -5   83.24    1.69
   4  -5  -5   58.77    1.29
   4  -5  -5   59.42    1.28
  -4  -5   5   60.97    1.30
  -4  -5   5   59.92    1.25
  -4   5   5   59.86    1.31
   4   5  -5   60.83    1.26
   3  -5  -5   16.57    0.40
   3  -5  -5   16.30    0.40
  -3  -5   5   15.34    0.42
   3   5  -5   16.76    0.38
  -3   5   5   15.98    0.42
   2  -5  -5   -0.05    0.04
   2  -5  -5    0.00    0.04
  -2  -5   5   -0.09    0.05
   2   5  -5    0.03    0.04
  -2   5   5    0.14    0.06
  -1  -5   5   12.27    0.33
   1  -5  -5   11.64    0.31
   1  -5  -5   12.08    0.32
  -1   5   5   12.16    0.32
   1   5  -5   11.84    0.31
   0  -5  -5    4.93    0.16
   0  -5  -5    4.95    0.17
   0  -5   5    4.79    0.18
   0   5   5    5.16    0.18
   0   5  -5    4.88    0.17
  -1  -5  -5   27.43    0.63
  -1  -5  -5   26.87    0.61
   1  -5   5   27.77    0.65
  -1   5  -5   27.46    0.63
   1   5   5   27.35    0.62
  -2  -5  -5    0.35    0.05
   2  -5   5    0.18    0.06
  -2  -5  -5    0.24    0.05
   2   5   5    0.25    0.05
  -2   5  -5    0.19    0.05
  -3  -5  -5    0.02    0.04
   3  -5   5   -0.02    0.05
  -3  -5  -5    0.03    0.04
   3   5   5    0.03    0.04
  -3   5  -5    0.04    0.05
  -4  -5  -5   12.38    0.33
  -4  -5  -5   11.94    0.31
   4  -5   5   12.17    0.34
  -4   5  -5   12.27    0.34
   4   5   5   11.82    0.30
  -5  -5  -5    0.51    0.06
   5  -5   5    0.58    0.08
  -5  -5  -5    0.40    0.06
  -5   5  -5    0.46    0.07
   6  -5   5    0.17    0.06
  -6  -5  -5    0.11    0.05
  -6  -5  -5    0.13    0.05
  -6   5  -5    0.05    0.05
  -7  -5  -5    6.40    0.22
   7  -5   5    6.77    0.24
  -7  -5  -5    6.51    0.21
  -7   5  -5    6.44    0.23
  -8  -5  -5   40.19    0.89
   8  -5   5   39.58    0.92
  -8  -5  -5   39.20    0.91
  -8   5  -5   39.92    0.92
   9  -5   5   17.69    0.48
  -9  -5  -5   17.01    0.46
  -9  -5  -5   18.05    0.45
  -9   5  -5   17.86    0.48
  10  -5   5   20.11    0.54
 -10  -5  -5   19.36    0.52
 -10  -5  -5   20.63    0.50
 -10   5  -5   19.80    0.53
  11  -5   5    3.70    0.19
 -11  -5  -5    3.46    0.18
 -11   5  -5    3.45    0.18
  12  -5   5    0.46    0.09
 -12  -5  -5    0.31    0.08
 -12   5  -5    0.59    0.09
  13  -5   5    0.49    0.10
 -13  -5  -5    0.65    0.10
 -13   5  -5    0.64    0.10
  14  -5   5   16.99    0.51
 -14  -5  -5   16.63    0.63
 -14   5  -5   17.22    0.49
 -14   6   5    2.09    0.25
 -13  -6   5    0.16    0.08
 -13   6   5    0.04    0.08
 -12  -6   5    0.45    0.09
  12  -6  -5    0.52    0.09
 -12   6   5    0.48    0.11
  11  -6  -5    1.69    0.14
 -11  -6   5    1.97    0.15
  11  -6  -5    1.99    0.13
 -11   6   5    1.84    0.16
  10  -6  -5    1.35    0.11
  10  -6  -5    1.29    0.12
 -10  -6   5    1.32    0.12
 -10   6   5    1.23    0.13
   9  -6  -5    4.12    0.18
  -9  -6   5    4.37    0.20
   9  -6  -5    4.17    0.19
  -9   6   5    4.39    0.21
   8  -6  -5    1.55    0.11
   8  -6  -5    1.48    0.12
  -8  -6   5    1.52    0.13
  -8   6   5    1.57    0.14
   7  -6  -5    0.01    0.04
  -7  -6   5    0.03    0.06
   7  -6  -5    0.09    0.05
  -7   6   5    0.05    0.06
   6  -6  -5    2.37    0.13
  -6  -6   5    2.24    0.14
   6  -6  -5    2.37    0.13
  -6   6   5    2.21    0.15
   5  -6  -5    0.27    0.06
  -5  -6   5    0.16    0.06
   5  -6  -5    0.36    0.06
  -5   6   5    0.10    0.06
  -4  -6   5    0.52    0.08
   4  -6  -5    0.53    0.07
   4  -6  -5    0.66    0.08
  -4   6   5    0.59    0.08
   3  -6  -5    0.48    0.07
  -3  -6   5    0.55    0.08
   3  -6  -5    0.41    0.07
   3   6  -5    0.46    0.06
  -3   6   5    0.52    0.08
   2  -6  -5    9.48    0.28
   2  -6  -5    9.44    0.27
  -2  -6   5    9.05    0.29
   2   6  -5    9.50    0.26
  -2   6   5    9.67    0.29
   1  -6  -5    1.10    0.09
   1  -6  -5    1.14    0.09
  -1  -6   5    1.01    0.10
  -1   6   5    1.05    0.10
   1   6  -5    1.01    0.09
   0  -6  -5   13.50    0.36
   0  -6   5   13.79    0.38
   0  -6  -5   13.30    0.35
   0   6  -5   13.57    0.35
   0   6   5   13.63    0.36
  -1  -6  -5    1.53    0.10
  -1  -6  -5    1.45    0.10
   1  -6   5    1.43    0.12
   1   6   5    1.29    0.10
  -1   6  -5    1.44    0.11
   2  -6   5    5.06    0.20
  -2  -6  -5    4.99    0.18
  -2  -6  -5    4.77    0.17
   2   6   5    4.82    0.17
  -2   6  -5    4.40    0.18
   3  -6   5    0.59    0.08
  -3  -6  -5    0.71    0.08
  -3  -6  -5    0.77    0.08
  -3   6  -5    0.79    0.09
  -4  -6  -5    0.21    0.06
  -4  -6  -5    0.28    0.06
   4  -6   5    0.33    0.08
  -4   6  -5    0.32    0.07
  -5  -6  -5    3.85    0.16
  -5  -6  -5    3.65    0.15
   5  -6   5    3.83    0.18
  -5   6  -5    3.49    0.17
  -6  -6  -5    3.46    0.16
  -6  -6  -5    3.73    0.15
   6  -6   5    3.21    0.17
  -6   6  -5    3.32    0.17
  -7  -6  -5    4.48    0.19
  -7  -6  -5    4.13    0.17
   7  -6   5    4.39    0.20
  -7   6  -5    4.38    0.19
   8  -6   5   -0.01    0.06
  -8  -6  -5   -0.01    0.08
  -8  -6  -5   -0.05    0.05
  -8   6  -5    0.03    0.05
   9  -6   5    1.37    0.13
  -9  -6  -5    1.31    0.11
  -9   6  -5    1.42    0.13
 -10  -6  -5    2.73    0.16
  10  -6   5    2.65    0.17
 -10   6  -5    2.71    0.17
  11  -6   5    3.48    0.20
 -11  -6  -5    3.77    0.19
 -11   6  -5    3.56    0.20
 -12  -6  -5    4.99    0.23
  12  -6   5    5.03    0.24
 -12   6  -5    4.77    0.23
  12  -7  -5    1.56    0.15
  11  -7  -5    0.15    0.07
 -11  -7   5   -0.07    0.07
 -11   7   5    0.13    0.09
 -10  -7   5    1.46    0.14
  10  -7  -5    1.84    0.15
 -10   7   5    1.53    0.15
   9  -7  -5    1.26    0.13
  -9  -7   5    1.16    0.13
  -9   7   5    1.33    0.14
  -8  -7   5    0.44    0.09
   8  -7  -5    0.62    0.09
  -8   7   5    0.43    0.09
  -7  -7   5   19.55    0.53
   7  -7  -5   19.93    0.53
  -7   7   5   19.91    0.54
   6  -7  -5    0.28    0.06
  -6  -7   5    0.27    0.08
   6  -7  -5    0.21    0.07
  -6   7   5    0.34    0.08
   5  -7  -5    0.16    0.06
  -5  -7   5    0.08    0.06
   5  -7  -5    0.07    0.05
  -5   7   5    0.11    0.07
   4  -7  -5    0.06    0.05
  -4  -7   5   -0.06    0.06
   4  -7  -5    0.02    0.05
  -4   7   5    0.01    0.06
   3  -7  -5    0.74    0.08
  -3  -7   5    0.71    0.10
   3  -7  -5    0.78    0.09
  -3   7   5    0.81    0.10
  -2  -7   5    0.93    0.11
   2  -7  -5    1.05    0.10
   2  -7  -5    1.13    0.09
  -2   7   5    0.89    0.10
   2   7  -5    1.06    0.09
   1  -7  -5    1.25    0.11
   1  -7  -5    1.20    0.10
  -1  -7   5    1.10    0.11
   1   7  -5    1.08    0.09
  -1   7   5    1.28    0.11
   0  -7   5    0.66    0.09
   0  -7  -5    0.73    0.08
   0  -7  -5    0.68    0.08
   0   7  -5    0.59    0.07
   0   7   5    0.78    0.09
  -1  -7  -5    8.82    0.27
   1  -7   5    8.30    0.29
  -1  -7  -5    8.26    0.26
   1   7   5    8.46    0.26
  -1   7  -5    8.44    0.27
  -2  -7  -5    0.45    0.07
  -2  -7  -5    0.32    0.07
   2  -7   5    0.53    0.09
  -2   7  -5    0.43    0.07
   3  -7   5    2.72    0.17
  -3  -7  -5    2.90    0.14
  -3  -7  -5    2.87    0.15
  -3   7  -5    2.80    0.16
  -4  -7  -5   -0.02    0.04
   4  -7   5    0.07    0.06
  -4  -7  -5    0.08    0.06
  -4   7  -5   -0.05    0.05
  -5  -7  -5    1.63    0.18
  -5  -7  -5    1.83    0.12
   5  -7   5    1.67    0.14
  -5   7  -5    1.78    0.13
  -6  -7  -5    3.23    0.16
   6  -7   5    3.10    0.18
  -6   7  -5    3.03    0.17
  -7  -7  -5    0.12    0.06
   7  -7   5    0.24    0.08
  -7   7  -5    0.16    0.07
  -8  -7  -5    1.45    0.12
   8  -7   5    1.35    0.14
  -8   7  -5    1.30    0.13
  -9  -7  -5    1.38    0.12
   9  -7   5    1.32    0.14
  -9   7  -5    1.17    0.13
 -10  -7  -5    0.07    0.07
  10  -7   5    0.23    0.09
 -10   7  -5    0.17    0.08
 -11  -7  -5    0.30    0.08
  10  -8  -5    3.11    0.22
  -9  -8   5    0.10    0.11
   9  -8  -5    0.26    0.08
  -9   8   5    0.01    0.10
  -8  -8   5    7.26    0.29
   8  -8  -5    6.84    0.27
  -8   8   5    6.89    0.29
  -7  -8   5    4.51    0.22
   7  -8  -5    4.18    0.21
  -7   8   5    4.44    0.23
   6  -8  -5    0.45    0.09
  -6  -8   5    0.53    0.10
  -6   8   5    0.32    0.09
  -5  -8   5    0.01    0.07
   5  -8  -5    0.03    0.06
  -5   8   5   -0.12    0.06
   4  -8  -5    0.06    0.06
  -4  -8   5    0.10    0.08
  -4   8   5   -0.05    0.06
   3  -8  -5    1.39    0.12
  -3  -8   5    1.24    0.13
  -3   8   5    1.25    0.13
   2  -8  -5    8.06    0.28
  -2  -8   5    8.43    0.30
  -2   8   5    8.09    0.28
   1  -8  -5    3.28    0.17
  -1  -8   5    3.10    0.18
  -1   8   5    3.11    0.16
   0  -8   5    5.23    0.23
   0  -8  -5    5.36    0.21
   0   8  -5    5.23    0.20
   1  -8   5    1.58    0.14
  -1  -8  -5    1.69    0.15
  -1   8  -5    1.65    0.12
  -2  -8  -5    0.03    0.06
   2  -8   5    0.10    0.07
  -2   8  -5    0.10    0.06
  -3  -8  -5    0.28    0.07
   3  -8   5    0.17    0.07
  -3   8  -5    0.30    0.07
   4  -8   5   11.00    0.37
  -4  -8  -5   10.81    0.33
  -4   8  -5   11.01    0.35
   5  -8   5   14.28    0.45
  -5  -8  -5   14.88    0.42
  -5   8  -5   15.16    0.44
  -6  -8  -5   12.33    0.37
   6  -8   5   12.02    0.40
  -6   8  -5   11.99    0.39
  -7  -8  -5    0.43    0.08
   7  -8   5    0.39    0.10
  -7   8  -5    0.17    0.08
  -8  -8  -5    0.15    0.07
  -8   8  -5    0.10    0.12
  -9  -8  -5    0.15    0.07
   7  -9  -5    1.23    0.20
   6  -9  -5    1.40    0.14
   5  -9  -5    6.85    0.28
  -5   9   5    7.17    0.29
   4  -9  -5    0.71    0.13
  -4  -9   5    0.65    0.18
  -4   9   5    0.61    0.11
  -3  -9   5    1.76    0.17
  -3   9   5    1.39    0.14
  -2  -9   5    2.52    0.18
  -1  -9   5    2.09    0.17
   0  -9   5    1.19    0.14
   1  -9   5    0.41    0.10
   2  -9   5    0.29    0.11
  -2   9  -5    0.17    0.07
  -3   9  -5    0.00    0.06
  -4   9  -5    4.15    0.21
  17   0  -6    0.26    0.09
 -17   0   6    0.44    0.09
 -16   0   6   10.58    0.34
  16   0  -6   10.19    0.34
 -15   0   6    0.90    0.10
  15   0  -6    0.84    0.11
  14   0  -6    8.17    0.27
 -14   0   6    7.46    0.26
  13   0  -6    0.35    0.07
 -13   0   6    0.20    0.06
  12   0  -6    0.06    0.05
 -12   0   6   -0.02    0.04
 -12   0   6    0.02    0.08
 -11   0   6    4.39    0.17
 -11   0   6    4.30    0.16
  11   0  -6    4.39    0.17
  10   0  -6    6.36    0.21
 -10   0   6    6.34    0.20
 -10   0   6    6.42    0.20
   9   0  -6   47.72    1.08
  -9   0   6   50.25    1.08
  -9   0   6   52.70    1.08
  -8   0   6   53.20    1.13
  -8   0   6   53.95    1.14
   8   0  -6   52.76    1.14
  -7   0   6    5.46    0.16
   7   0  -6    5.13    0.17
  -7   0   6    5.42    0.16
  -6   0   6    0.98    0.06
  -6   0   6    0.63    0.05
   6   0  -6    0.66    0.06
  -5   0   6  106.27    2.23
   5   0  -6  105.09    2.17
  -5   0   6  104.87    2.16
   4   0  -6   97.75    2.04
  -4   0   6  100.29    2.04
  -4   0   6  100.18    2.10
  -3   0   6    2.31    0.09
  -2   0   6    0.95    0.04
   2   0  -6    0.78    0.05
   1   0  -6   -0.01    0.02
  -1   0   6    0.03    0.01
  -1   0   6   -0.01    0.01
   0   0   6   32.51    0.65
   0   0  -6   32.05    0.67
   0   0   6   31.12    0.68
  -1   0  -6   17.26    0.38
   1   0   6   16.93    0.39
   1   0   6   17.80    0.36
  -2   0  -6    5.95    0.15
  -3   0  -6   22.14    0.46
  -3   0  -6   21.39    0.48
  -4   0  -6    0.01    0.02
  -4   0  -6    0.02    0.02
  -4   0  -6    0.01    0.02
  -5   0  -6  162.76    3.27
  -5   0  -6  158.37    3.27
  -6   0  -6    6.92    0.19
  -6   0  -6    7.09    0.18
  -6   0  -6    6.91    0.19
  -7   0  -6  156.58    3.15
  -7   0  -6  153.75    3.15
  -7   0  -6  153.09    3.16
  -8   0  -6    1.76    0.09
  -8   0  -6    1.99    0.10
  -8   0  -6    1.76    0.09
  -9   0  -6    0.01    0.03
  -9   0  -6    0.07    0.04
  -9   0  -6   -0.03    0.04
 -10   0  -6   29.53    0.67
 -10   0  -6   28.76    0.66
 -10   0  -6   28.86    0.65
 -11   0  -6   11.57    0.32
 -11   0  -6   11.26    0.31
 -12   0  -6    0.48    0.07
 -12   0  -6    0.33    0.06
 -13   0  -6    0.51    0.07
 -13   0  -6    0.45    0.07
 -14   0  -6    0.36    0.07
 -15   0  -6    0.10    0.06
 -15   0  -6    0.00    0.05
 -16   0  -6    1.07    0.12
 -16   0  -6    1.09    0.11
 -17   0  -6    0.52    0.09
  17  -1  -6    0.58    0.10
 -17  -1   6    0.75    0.10
  17   1  -6    0.96    0.12
 -17   1   6    0.86    0.11
  16  -1  -6    7.30    0.28
 -16  -1   6    7.24    0.27
 -16   1   6    7.10    0.27
  16   1  -6    7.59    0.28
 -15  -1   6    3.19    0.17
  15  -1  -6    3.42    0.18
 -15   1   6    3.66    0.17
  15   1  -6    3.57    0.18
  14  -1  -6    1.25    0.12
 -14  -1   6    1.36    0.12
  14   1  -6    1.44    0.12
 -14   1   6    1.23    0.11
 -13  -1   6    6.11    0.22
  13  -1  -6    6.13    0.23
 -13   1   6    6.56    0.23
  13   1  -6    6.18    0.23
 -13   1   6    6.33    0.22
  12  -1  -6    0.36    0.07
 -12  -1   6    0.57    0.08
 -12   1   6    0.51    0.07
  12   1  -6    0.65    0.08
 -12   1   6    0.55    0.07
 -11  -1   6    1.85    0.11
  11  -1  -6    1.90    0.12
  11   1  -6    2.02    0.12
 -11   1   6    2.00    0.11
 -11   1   6    2.19    0.12
  10  -1  -6    0.51    0.07
 -10  -1   6    0.47    0.06
 -10  -1   6    0.52    0.06
 -10   1   6    0.42    0.07
 -10   1   6    0.54    0.07
  10   1  -6    0.54    0.07
  -9  -1   6    0.92    0.08
  -9  -1   6    0.90    0.08
  -9   1   6    0.88    0.08
  -9   1   6    0.90    0.08
   9   1  -6    0.94    0.08
  -8  -1   6    0.49    0.06
  -8  -1   6    0.46    0.05
   8   1  -6    0.31    0.05
  -8   1   6    0.35    0.06
  -8   1   6    0.43    0.05
  -7  -1   6   12.12    0.31
  -7  -1   6   12.57    0.29
   7   1  -6   12.01    0.30
  -7   1   6   11.99    0.31
  -7   1   6   12.21    0.30
  -6  -1   6    5.81    0.17
  -6  -1   6    5.80    0.16
  -6   1   6    5.82    0.18
  -6   1   6    5.86    0.16
   6   1  -6    5.74    0.17
  -5  -1   6   71.18    1.43
   5  -1  -6   60.83    1.43
  -5   1   6   70.23    1.42
  -5   1   6   71.95    1.44
   5   1  -6   69.86    1.43
   4  -1  -6   36.56    0.79
  -4  -1   6   37.40    0.78
  -4   1   6   36.39    0.79
  -4   1   6   36.51    0.77
   3  -1  -6    3.33    0.11
  -3  -1   6    3.50    0.10
  -3   1   6    3.35    0.11
   3   1  -6    3.52    0.10
  -3   1   6    3.34    0.09
  -2  -1   6    6.94    0.17
   2   1  -6    6.96    0.17
  -2   1   6    6.93    0.16
  -1  -1   6   47.52    1.00
   1   1  -6   48.33    0.99
  -1   1   6   48.78    0.98
  -1   1   6   48.43    1.02
   0  -1   6   19.42    0.41
   0   1  -6   18.87    0.42
   0   1   6   18.93    0.43
   0   1  -6   19.43    0.41
   1  -1   6    9.74    0.23
   1   1   6    9.78    0.24
  -1   1  -6    9.89    0.22
   2  -1   6   21.51    0.46
  -2  -1  -6   20.98    0.43
  -2  -1  -6   20.56    0.47
   2   1   6   20.51    0.46
  -2   1  -6   21.45    0.45
  -2   1  -6   20.95    0.47
  -3  -1  -6   26.15    0.57
  -3  -1  -6   25.60    0.54
   3   1   6   25.35    0.56
  -3   1  -6   25.97    0.57
  -3   1  -6   26.58    0.55
  -4  -1  -6    0.04    0.03
  -4  -1  -6    0.02    0.02
  -4   1  -6    0.04    0.02
  -5  -1  -6    2.93    0.11
  -5   1  -6    3.01    0.10
   5   1   6    3.16    0.10
  -5   1  -6    2.98    0.11
  -5   1  -6    3.16    0.10
  -6  -1  -6    2.95    0.11
  -6  -1  -6    2.75    0.09
   6   1   6    2.84    0.10
  -6   1  -6    2.77    0.11
  -6   1  -6    2.61    0.10
  -6   1  -6    2.72    0.10
  -7  -1  -6    0.08    0.04
  -7  -1  -6    0.07    0.03
   7   1   6    0.06    0.03
  -7   1  -6    0.08    0.03
  -7   1  -6    0.08    0.04
  -7   1  -6    0.05    0.03
  -8  -1  -6   15.48    0.38
  -8  -1  -6   15.39    0.36
  -8   1  -6   15.09    0.37
  -8   1  -6   15.07    0.37
  -8   1  -6   15.04    0.37
  -9  -1  -6   12.35    0.31
  -9  -1  -6   12.34    0.33
  -9   1  -6   12.80    0.32
  -9   1  -6   12.54    0.32
  -9   1  -6   12.49    0.32
 -10  -1  -6    3.00    0.14
 -10  -1  -6    3.13    0.12
 -10   1  -6    3.14    0.13
 -10   1  -6    3.05    0.13
 -10   1  -6    3.01    0.13
 -11  -1  -6    1.16    0.10
 -11  -1  -6    1.03    0.08
 -11   1  -6    1.24    0.08
 -11   1  -6    1.03    0.09
 -11   1  -6    1.33    0.09
 -12  -1  -6    1.11    0.09
 -12  -1  -6    0.98    0.09
 -12   1  -6    1.01    0.09
 -12   1  -6    1.08    0.08
 -12   1  -6    1.02    0.09
 -13  -1  -6    0.28    0.07
 -13  -1  -6    0.22    0.05
 -13   1  -6    0.19    0.06
 -13   1  -6    0.20    0.06
 -14  -1  -6   10.59    0.32
 -14  -1  -6   10.68    0.33
 -14   1  -6   11.02    0.33
 -14   1  -6   10.84    0.33
 -15  -1  -6    3.47    0.17
 -15  -1  -6    3.37    0.18
 -15   1  -6    3.86    0.18
 -15   1  -6    3.43    0.18
 -16  -1  -6    6.30    0.25
 -16  -1  -6    5.81    0.25
 -16   1  -6    5.91    0.24
  17  -1   6   -0.06    0.05
 -17   1  -6    0.03    0.06
 -17  -2   6    0.44    0.09
  17  -2  -6    0.52    0.10
 -17   2   6    0.42    0.09
  17   2  -6    0.49    0.10
 -16  -2   6    3.71    0.19
  16  -2  -6    3.72    0.20
  16   2  -6    3.82    0.20
 -16   2   6    3.76    0.19
  15  -2  -6    0.08    0.07
 -15  -2   6    0.07    0.05
  15   2  -6   -0.07    0.06
 -15   2   6    0.11    0.05
  14  -2  -6    3.50    0.18
 -14  -2   6    3.62    0.17
 -14   2   6    3.84    0.18
  14   2  -6    3.51    0.18
 -14   2   6    3.77    0.17
 -13  -2   6    6.53    0.23
  13  -2  -6    6.20    0.24
 -13   2   6    6.46    0.23
 -13   2   6    6.52    0.23
  13   2  -6    6.63    0.23
  12  -2  -6    2.52    0.14
 -12  -2   6    2.50    0.13
  12   2  -6    2.27    0.13
 -12   2   6    2.41    0.13
 -12   2   6    2.30    0.14
  11  -2  -6    1.93    0.12
 -11  -2   6    1.99    0.12
 -11   2   6    1.80    0.11
  11   2  -6    1.63    0.11
 -11   2   6    1.61    0.12
 -10  -2   6    9.13    0.27
  10  -2  -6    9.09    0.27
  10   2  -6    8.96    0.26
 -10   2   6    8.58    0.26
 -10   2   6    8.99    0.27
  -9  -2   6    0.09    0.05
   9  -2  -6    0.07    0.05
  -9   2   6    0.16    0.05
   9   2  -6    0.11    0.05
  -9   2   6    0.11    0.06
   8  -2  -6    6.32    0.20
  -8  -2   6    5.76    0.19
   8   2  -6    6.13    0.18
  -8   2   6    5.86    0.20
  -8   2   6    5.52    0.18
  -7  -2   6    0.02    0.03
   7  -2  -6    0.02    0.04
  -7  -2   6    0.02    0.02
  -7   2   6    0.02    0.05
   7   2  -6    0.01    0.03
  -7   2   6    0.05    0.03
  -6  -2   6    7.08    0.20
   6  -2  -6    7.07    0.20
  -6   2   6    7.11    0.21
  -6   2   6    6.87    0.19
   6   2  -6    6.70    0.19
  -5  -2   6    7.30    0.20
   5  -2  -6    7.20    0.20
   5   2  -6    7.02    0.19
  -5   2   6    7.40    0.19
  -5   2   6    7.37    0.21
  -4  -2   6    5.48    0.16
   4  -2  -6    5.56    0.16
  -4   2   6    4.42    0.16
  -4   2   6    5.44    0.14
  -3  -2   6   17.13    0.39
  -3  -2   6   16.99    0.38
   3  -2  -6   17.28    0.39
  -3   2   6   16.72    0.37
  -3   2   6   15.84    0.39
   3   2  -6   17.08    0.37
   2  -2  -6    0.11    0.03
  -2  -2   6    0.09    0.03
   2   2  -6    0.09    0.02
   2   2  -6    0.08    0.03
  -2   2   6    0.10    0.02
  -2   2   6    0.04    0.03
   1  -2  -6    6.69    0.15
  -1  -2   6    6.38    0.17
   1   2  -6    6.35    0.15
   1   2  -6    6.30    0.17
  -1   2   6    6.72    0.18
   0  -2  -6    2.34    0.06
   0  -2   6    2.30    0.09
   0   2  -6    2.19    0.09
   0   2  -6    2.20    0.06
   0   2   6    2.20    0.09
   1  -2   6    0.81    0.06
  -1  -2  -6    0.71    0.03
  -1   2  -6    0.73    0.03
  -1   2  -6    0.71    0.05
   1   2   6    0.69    0.06
  -2  -2  -6    0.14    0.02
  -2  -2  -6    0.09    0.02
   2  -2   6    0.11    0.03
  -2   2  -6    0.08    0.03
  -2   2  -6    0.17    0.02
   2   2   6    0.10    0.03
  -3  -2  -6    0.31    0.04
  -3  -2  -6    0.39    0.03
   3  -2   6    0.35    0.04
   3   2   6    0.37    0.04
  -3   2  -6    0.39    0.03
  -3   2  -6    0.39    0.05
  -4  -2  -6   14.57    0.32
  -4  -2  -6   14.64    0.36
   4  -2   6   15.06    0.35
  -4   2  -6   14.91    0.32
  -4   2  -6   14.96    0.36
   4   2   6   14.63    0.34
  -5  -2  -6    5.72    0.18
  -5   2  -6    6.05    0.18
   5   2   6    5.21    0.15
  -5   2  -6    5.73    0.17
  -6  -2  -6    1.87    0.10
  -6  -2  -6    2.32    0.08
   6   2   6    2.38    0.09
  -6   2  -6    2.30    0.10
  -6   2  -6    2.32    0.09
  -6   2  -6    2.24    0.11
  -7  -2  -6    3.12    0.11
  -7  -2  -6    3.23    0.13
  -7   2  -6    3.07    0.12
  -7   2  -6    3.14    0.11
  -7   2  -6    3.23    0.13
   7   2   6    3.03    0.10
  -8  -2  -6    5.34    0.17
  -8  -2  -6    6.01    0.19
  -8   2  -6    5.42    0.17
  -8   2  -6    5.87    0.19
   8   2   6    5.43    0.15
  -8   2  -6    5.37    0.18
  -9  -2  -6   15.86    0.41
  -9   2  -6   16.25    0.41
  -9   2  -6   15.79    0.40
  -9   2  -6   16.44    0.39
 -10  -2  -6    0.59    0.07
 -10  -2  -6    0.72    0.07
 -10   2  -6    0.74    0.07
 -10   2  -6    0.73    0.07
 -10   2  -6    0.86    0.08
 -11  -2  -6    0.01    0.05
 -11  -2  -6    0.03    0.04
 -11   2  -6    0.04    0.04
 -11   2  -6    0.05    0.04
 -11   2  -6    0.00    0.04
 -12  -2  -6    0.64    0.07
 -12  -2  -6    0.79    0.09
 -12   2  -6    0.68    0.08
 -12   2  -6    0.75    0.08
 -13  -2  -6    1.44    0.12
 -13  -2  -6    1.51    0.11
 -13   2  -6    1.66    0.12
 -13   2  -6    1.75    0.11
 -14  -2  -6    3.53    0.16
 -14  -2  -6    3.83    0.19
  14  -2   6    3.48    0.16
 -14   2  -6    3.72    0.18
  15  -2   6    0.05    0.05
 -15  -2  -6   -0.02    0.06
 -15   2  -6    0.00    0.06
 -16  -2  -6    7.71    0.32
 -16   2  -6    7.88    0.29
  17  -3  -6    0.44    0.10
  17   3  -6    0.50    0.17
  16  -3  -6   -0.03    0.07
 -16  -3   6    0.03    0.06
  16   3  -6   -0.05    0.07
 -16   3   6    0.00    0.06
  15  -3  -6    1.22    0.12
 -15  -3   6    1.10    0.12
 -15   3   6    0.90    0.11
  15   3  -6    0.91    0.11
 -15   3   6    0.98    0.11
 -14  -3   6   -0.02    0.05
  14  -3  -6    0.02    0.06
 -14   3   6   -0.08    0.06
 -14   3   6    0.04    0.05
  14   3  -6    0.10    0.06
  13  -3  -6    3.37    0.17
 -13  -3   6    3.43    0.17
  13   3  -6    3.50    0.17
 -13   3   6    3.49    0.18
 -13   3   6    3.40    0.17
 -12  -3   6    2.89    0.15
  12  -3  -6    2.87    0.15
 -12   3   6    2.87    0.16
  12   3  -6    2.78    0.15
 -12   3   6    3.03    0.15
 -11  -3   6    6.61    0.23
  11  -3  -6    6.65    0.23
 -11   3   6    6.29    0.22
 -11   3   6    6.72    0.24
  11   3  -6    6.65    0.22
 -10  -3   6    4.64    0.18
  10  -3  -6    4.97    0.19
  10   3  -6    4.48    0.17
 -10   3   6    4.36    0.17
 -10   3   6    4.89    0.20
  -9  -3   6    1.36    0.10
   9  -3  -6    1.22    0.10
   9   3  -6    1.35    0.10
  -9   3   6    1.31    0.09
  -9   3   6    1.47    0.12
   8  -3  -6    1.24    0.10
  -8  -3   6    1.20    0.10
   8   3  -6    1.10    0.08
  -8   3   6    1.33    0.09
  -8   3   6    1.10    0.10
  -7  -3   6    7.00    0.22
   7  -3  -6    6.70    0.21
  -7   3   6    7.00    0.23
  -7   3   6    6.87    0.20
   7   3  -6    6.92    0.20
  -6  -3   6    8.10    0.23
   6  -3  -6    7.73    0.23
   6   3  -6    7.74    0.21
  -6   3   6    8.09    0.22
  -5  -3   6   16.72    0.40
   5  -3  -6   16.78    0.40
  -5  -3   6   16.23    0.37
   5   3  -6   16.60    0.37
  -5   3   6   16.09    0.38
  -4  -3   6    4.05    0.12
   4  -3  -6    4.08    0.14
  -4  -3   6    4.13    0.15
  -4   3   6    4.22    0.16
  -4   3   6    3.97    0.13
  -3  -3   6   21.20    0.48
   3  -3  -6   21.14    0.48
   3   3  -6   20.96    0.45
   3   3  -6   20.12    0.46
  -3   3   6   21.03    0.49
  -2  -3   6   14.08    0.34
   2  -3  -6   14.17    0.34
   2   3  -6   13.76    0.30
   2   3  -6   13.91    0.33
  -2   3   6   14.14    0.35
   1  -3  -6    0.04    0.03
  -1  -3   6    0.09    0.04
   1  -3  -6    0.06    0.02
  -1   3   6    0.07    0.04
   1   3  -6    0.07    0.03
   0  -3  -6   18.65    0.40
   0  -3   6   18.57    0.43
   0  -3  -6   18.65    0.43
   0   3   6   18.29    0.43
   0   3  -6   18.37    0.42
  -1  -3  -6   90.48    1.84
  -1  -3  -6   89.18    1.80
   1  -3   6   87.95    1.83
  -1   3  -6   87.34    1.83
   1   3   6   85.94    1.82
  -2  -3  -6   45.78    0.97
   2  -3   6   45.01    0.97
  -2  -3  -6   44.16    0.93
   2   3   6   43.82    0.95
  -2   3  -6   45.40    0.96
   3  -3   6    5.95    0.18
  -3  -3  -6    5.84    0.18
  -3   3  -6    6.31    0.19
   3   3   6    5.73    0.17
  -4  -3  -6    0.89    0.08
  -4  -3  -6    0.66    0.05
   4  -3   6    0.83    0.07
   4  -3   6    0.85    0.04
   4   3   6    0.87    0.07
  -5  -3  -6   12.34    0.29
   5  -3   6   12.94    0.33
   5  -3   6   12.37    0.28
   5   3   6   12.37    0.29
   6  -3   6    2.62    0.09
   6  -3   6    2.56    0.12
  -6  -3  -6    2.57    0.10
   6   3   6    2.61    0.10
  -6   3  -6    2.57    0.12
  -7  -3  -6    1.07    0.07
   7  -3   6    1.02    0.06
  -7  -3  -6    1.03    0.08
  -7   3  -6    1.01    0.09
  -7   3  -6    0.98    0.08
  -8  -3  -6    1.65    0.09
  -8  -3  -6    1.66    0.11
   8  -3   6    1.65    0.08
  -8   3  -6    1.70    0.10
  -8   3  -6    1.60    0.11
  -9  -3  -6    0.52    0.07
   9  -3   6    0.66    0.06
  -9  -3  -6    0.78    0.07
  -9   3  -6    0.70    0.08
  -9   3  -6    0.80    0.08
 -10  -3  -6   20.55    0.52
 -10  -3  -6   20.03    0.49
  10  -3   6   20.52    0.51
 -10   3  -6   20.87    0.52
 -10   3  -6   20.36    0.51
 -11  -3  -6    9.43    0.27
 -11  -3  -6    9.37    0.29
 -11   3  -6    9.77    0.30
 -11   3  -6    9.70    0.30
 -12  -3  -6    0.97    0.10
 -12  -3  -6    1.10    0.09
 -12   3  -6    0.98    0.10
 -12   3  -6    1.15    0.11
 -13  -3  -6    6.89    0.26
 -13   3  -6    7.14    0.25
 -13   3  -6    7.08    0.26
 -14  -3  -6    7.45    0.28
 -14   3  -6    7.40    0.27
 -14   3  -6    7.54    0.26
 -15  -3  -6   12.29    0.39
 -15   3  -6   13.03    0.40
  16  -4  -6    0.52    0.10
 -16   4   6    0.69    0.11
 -16   4   6    0.42    0.10
  16   4  -6    0.77    0.11
 -15  -4   6    0.32    0.08
  15  -4  -6    0.26    0.08
 -15   4   6    0.25    0.09
  15   4  -6    0.23    0.08
 -15   4   6    0.22    0.08
 -14  -4   6    6.67    0.26
  14  -4  -6    6.71    0.26
 -14   4   6    6.14    0.25
  14   4  -6    6.54    0.24
 -14   4   6    6.58    0.26
  13  -4  -6    0.92    0.11
 -13  -4   6    0.96    0.11
 -13   4   6    0.77    0.11
  13   4  -6    0.85    0.10
 -13   4   6    0.81    0.10
  12  -4  -6   11.71    0.35
 -12  -4   6   11.40    0.36
 -12   4   6   11.20    0.35
 -12   4   6   12.26    0.37
  12   4  -6   12.35    0.34
  11  -4  -6    4.88    0.19
 -11  -4   6    4.70    0.20
  11   4  -6    5.07    0.18
 -11   4   6    4.61    0.21
 -11   4   6    4.65    0.19
 -10  -4   6   21.23    0.54
  10  -4  -6   21.93    0.54
 -10   4   6   21.45    0.53
 -10   4   6   21.18    0.55
  10   4  -6   21.01    0.51
   9  -4  -6    8.07    0.25
  -9  -4   6    7.78    0.26
  -9   4   6    8.21    0.25
  -9   4   6    8.04    0.27
   8  -4  -6    7.55    0.24
  -8  -4   6    7.03    0.24
  -8   4   6    7.29    0.25
  -8   4   6    7.72    0.23
   7  -4  -6   24.34    0.58
  -7  -4   6   24.54    0.59
  -7   4   6   24.91    0.58
  -7   4   6   24.46    0.60
  -6  -4   6    5.49    0.19
  -6  -4   6    5.60    0.16
   6  -4  -6    5.30    0.18
  -6   4   6    5.46    0.18
  -5  -4   6    4.94    0.18
   5  -4  -6    4.89    0.17
  -5  -4   6    4.95    0.14
  -5   4   6    4.51    0.18
   4  -4  -6    4.60    0.16
  -4  -4   6    4.49    0.17
   4  -4  -6    4.60    0.15
   4   4  -6    4.73    0.14
  -4   4   6    4.78    0.18
  -3  -4   6    0.10    0.05
   3  -4  -6    0.10    0.04
   3  -4  -6    0.06    0.04
   3   4  -6    0.10    0.03
  -3   4   6    0.12    0.06
   3   4  -6    0.14    0.03
   2  -4  -6    9.24    0.26
  -2  -4   6    9.71    0.27
   2  -4  -6    9.09    0.24
   2   4  -6    9.01    0.24
   2   4  -6    9.67    0.22
  -2   4   6    9.20    0.26
   1  -4  -6    7.26    0.20
  -1  -4   6    7.24    0.22
   1  -4  -6    7.54    0.22
  -1   4   6    7.55    0.22
   1   4  -6    7.40    0.21
   0  -4   6    1.08    0.09
   0  -4  -6    1.15    0.08
   0  -4  -6    1.11    0.07
   0   4  -6    1.09    0.08
   0   4   6    1.09    0.09
  -1  -4  -6    2.85    0.10
  -1  -4  -6    2.86    0.12
   1  -4   6    2.75    0.13
   1   4   6    2.81    0.12
  -1   4  -6    2.82    0.12
  -2  -4  -6    1.40    0.09
   2  -4   6    1.39    0.10
  -2  -4  -6    1.39    0.07
  -2   4  -6    1.41    0.09
   2   4   6    1.30    0.09
   3  -4   6    0.52    0.07
  -3  -4  -6    0.59    0.05
  -3  -4  -6    0.50    0.06
   3   4   6    0.53    0.06
  -3   4  -6    0.41    0.06
  -4  -4  -6    7.83    0.20
   4  -4   6    7.84    0.24
  -4  -4  -6    7.45    0.22
  -4   4  -6    6.15    0.22
   4   4   6    7.78    0.20
  -5  -4  -6   98.51    1.99
  -5  -4  -6  101.21    2.03
   5  -4   6   98.89    2.03
  -5   4  -6   86.11    2.02
   5   4   6   97.11    1.98
  -6  -4  -6    2.36    0.10
   6  -4   6    2.44    0.13
  -6  -4  -6    2.48    0.13
  -6   4  -6    2.66    0.13
  -7  -4  -6   27.65    0.62
  -7  -4  -6   27.60    0.65
   7  -4   6   27.23    0.65
  -7   4  -6   27.80    0.65
  -8  -4  -6    6.54    0.20
   8  -4   6    6.68    0.23
  -8  -4  -6    6.74    0.23
  -8   4  -6    7.07    0.23
   9  -4   6    4.56    0.19
  -9  -4  -6    4.63    0.16
  -9  -4  -6    4.53    0.19
  -9   4  -6    4.78    0.19
 -10  -4  -6    3.80    0.17
 -10  -4  -6    3.86    0.17
 -10   4  -6    3.70    0.17
 -11  -4  -6    5.69    0.22
 -11   4  -6    5.52    0.22
 -11   4  -6    5.61    0.22
 -12  -4  -6    1.60    0.13
 -12   4  -6    1.92    0.14
 -12   4  -6    1.72    0.13
 -13  -4  -6    0.89    0.11
 -13   4  -6    0.98    0.12
 -13   4  -6    0.90    0.11
 -14  -4  -6    1.63    0.14
 -14   4  -6    1.52    0.14
 -14   4  -6    1.43    0.14
 -15   4  -6    0.02    0.07
 -15   4  -6    0.05    0.06
  15  -5  -6    0.14    0.07
  15   5  -6    0.20    0.08
 -15   5   6    0.22    0.08
 -15   5   6    0.07    0.08
  14  -5  -6    0.01    0.06
 -14  -5   6    0.07    0.07
  14   5  -6    0.09    0.07
 -14   5   6    0.04    0.06
 -14   5   6   -0.05    0.07
  13  -5  -6    4.54    0.21
 -13  -5   6    4.49    0.21
 -13   5   6    4.65    0.23
  13   5  -6    4.52    0.19
 -13   5   6    4.53    0.21
  12  -5  -6    1.63    0.13
 -12  -5   6    1.39    0.13
 -12   5   6    1.92    0.15
 -12   5   6    1.59    0.13
  12   5  -6    1.78    0.13
 -11  -5   6    0.01    0.06
  11  -5  -6    0.04    0.06
 -11   5   6   -0.01    0.06
 -11   5   6   -0.03    0.05
 -10  -5   6    0.01    0.06
  10  -5  -6   -0.03    0.05
 -10   5   6   -0.04    0.06
 -10   5   6    0.01    0.05
   9  -5  -6    0.87    0.09
  -9  -5   6    0.84    0.10
  -9   5   6    0.82    0.09
  -9   5   6    0.78    0.10
  -8  -5   6    9.11    0.26
  -8  -5   6    9.45    0.30
   8  -5  -6    9.23    0.28
  -8   5   6    9.62    0.30
  -8   5   6    9.17    0.28
   7  -5  -6    3.11    0.14
   7  -5  -6    2.93    0.14
  -7  -5   6    3.08    0.12
  -7  -5   6    3.25    0.15
  -7   5   6    2.82    0.15
   6  -5  -6    0.89    0.08
  -6  -5   6    1.00    0.10
  -6  -5   6    0.99    0.08
   6  -5  -6    0.89    0.08
  -6   5   6    0.95    0.10
  -5  -5   6    2.27    0.13
   5  -5  -6    2.33    0.11
   5  -5  -6    2.50    0.12
   5   5  -6    2.18    0.10
  -5   5   6    2.05    0.13
  -4  -5   6    0.67    0.08
   4  -5  -6    0.88    0.08
   4  -5  -6    0.69    0.07
  -4   5   6    0.68    0.09
   4   5  -6    0.82    0.07
  -3  -5   6    1.23    0.10
   3  -5  -6    1.00    0.09
   3  -5  -6    0.99    0.08
  -3   5   6    0.96    0.09
   3   5  -6    1.11    0.07
  -2  -5   6    2.38    0.14
   2  -5  -6    2.27    0.12
   2  -5  -6    2.28    0.11
   2   5  -6    2.35    0.11
  -2   5   6    2.35    0.13
  -1  -5   6    0.02    0.06
   1  -5  -6    0.08    0.05
   1  -5  -6    0.04    0.04
  -1   5   6   -0.05    0.05
   1   5  -6    0.07    0.04
   0  -5   6    0.17    0.06
   0  -5  -6    0.24    0.05
   0  -5  -6    0.23    0.05
   0   5  -6    0.17    0.05
   0   5   6    0.26    0.06
  -1  -5  -6   11.20    0.29
   1  -5   6   11.48    0.32
  -1  -5  -6   11.17    0.31
  -1   5  -6   11.39    0.31
   1   5   6   11.00    0.30
  -2  -5  -6    2.40    0.12
  -2  -5  -6    2.35    0.11
   2  -5   6    2.28    0.13
  -2   5  -6    2.18    0.12
   2   5   6    2.51    0.12
  -3  -5  -6    5.52    0.19
   3  -5   6    5.77    0.21
  -3  -5  -6    5.60    0.18
  -3   5  -6    5.60    0.20
   3   5   6    5.87    0.18
  -4  -5  -6    0.64    0.06
   4  -5   6    0.79    0.09
  -4  -5  -6    0.70    0.08
  -4   5  -6    0.58    0.08
   4   5   6    0.67    0.07
  -5  -5  -6    0.22    0.05
   5  -5   6    0.10    0.06
  -5  -5  -6    0.21    0.06
  -5   5  -6    0.18    0.06
  -6  -5  -6    0.18    0.06
  -6  -5  -6    0.31    0.05
   6  -5   6    0.24    0.07
  -6   5  -6    0.24    0.06
  -7  -5  -6    1.57    0.11
  -7  -5  -6    1.52    0.10
   7  -5   6    1.62    0.12
  -7   5  -6    1.68    0.12
  -8  -5  -6    0.10    0.06
   8  -5   6    0.01    0.06
  -8   5  -6    0.11    0.06
   9  -5   6    0.88    0.10
  -9  -5  -6    0.60    0.08
  -9   5  -6    0.78    0.10
 -10  -5  -6    1.83    0.13
  10  -5   6    1.83    0.14
 -10   5  -6    1.80    0.13
  11  -5   6    0.09    0.06
 -11  -5  -6    0.02    0.06
 -11   5  -6    0.05    0.06
 -12  -5  -6    2.07    0.15
  12  -5   6    1.95    0.15
 -12   5  -6    2.09    0.15
 -13  -5  -6    0.01    0.07
  13  -5   6    0.08    0.07
 -13   5  -6    0.01    0.06
 -14   5  -6    0.21    0.08
  13  -6  -6   -0.06    0.06
 -13  -6   6   -0.11    0.06
 -13   6   6   -0.17    0.07
  12  -6  -6    0.24    0.07
 -12  -6   6    0.17    0.08
 -12   6   6    0.12    0.08
 -11  -6   6    0.11    0.07
  11  -6  -6    0.17    0.07
  11  -6  -6    0.03    0.05
 -11   6   6    0.08    0.08
  10  -6  -6    6.47    0.25
 -10  -6   6    6.75    0.26
  10  -6  -6    6.83    0.25
 -10   6   6    7.06    0.27
   9  -6  -6    1.80    0.13
   9  -6  -6    1.87    0.13
  -9  -6   6    1.84    0.15
  -9   6   6    2.15    0.16
  -8  -6   6   39.24    0.92
   8  -6  -6   38.78    0.90
   8  -6  -6   38.63    0.91
  -8   6   6   40.11    0.94
  -7  -6   6   -0.01    0.06
   7  -6  -6    0.03    0.05
   7  -6  -6    0.05    0.05
  -7   6   6    0.08    0.07
  -6  -6   6    3.31    0.17
   6  -6  -6    3.38    0.15
   6  -6  -6    3.39    0.15
  -6   6   6    3.43    0.18
  -5  -6   6    2.64    0.15
   5  -6  -6    2.52    0.13
   5  -6  -6    2.90    0.14
  -5   6   6    2.86    0.16
  -4  -6   6    2.69    0.14
   4  -6  -6    2.66    0.13
   4  -6  -6    2.86    0.14
  -4   6   6    2.73    0.15
  -3  -6   6    0.15    0.06
   3  -6  -6    0.05    0.04
   3  -6  -6    0.13    0.05
   3   6  -6    0.14    0.04
  -3   6   6    0.01    0.06
  -2  -6   6    2.40    0.14
   2  -6  -6    2.38    0.13
   2  -6  -6    2.29    0.12
  -2   6   6    2.31    0.13
   2   6  -6    2.26    0.11
   1  -6  -6    2.72    0.13
  -1  -6   6    2.89    0.15
   1  -6  -6    3.07    0.14
  -1   6   6    2.78    0.15
   1   6  -6    2.93    0.13
   0  -6  -6    0.08    0.05
   0  -6  -6    0.04    0.05
   0  -6   6    0.16    0.06
   0   6   6    0.13    0.05
   0   6  -6    0.07    0.05
  -1  -6  -6   17.74    0.44
  -1  -6  -6   17.87    0.46
   1  -6   6   18.23    0.48
   1   6   6   18.16    0.45
  -1   6  -6   18.65    0.46
  -2  -6  -6    9.40    0.26
   2  -6   6    8.93    0.29
  -2  -6  -6    9.14    0.27
  -2   6  -6    9.54    0.28
   2   6   6    9.39    0.27
   3  -6   6    3.13    0.17
  -3  -6  -6    3.35    0.14
  -3  -6  -6    3.22    0.15
  -3   6  -6    3.32    0.16
  -4  -6  -6    6.54    0.21
  -4  -6  -6    6.44    0.22
   4  -6   6    6.27    0.24
  -4   6  -6    6.32    0.23
   5  -6   6   12.13    0.37
  -5  -6  -6   12.80    0.36
  -5   6  -6   12.67    0.37
  -6  -6  -6   17.73    0.47
   6  -6   6   18.17    0.49
  -6   6  -6   18.06    0.48
   7  -6   6    5.24    0.23
  -7  -6  -6    5.72    0.22
  -7   6  -6    5.82    0.23
  -8  -6  -6    0.73    0.09
   8  -6   6    0.75    0.10
  -8   6  -6    0.63    0.09
  -9  -6  -6    0.08    0.06
   9  -6   6    0.20    0.07
  -9   6  -6    0.10    0.07
 -10  -6  -6    0.07    0.06
  10  -6   6    0.24    0.08
 -10   6  -6    0.13    0.07
  11  -6   6   10.72    0.37
 -11  -6  -6   11.20    0.36
 -11   6  -6   11.29    0.37
 -12  -6  -6    1.87    0.15
  12  -6   6    1.51    0.15
 -12   6  -6    1.92    0.16
  12  -7  -6    2.49    0.17
  11  -7  -6    0.14    0.07
 -11  -7   6    0.12    0.08
 -11   7   6    0.02    0.08
  10  -7  -6    0.21    0.07
 -10  -7   6    0.05    0.07
 -10   7   6    0.02    0.08
  -9  -7   6    0.02    0.07
   9  -7  -6    0.14    0.07
  -9   7   6    0.07    0.08
  -8  -7   6    2.52    0.17
   8  -7  -6    2.33    0.15
   8  -7  -6    2.45    0.14
  -8   7   6    2.17    0.16
   7  -7  -6    2.31    0.14
   7  -7  -6    2.29    0.15
  -7  -7   6    2.30    0.16
  -7   7   6    2.30    0.16
   6  -7  -6    0.03    0.05
   6  -7  -6    0.08    0.05
  -6  -7   6   -0.06    0.06
  -6   7   6    0.04    0.06
   5  -7  -6    3.76    0.17
  -5  -7   6    3.83    0.19
   5  -7  -6    3.39    0.16
  -5   7   6    3.85    0.19
   4  -7  -6    8.66    0.28
  -4  -7   6    8.79    0.30
   4  -7  -6    9.11    0.29
  -4   7   6    8.99    0.30
   3  -7  -6    8.93    0.28
   3  -7  -6    9.19    0.29
  -3  -7   6    8.85    0.30
  -3   7   6    9.31    0.30
   2  -7  -6    0.56    0.08
  -2  -7   6    0.64    0.10
   2  -7  -6    0.69    0.08
   2   7  -6    0.66    0.07
  -2   7   6    0.58    0.09
   1  -7  -6    3.18    0.15
  -1  -7   6    3.11    0.17
   1  -7  -6    3.11    0.15
  -1   7   6    3.14    0.16
   1   7  -6    3.06    0.14
   0  -7  -6    4.59    0.18
   0  -7   6    4.70    0.21
   0  -7  -6    4.33    0.18
   0   7  -6    4.62    0.18
   0   7   6    4.48    0.19
  -1  -7  -6    3.12    0.15
  -1  -7  -6    3.31    0.17
   1  -7   6    3.08    0.17
  -1   7  -6    3.20    0.16
   1   7   6    3.13    0.15
  -2  -7  -6   11.00    0.32
   2  -7   6   11.08    0.35
  -2   7  -6   10.85    0.33
   3  -7   6   10.83    0.35
  -3  -7  -6   11.32    0.33
  -3   7  -6   10.86    0.33
  -4  -7  -6    0.58    0.08
   4  -7   6    0.78    0.10
  -4   7  -6    0.74    0.09
  -5  -7  -6   -0.02    0.05
   5  -7   6    0.05    0.07
  -5   7  -6    0.00    0.05
  -6  -7  -6    0.73    0.09
   6  -7   6    0.61    0.10
  -6   7  -6    0.86    0.11
  -7  -7  -6    1.23    0.12
   7  -7   6    1.05    0.13
  -7   7  -6    1.26    0.12
   8  -7   6    0.38    0.09
  -8  -7  -6    0.34    0.08
  -8   7  -6    0.31    0.08
   9  -7   6    5.99    0.27
  -9  -7  -6    5.81    0.24
  -9   7  -6    5.98    0.26
 -10  -7  -6    5.64    0.24
  10  -7   6    5.86    0.27
 -10   7  -6    5.83    0.29
  10  -8  -6    0.05    0.07
   9  -8  -6    2.13    0.16
  -8  -8   6    3.30    0.21
   8  -8  -6    3.67    0.20
  -8   8   6    4.07    0.22
   7  -8  -6    0.13    0.07
  -7  -8   6    0.08    0.07
  -7   8   6    0.00    0.08
  -6  -8   6    0.89    0.12
   6  -8  -6    0.96    0.11
  -6   8   6    0.99    0.12
  -5  -8   6    0.06    0.08
   5  -8  -6    0.02    0.06
  -5   8   6   -0.07    0.06
  -4  -8   6    0.98    0.12
   4  -8  -6    0.95    0.11
  -4   8   6    1.02    0.12
  -3  -8   6    3.04    0.19
   3  -8  -6    3.09    0.20
  -3   8   6    2.76    0.17
  -2  -8   6    0.14    0.08
  -2   8   6    0.07    0.07
  -1  -8   6    0.24    0.08
   1  -8  -6    0.22    0.09
  -1   8   6    0.21    0.07
   0  -8   6    2.37    0.16
   0  -8  -6    2.55    0.14
   0   8  -6    2.17    0.14
   1  -8   6    2.66    0.18
  -1  -8  -6    2.44    0.14
  -1   8  -6    2.74    0.15
   2  -8   6    0.46    0.10
  -2  -8  -6    0.45    0.08
  -2   8  -6    0.54    0.09
   3  -8   6    4.91    0.24
  -3  -8  -6    4.85    0.20
  -3   8  -6    4.67    0.21
   4  -8   6    3.92    0.21
  -4  -8  -6    3.77    0.19
  -4   8  -6    4.20    0.20
  -5  -8  -6    0.32    0.07
   5  -8   6    0.27    0.09
  -5   8  -6    0.18    0.08
  -6  -8  -6    0.01    0.06
   6  -8   6   -0.01    0.07
  -6   8  -6   -0.01    0.06
   7  -8   6    0.98    0.13
  -7  -8  -6    0.80    0.10
  -7   8  -6    0.96    0.12
  -8  -8  -6    0.18    0.07
  -5   9   6   -0.01    0.07
  -4   9   6    3.15    0.20
  -3   9   6    1.46    0.14
  -2  -9   6    1.77    0.21
  -1  -9   6    0.36    0.12
   0  -9   6    3.00    0.23
   1  -9   6    0.23    0.13
  -2   9  -6    4.74    0.22
  -3   9  -6    0.03    0.06
  -4   9  -6    1.32    0.14
 -17   0   7    0.06    0.06
  17   0  -7    0.11    0.08
  16   0  -7    0.00    0.06
 -16   0   7   -0.07    0.04
  15   0  -7   -0.02    0.06
 -15   0   7    0.01    0.05
  14   0  -7   -0.04    0.06
 -14   0   7    0.10    0.05
 -13   0   7    0.01    0.04
  13   0  -7    0.08    0.06
 -12   0   7    0.02    0.06
 -12   0   7    0.03    0.04
  12   0  -7    0.06    0.06
 -11   0   7    0.02    0.04
  11   0  -7   -0.02    0.05
 -11   0   7   -0.08    0.04
 -10   0   7   -0.02    0.05
  10   0  -7   -0.04    0.05
 -10   0   7   -0.01    0.04
  -9   0   7    0.02    0.03
   9   0  -7    0.00    0.04
  -9   0   7   -0.07    0.05
   8   0  -7    0.00    0.04
  -8   0   7   -0.02    0.03
  -8   0   7    0.18    0.05
  -7   0   7    0.03    0.04
  -7   0   7    0.04    0.03
   7   0  -7   -0.02    0.03
   6   0  -7    0.03    0.03
  -6   0   7    0.08    0.04
  -6   0   7   -0.03    0.02
   5   0  -7    0.05    0.03
  -5   0   7   -0.01    0.02
  -5   0   7    0.00    0.03
  -4   0   7    0.03    0.02
   4   0  -7    0.02    0.03
  -4   0   7    0.01    0.03
   3   0  -7   -0.07    0.02
  -3   0   7    0.09    0.04
  -3   0   7    0.00    0.02
  -2   0   7    0.01    0.01
  -2   0   7   -0.02    0.02
   2   0  -7    0.01    0.01
  -1   0   7    0.02    0.01
  -1   0   7    0.01    0.01
   1   0  -7   -0.01    0.01
   0   0  -7   -0.03    0.01
   0   0   7   -0.01    0.01
   0   0   7   -0.03    0.02
  -1   0  -7   -0.05    0.01
   1   0   7   -0.03    0.01
   1   0   7   -0.06    0.02
   2   0   7    0.00    0.01
  -2   0  -7   -0.01    0.02
   2   0   7   -0.04    0.02
  -3   0  -7    0.01    0.02
  -3   0  -7    0.01    0.02
  -4   0  -7    0.01    0.02
  -4   0  -7    0.01    0.02
  -4   0  -7    0.01    0.02
  -5   0  -7    0.00    0.01
  -5   0  -7   -0.02    0.03
  -5   0  -7   -0.01    0.03
  -6   0  -7    0.00    0.02
  -6   0  -7   -0.01    0.03
  -6   0  -7    0.03    0.03
  -7   0  -7   -0.04    0.03
  -7   0  -7    0.04    0.04
  -7   0  -7    0.04    0.03
  -8   0  -7    0.04    0.03
  -8   0  -7   -0.02    0.03
  -8   0  -7   -0.04    0.03
  -9   0  -7    0.00    0.03
  -9   0  -7   -0.04    0.04
  -9   0  -7    0.01    0.03
 -10   0  -7    0.04    0.04
 -10   0  -7    0.01    0.04
 -10   0  -7   -0.02    0.03
 -11   0  -7    0.02    0.04
 -11   0  -7    0.05    0.04
 -12   0  -7    0.06    0.05
 -12   0  -7    0.01    0.04
 -13   0  -7    0.02    0.04
 -13   0  -7    0.00    0.05
 -14   0  -7    0.07    0.05
 -14   0  -7    0.00    0.04
 -15   0  -7   -0.04    0.05
 -15   0  -7    0.00    0.05
 -16   0  -7    0.00    0.06
 -17  -1   7    5.42    0.24
  17  -1  -7    5.03    0.24
  17   1  -7    5.43    0.25
 -17   1   7    4.95    0.23
 -16  -1   7    0.65    0.10
  16  -1  -7    0.67    0.11
  16   1  -7    0.61    0.10
 -16   1   7    0.52    0.09
  15  -1  -7    0.12    0.07
 -15  -1   7    0.19    0.06
  15   1  -7    0.19    0.08
 -15   1   7    0.34    0.07
  14  -1  -7    2.64    0.16
 -14  -1   7    2.65    0.15
 -14   1   7    2.62    0.15
  14   1  -7    2.86    0.16
 -13  -1   7   22.92    0.58
  13  -1  -7   24.07    0.59
 -13   1   7   23.99    0.57
 -13   1   7   23.01    0.58
  13   1  -7   23.36    0.59
 -12  -1   7    5.80    0.21
  12  -1  -7    5.65    0.21
 -12   1   7    5.61    0.20
 -12   1   7    5.45    0.20
  12   1  -7    5.91    0.21
  11  -1  -7   19.44    0.49
 -11  -1   7   18.76    0.48
 -11   1   7   19.04    0.48
  11   1  -7   19.57    0.48
 -11   1   7   19.17    0.48
 -10  -1   7    0.26    0.05
  10  -1  -7    0.22    0.06
 -10  -1   7    0.27    0.05
  10   1  -7    0.32    0.06
 -10   1   7    0.26    0.06
 -10   1   7    0.32    0.06
  -9  -1   7    0.11    0.05
   9  -1  -7    0.03    0.02
  -9  -1   7    0.14    0.04
   9   1  -7    0.08    0.05
  -9   1   7    0.02    0.05
  -9   1   7    0.13    0.04
  -8  -1   7    0.20    0.04
  -8  -1   7    0.17    0.05
  -8   1   7    0.12    0.04
  -8   1   7    0.20    0.06
   8   1  -7    0.11    0.04
  -7  -1   7    0.80    0.07
  -7  -1   7    0.93    0.07
   7  -1  -7    0.85    0.07
   7   1  -7    0.74    0.06
  -7   1   7    0.72    0.06
  -7   1   7    0.73    0.07
   6  -1  -7    0.10    0.04
  -6  -1   7    0.06    0.04
  -6  -1   7    0.06    0.03
   6   1  -7    0.02    0.03
  -6   1   7    0.25    0.04
  -6   1   7    0.11    0.05
  -5  -1   7    1.39    0.08
  -5  -1   7    1.35    0.07
   5  -1  -7    1.33    0.08
   5   1  -7    1.35    0.07
  -5   1   7    1.39    0.06
  -5   1   7    1.46    0.09
   4  -1  -7   32.28    0.70
  -4  -1   7   32.15    0.70
  -4  -1   7   31.93    0.69
  -4   1   7   32.08    0.68
  -4   1   7   32.43    0.71
   4   1  -7   32.67    0.69
  -3  -1   7   71.68    1.47
  -3  -1   7   69.28    1.48
   3  -1  -7   71.71    1.48
  -3   1   7   71.29    1.49
  -3   1   7   72.18    1.48
   2  -1  -7   19.08    0.43
  -2  -1   7   18.66    0.42
  -2  -1   7   18.82    0.41
  -2   1   7   18.59    0.39
   2   1  -7   18.64    0.41
   1  -1  -7    0.10    0.03
  -1  -1   7    0.05    0.02
  -1  -1   7    0.08    0.03
  -1   1   7    0.09    0.04
   1   1  -7    0.08    0.02
  -1   1   7    0.13    0.01
   0  -1  -7    7.33    0.20
   0  -1   7    7.39    0.18
   0   1  -7    7.68    0.18
   0   1   7    7.67    0.20
   1  -1   7  129.07    2.61
  -1  -1  -7  127.30    2.62
  -1   1  -7  128.44    2.60
   1   1   7  128.18    2.67
  -2  -1  -7   72.47    1.51
   2  -1   7   72.83    1.50
   2   1   7   73.03    1.52
  -2   1  -7   73.50    1.49
  -2   1  -7   73.00    1.51
  -3  -1  -7    0.91    0.03
   3  -1   7    0.80    0.05
  -3  -1  -7    0.94    0.06
  -3   1  -7    0.94    0.06
   3   1   7    0.95    0.06
  -4  -1  -7   52.50    1.04
  -4  -1  -7   52.40    1.08
  -4   1  -7   47.91    1.05
  -4   1  -7   51.71    1.07
   4   1   7   51.55    1.07
  -4   1  -7   47.73    1.06
  -5  -1  -7    0.01    0.02
  -5  -1  -7    0.03    0.03
  -5   1  -7    0.04    0.03
  -5   1  -7    0.03    0.03
   5   1   7    0.00    0.02
  -5   1  -7    0.11    0.03
  -6  -1  -7    1.54    0.09
  -6  -1  -7    1.74    0.07
   6   1   7    1.68    0.08
  -6   1  -7    1.67    0.08
  -6   1  -7    1.73    0.08
  -6   1  -7    1.65    0.09
  -7  -1  -7    1.64    0.08
  -7  -1  -7    1.76    0.10
  -7   1  -7    1.68    0.08
  -7   1  -7    1.84    0.09
  -7   1  -7    1.65    0.08
   7   1   7    1.68    0.08
  -8  -1  -7   24.47    0.57
  -8  -1  -7   23.83    0.55
   8   1   7   25.71    0.55
  -8   1  -7   24.85    0.56
  -8   1  -7   24.48    0.56
  -8   1  -7   24.63    0.57
  -9  -1  -7    0.10    0.05
  -9  -1  -7    0.13    0.04
   9   1   7    0.18    0.04
  -9   1  -7    0.17    0.04
  -9   1  -7    0.12    0.04
  -9   1  -7    0.14    0.04
 -10  -1  -7    1.94    0.10
 -10  -1  -7    1.52    0.11
 -10   1  -7    1.81    0.10
 -10   1  -7    1.86    0.10
 -10   1  -7    1.75    0.10
 -11  -1  -7    4.57    0.16
 -11  -1  -7    4.90    0.18
 -11   1  -7    4.44    0.17
 -11   1  -7    4.70    0.17
 -11   1  -7    4.59    0.17
 -12  -1  -7    0.08    0.05
 -12  -1  -7    0.14    0.05
 -12   1  -7    0.04    0.04
 -12   1  -7    0.07    0.05
 -12   1  -7    0.01    0.04
 -13  -1  -7    4.09    0.18
 -13  -1  -7    3.99    0.17
 -13   1  -7    3.88    0.17
 -13   1  -7    4.20    0.18
 -14  -1  -7    9.37    0.31
 -14  -1  -7    9.11    0.36
 -14   1  -7    9.55    0.30
 -14   1  -7    9.00    0.30
 -15  -1  -7    5.27    0.23
 -15   1  -7    5.38    0.22
 -15   1  -7    6.07    0.23
 -16  -1  -7    2.56    0.17
 -16   1  -7    2.57    0.16
  17  -1   7   10.61    0.42
  17  -2  -7    0.35    0.09
 -17  -2   7    0.24    0.08
  17   2  -7    0.25    0.09
 -17   2   7    0.32    0.08
  16  -2  -7    4.11    0.21
 -16  -2   7    4.33    0.21
  16   2  -7    4.59    0.22
 -16   2   7    4.22    0.21
 -15  -2   7    0.09    0.06
  15  -2  -7    0.05    0.06
  15   2  -7    0.15    0.07
 -15   2   7    0.15    0.06
  14  -2  -7    0.16    0.07
 -14  -2   7    0.04    0.05
 -14   2   7    0.03    0.06
  14   2  -7    0.10    0.06
 -14   2   7    0.17    0.06
 -13  -2   7   -0.03    0.05
  13  -2  -7    0.02    0.05
 -13   2   7    0.04    0.05
  13   2  -7   -0.02    0.06
 -13   2   7    0.00    0.06
 -12  -2   7    0.06    0.05
  12  -2  -7    0.07    0.06
 -12   2   7    0.04    0.05
 -12   2   7    0.05    0.06
  12   2  -7   -0.04    0.05
  11  -2  -7    2.79    0.15
 -11  -2   7    2.68    0.14
 -11   2   7    2.65    0.14
  11   2  -7    3.07    0.14
 -11   2   7    2.74    0.13
 -10  -2   7   21.76    0.53
  10  -2  -7   21.63    0.53
 -10   2   7   22.13    0.54
 -10   2   7   21.61    0.53
  10   2  -7   21.41    0.52
   9  -2  -7   13.61    0.36
  -9  -2   7   13.22    0.35
  -9  -2   7   13.18    0.33
   9   2  -7   13.13    0.34
  -9   2   7   13.45    0.36
  -9   2   7   13.24    0.35
  -8  -2   7    6.78    0.19
   8  -2  -7    5.56    0.21
  -8  -2   7    7.21    0.22
  -8   2   7    7.14    0.23
   8   2  -7    6.99    0.20
  -8   2   7    7.10    0.21
  -7  -2   7   14.46    0.34
  -7  -2   7   14.18    0.36
  -7   2   7   13.89    0.36
   7   2  -7   13.74    0.34
  -7   2   7   13.93    0.34
  -6  -2   7    2.14    0.09
  -6  -2   7    2.09    0.10
   6  -2  -7    2.12    0.10
  -6   2   7    1.99    0.11
   6   2  -7    2.03    0.09
  -6   2   7    1.91    0.09
  -5  -2   7    3.32    0.11
   5  -2  -7    3.31    0.13
  -5  -2   7    3.39    0.12
   5   2  -7    3.41    0.11
  -5   2   7    3.07    0.11
  -5   2   7    3.30    0.14
  -4  -2   7   22.61    0.50
  -4  -2   7   22.07    0.49
  -4   2   7   22.03    0.48
  -3  -2   7   70.39    1.49
  -3  -2   7   72.21    1.50
   3   2  -7   72.55    1.48
  -3   2   7   72.82    1.51
  -3   2   7   71.50    1.47
  -2  -2   7   34.15    0.74
  -2   2   7   34.86    0.75
  -2   2   7   34.27    0.72
   2   2  -7   34.60    0.72
   1  -2  -7    0.09    0.02
   1  -2  -7    0.20    0.02
  -1  -2   7    0.15    0.03
   1   2  -7    0.15    0.02
  -1   2   7    0.20    0.04
   1   2  -7    0.19    0.03
   0  -2   7    2.65    0.10
   0  -2  -7    2.22    0.10
   0  -2  -7    2.61    0.06
   0   2  -7    2.69    0.10
   0   2  -7    2.66    0.07
   0   2   7    2.81    0.11
   1  -2   7   10.59    0.26
  -1  -2  -7   10.37    0.22
  -1  -2  -7   10.35    0.27
  -1   2  -7   10.54    0.26
  -1   2  -7   10.38    0.23
   1   2   7   10.32    0.26
   2  -2   7   26.64    0.57
  -2  -2  -7   26.07    0.58
  -2  -2  -7   25.28    0.53
   2   2   7   25.99    0.58
  -2   2  -7   26.04    0.54
  -3  -2  -7    0.68    0.03
   3  -2   7    0.67    0.06
  -3  -2  -7    0.68    0.06
   3   2   7    0.75    0.06
  -3   2  -7    0.69    0.06
  -3   2  -7    0.76    0.04
  -4  -2  -7    0.88    0.07
  -4  -2  -7    0.97    0.04
   4  -2   7    0.91    0.07
  -4   2  -7    0.99    0.07
   4   2   7    1.03    0.07
  -4   2  -7    0.94    0.05
  -5  -2  -7   13.26    0.33
   5  -2   7   12.64    0.32
  -5   2  -7   12.99    0.33
   5   2   7   12.33    0.31
  -6  -2  -7    4.50    0.16
  -6  -2  -7    4.10    0.12
  -6   2  -7    4.12    0.12
  -6   2  -7    4.11    0.15
   6   2   7    3.81    0.13
  -6   2  -7    3.94    0.14
  -7  -2  -7   37.54    0.79
  -7  -2  -7   38.24    0.83
  -7   2  -7   36.88    0.82
   7   2   7   35.95    0.80
  -7   2  -7   36.34    0.81
  -7   2  -7   37.54    0.80
  -8  -2  -7   13.21    0.32
  -8  -2  -7   13.58    0.35
   8   2   7   12.69    0.31
  -8   2  -7   13.02    0.34
  -8   2  -7   13.15    0.32
  -8   2  -7   13.02    0.34
  -9  -2  -7    3.64    0.15
  -9  -2  -7    3.58    0.13
  -9   2  -7    3.71    0.15
  -9   2  -7    3.70    0.13
  -9   2  -7    3.40    0.14
 -10  -2  -7   14.90    0.37
 -10  -2  -7   14.74    0.40
 -10   2  -7   14.74    0.38
 -10   2  -7   14.77    0.37
 -10   2  -7   14.51    0.39
 -11  -2  -7    7.89    0.26
 -11  -2  -7    8.06    0.24
 -11   2  -7    8.59    0.25
 -11   2  -7    8.13    0.25
 -11   2  -7    8.29    0.26
 -12  -2  -7   26.91    0.66
 -12  -2  -7   28.04    0.71
 -12   2  -7   25.87    0.65
 -12   2  -7   26.76    0.63
 -12   2  -7   26.43    0.64
 -13  -2  -7   10.16    0.32
 -13   2  -7   10.13    0.30
 -13   2  -7   10.08    0.31
 -14  -2  -7    7.04    0.27
 -14   2  -7    7.16    0.26
 -15  -2  -7    0.09    0.07
 -15   2  -7   -0.03    0.05
 -16   2  -7    0.06    0.06
  16  -3  -7    0.35    0.09
 -16  -3   7    0.24    0.08
  16   3  -7    0.20    0.09
 -16   3   7    0.32    0.08
 -15  -3   7    0.15    0.07
  15  -3  -7    0.19    0.07
 -15   3   7    0.12    0.07
 -15   3   7    0.12    0.08
  15   3  -7    0.16    0.07
 -14  -3   7    1.65    0.13
  14  -3  -7    1.58    0.14
 -14   3   7    1.63    0.14
  14   3  -7    1.54    0.13
 -14   3   7    1.62    0.13
  13  -3  -7    0.74    0.10
 -13  -3   7    0.57    0.08
 -13   3   7    0.87    0.10
 -13   3   7    0.77    0.09
  13   3  -7    0.70    0.09
  12  -3  -7    0.01    0.06
 -12  -3   7    0.14    0.05
 -12   3   7    0.14    0.05
 -12   3   7    0.04    0.06
  12   3  -7    0.12    0.06
 -11  -3   7    0.42    0.07
  11  -3  -7    0.39    0.07
 -11   3   7    0.47    0.09
  11   3  -7    0.45    0.07
 -11   3   7    0.43    0.07
  10  -3  -7   12.68    0.36
 -10  -3   7   12.50    0.36
 -10   3   7   13.10    0.37
  10   3  -7   13.46    0.35
 -10   3   7   12.36    0.35
   9  -3  -7    2.34    0.13
  -9  -3   7    2.30    0.12
  -9   3   7    2.14    0.11
  -9   3   7    2.04    0.13
   9   3  -7    2.06    0.11
  -8  -3   7    6.94    0.23
   8  -3  -7    6.56    0.22
  -8   3   7    6.94    0.24
   8   3  -7    6.85    0.21
  -8   3   7    6.97    0.21
  -7  -3   7   17.23    0.44
   7  -3  -7   17.48    0.43
  -7  -3   7   17.72    0.40
  -7   3   7   17.15    0.44
  -7   3   7   17.35    0.42
   7   3  -7   17.57    0.41
  -6  -3   7    0.86    0.07
   6  -3  -7    0.93    0.08
  -6  -3   7    0.85    0.08
   6   3  -7    0.86    0.07
  -6   3   7    0.93    0.07
  -5  -3   7    2.20    0.11
   5  -3  -7    2.18    0.11
  -5  -3   7    2.22    0.09
  -5   3   7    2.14    0.09
   5   3  -7    2.06    0.08
  -4  -3   7    0.38    0.06
   4  -3  -7    0.34    0.05
  -4  -3   7    0.30    0.04
  -4   3   7    0.36    0.04
  -4   3   7    0.23    0.06
   3  -3  -7    0.02    0.04
  -3  -3   7    0.04    0.03
   3  -3  -7    0.09    0.03
   3   3  -7    0.07    0.03
  -3   3   7    0.05    0.05
   3   3  -7    0.07    0.02
  -2  -3   7   20.75    0.48
   2  -3  -7   20.88    0.48
   2   3  -7   19.99    0.43
  -2   3   7   20.50    0.48
   2   3  -7   20.28    0.46
  -1  -3   7   10.07    0.26
   1  -3  -7    9.75    0.26
   1  -3  -7    9.94    0.23
   1   3  -7    9.57    0.25
  -1   3   7    9.62    0.26
   0  -3   7    9.05    0.24
   0  -3  -7    9.06    0.21
   0  -3  -7    9.14    0.25
   0   3  -7    8.83    0.24
   0   3   7    9.12    0.24
   1  -3   7   38.82    0.86
  -1  -3  -7   38.99    0.82
  -1  -3  -7   40.61    0.86
   1   3   7   38.72    0.85
  -1   3  -7   39.75    0.85
   2  -3   7    8.58    0.24
  -2  -3  -7    8.38    0.20
  -2  -3  -7    8.83    0.24
  -2   3  -7    8.59    0.24
   2   3   7    8.61    0.23
   3  -3   7    9.73    0.21
  -3  -3  -7   10.05    0.23
   3  -3   7    9.88    0.27
   3   3   7    9.50    0.25
  -5  -3  -7    2.16    0.08
   5  -3   7    2.19    0.11
   5   3   7    2.00    0.09
  -5   3  -7    2.01    0.11
  -6  -3  -7    0.58    0.06
  -6  -3  -7    1.00    0.06
   6  -3   7    1.02    0.09
  -6   3  -7    0.82    0.08
   6   3   7    0.98    0.07
  -7  -3  -7    5.57    0.19
   7  -3   7    5.37    0.19
  -7  -3  -7    5.37    0.16
  -7   3  -7    5.22    0.19
  -8  -3  -7   10.11    0.26
  -8  -3  -7    9.87    0.29
  -8   3  -7    9.42    0.28
  -9  -3  -7    0.02    0.05
  -9  -3  -7    0.03    0.03
  -9   3  -7    0.08    0.05
  -9   3  -7    0.06    0.05
 -10  -3  -7    8.96    0.28
 -10   3  -7    9.00    0.28
 -10   3  -7    9.31    0.28
 -11  -3  -7    1.12    0.10
 -11   3  -7    1.18    0.11
 -11   3  -7    1.14    0.10
 -12  -3  -7    0.62    0.09
 -12   3  -7    0.45    0.07
 -12   3  -7    0.56    0.08
 -13  -3  -7    0.15    0.06
 -13   3  -7    0.14    0.06
 -13   3  -7    0.09    0.05
 -14  -3  -7    1.60    0.14
 -14   3  -7    1.50    0.13
 -14   3  -7    1.49    0.12
 -15  -3  -7    0.80    0.13
 -15   3  -7    0.91    0.11
  16  -4  -7   -0.09    0.06
 -16   4   7    0.04    0.07
 -16   4   7   -0.05    0.07
  16   4  -7    0.00    0.07
 -15  -4   7    0.15    0.07
  15  -4  -7    0.20    0.08
 -15   4   7    0.21    0.07
  15   4  -7    0.29    0.08
 -15   4   7    0.10    0.08
 -14  -4   7    0.45    0.09
  14  -4  -7    0.52    0.09
 -14   4   7    0.44    0.10
  14   4  -7    0.42    0.08
 -14   4   7    0.58    0.10
  13  -4  -7   10.05    0.33
 -13  -4   7    9.93    0.33
 -13   4   7   10.54    0.35
  13   4  -7   10.58    0.32
 -13   4   7    9.93    0.33
 -12  -4   7    1.92    0.14
  12  -4  -7    1.78    0.13
 -12   4   7    1.90    0.15
  12   4  -7    1.78    0.13
 -12   4   7    1.77    0.13
 -11  -4   7    1.91    0.13
  11  -4  -7    1.63    0.12
  11   4  -7    1.64    0.12
 -11   4   7    1.84    0.15
 -11   4   7    1.83    0.12
 -10  -4   7    0.90    0.09
  10  -4  -7    0.90    0.10
 -10   4   7    0.91    0.11
 -10   4   7    0.92    0.09
  10   4  -7    1.09    0.09
  -9  -4   7    1.34    0.11
   9  -4  -7    1.32    0.10
   9   4  -7    1.34    0.09
  -9   4   7    1.33    0.10
  -9   4   7    1.29    0.12
   8  -4  -7   10.16    0.29
  -8  -4   7    9.42    0.29
   8   4  -7   10.02    0.27
  -8   4   7   10.14    0.28
  -8   4   7    9.78    0.31
  -7  -4   7   14.01    0.38
   7  -4  -7   13.67    0.37
  -7   4   7   14.35    0.39
   7   4  -7   13.54    0.34
  -7   4   7   13.98    0.36
  -6  -4   7    0.02    0.03
   6  -4  -7    0.06    0.05
  -6  -4   7    0.13    0.06
   6   4  -7    0.04    0.03
  -6   4   7    0.02    0.06
  -6   4   7    0.03    0.04
   5  -4  -7   15.38    0.40
  -5  -4   7   15.08    0.40
  -5  -4   7   15.86    0.37
  -5   4   7   16.01    0.41
   5   4  -7   15.76    0.36
  -4  -4   7    2.01    0.12
   4  -4  -7    2.14    0.11
   4  -4  -7    2.00    0.09
   4   4  -7    2.06    0.09
  -4   4   7    1.85    0.12
   3  -4  -7    2.97    0.11
  -3  -4   7    3.33    0.14
   3  -4  -7    3.19    0.13
   3   4  -7    3.15    0.12
  -3   4   7    3.11    0.15
   2  -4  -7    1.24    0.09
   2  -4  -7    1.05    0.07
  -2  -4   7    1.19    0.10
   2   4  -7    1.12    0.08
  -2   4   7    1.00    0.09
   1  -4  -7   30.01    0.67
  -1  -4   7   29.46    0.67
   1  -4  -7   30.15    0.64
  -1   4   7   28.96    0.67
   1   4  -7   28.97    0.66
   0  -4   7   14.51    0.37
   0  -4  -7   15.06    0.37
   0  -4  -7   13.88    0.34
   0   4  -7   14.79    0.36
   0   4   7   15.41    0.37
   1  -4   7    1.23    0.10
  -1  -4  -7    1.41    0.09
  -1  -4  -7    1.03    0.07
  -1   4  -7    1.28    0.09
   1   4   7    1.38    0.10
  -2  -4  -7    1.43    0.07
   2  -4   7    1.49    0.10
  -2  -4  -7    1.53    0.09
   2   4   7    1.61    0.10
  -2   4  -7    1.52    0.10
   3  -4   7    0.14    0.06
  -3  -4  -7    0.19    0.05
  -3  -4  -7    0.24    0.04
  -3   4  -7    0.19    0.05
   3   4   7    0.28    0.05
   4  -4   7   33.35    0.77
  -4  -4  -7   33.97    0.73
  -4  -4  -7   33.85    0.77
   4   4   7   33.33    0.74
  -4   4  -7   34.23    0.77
  -5  -4  -7    0.34    0.04
   5  -4   7    0.23    0.06
  -5  -4  -7    0.34    0.06
  -5   4  -7    0.29    0.06
   5   4   7    0.27    0.05
   6  -4   7    3.31    0.15
  -6  -4  -7    3.33    0.12
  -6  -4  -7    3.21    0.15
  -6   4  -7    3.36    0.15
  -7  -4  -7    1.23    0.10
   7  -4   7    1.14    0.10
  -7   4  -7    1.27    0.11
   8  -4   7    1.40    0.11
  -8  -4  -7    1.20    0.10
  -8   4  -7    1.25    0.11
   9  -4   7    0.01    0.05
  -9  -4  -7    0.05    0.05
  -9   4  -7    0.06    0.05
  10  -4   7    2.55    0.15
 -10  -4  -7    2.60    0.15
 -10   4  -7    2.44    0.14
 -11  -4  -7   16.45    0.45
 -11   4  -7   16.43    0.45
 -12  -4  -7    0.85    0.10
 -12   4  -7    1.06    0.11
 -13  -4  -7    7.36    0.28
 -13   4  -7    7.46    0.27
 -14  -4  -7    0.62    0.10
 -14   4  -7    0.88    0.11
 -14   4  -7    0.74    0.11
 -15   4  -7    1.28    0.13
  15  -5  -7    0.43    0.09
 -15   5   7    0.45    0.10
  15   5  -7    0.16    0.08
 -15   5   7    0.36    0.11
  14  -5  -7    2.26    0.16
 -14  -5   7    2.42    0.17
 -14   5   7    2.04    0.17
  14   5  -7    2.42    0.16
 -14   5   7    2.35    0.17
 -13  -5   7   17.22    0.49
  13  -5  -7   17.29    0.48
 -13   5   7   17.16    0.50
 -13   5   7   17.05    0.49
  13   5  -7   16.93    0.46
  12  -5  -7    9.35    0.31
 -12  -5   7    9.80    0.33
  12   5  -7   10.01    0.30
 -12   5   7    9.51    0.34
 -12   5   7    9.42    0.32
  11  -5  -7    3.74    0.18
 -11  -5   7    4.24    0.20
  11   5  -7    4.19    0.19
 -11   5   7    3.65    0.20
 -11   5   7    4.15    0.19
  10  -5  -7   -0.03    0.05
 -10  -5   7    0.00    0.05
 -10   5   7   -0.02    0.05
 -10   5   7   -0.01    0.06
  10   5  -7    0.01    0.08
  -9  -5   7    0.01    0.06
   9  -5  -7    0.06    0.05
  -9   5   7    0.07    0.05
  -9   5   7    0.01    0.07
   8  -5  -7    1.31    0.11
  -8  -5   7    1.53    0.12
  -8   5   7    1.47    0.13
  -7  -5   7    2.70    0.15
   7  -5  -7    2.93    0.14
   7  -5  -7    2.76    0.13
  -7   5   7    2.73    0.15
   6  -5  -7    0.18    0.05
  -6  -5   7    0.04    0.05
   6  -5  -7    0.19    0.05
  -6   5   7    0.15    0.06
   5  -5  -7    1.15    0.09
   5  -5  -7    1.15    0.09
  -5  -5   7    1.00    0.09
  -5   5   7    1.11    0.11
   4  -5  -7    0.38    0.06
  -4  -5   7    0.35    0.07
   4  -5  -7    0.40    0.06
  -4   5   7    0.49    0.08
   4   5  -7    0.31    0.05
   3  -5  -7    3.89    0.14
  -3  -5   7    3.76    0.17
   3  -5  -7    3.88    0.16
  -3   5   7    3.97    0.17
   3   5  -7    3.83    0.14
   2  -5  -7    0.26    0.06
  -2  -5   7    0.26    0.07
   2  -5  -7    0.23    0.05
   2   5  -7    0.22    0.05
  -2   5   7    0.26    0.07
   1  -5  -7   42.55    0.94
   1  -5  -7   42.39    0.92
  -1  -5   7   42.46    0.95
   1   5  -7   42.60    0.93
  -1   5   7   42.65    0.95
   0  -5  -7    9.10    0.27
   0  -5  -7    9.10    0.24
   0  -5   7    8.82    0.28
   0   5  -7    8.82    0.25
   0   5   7    9.11    0.26
  -1  -5  -7    0.50    0.06
  -1  -5  -7    0.70    0.08
   1  -5   7    0.52    0.08
   1   5   7    0.66    0.08
  -1   5  -7    0.52    0.07
   2  -5   7   23.16    0.56
  -2  -5  -7   22.94    0.52
  -2  -5  -7   22.45    0.55
  -2   5  -7   23.11    0.55
   2   5   7   22.86    0.54
   3  -5   7   24.43    0.59
  -3  -5  -7   24.19    0.58
  -3  -5  -7   24.28    0.55
   3   5   7   23.60    0.55
  -3   5  -7   24.17    0.58
   4  -5   7   26.40    0.65
  -4  -5  -7   25.79    0.64
  -4   5  -7   26.91    0.65
   4   5   7   29.35    0.69
   5  -5   7    2.96    0.16
  -5  -5  -7    2.96    0.14
  -5   5  -7    3.17    0.15
   6  -5   7    2.78    0.15
  -6  -5  -7    2.86    0.15
  -6   5  -7    3.46    0.16
  -7  -5  -7    1.85    0.13
   7  -5   7    1.89    0.13
  -7   5  -7    1.97    0.13
   8  -5   7    0.92    0.10
  -8  -5  -7    0.98    0.10
  -8   5  -7    0.81    0.09
   9  -5   7    0.80    0.10
  -9  -5  -7    0.63    0.09
  -9   5  -7    0.78    0.10
 -10  -5  -7    3.62    0.18
  10  -5   7    3.72    0.19
 -10   5  -7    3.10    0.17
  11  -5   7    4.75    0.22
 -11  -5  -7    5.32    0.22
 -11   5  -7    5.16    0.23
 -12  -5  -7    0.72    0.10
  12  -5   7    0.49    0.09
 -12   5  -7    0.56    0.09
 -13  -5  -7    2.16    0.16
  13  -5   7    1.89    0.16
 -13   5  -7    1.88    0.15
  14  -6  -7   -0.04    0.06
  13  -6  -7    0.08    0.07
 -13  -6   7    0.03    0.08
 -13   6   7    0.04    0.08
  12  -6  -7    0.03    0.06
 -12  -6   7    0.01    0.07
 -12   6   7   -0.08    0.07
 -11  -6   7    3.04    0.18
  11  -6  -7    3.11    0.17
  11  -6  -7    2.80    0.17
 -11   6   7    3.07    0.19
  10  -6  -7    0.03    0.05
 -10  -6   7   -0.03    0.06
  10  -6  -7    0.02    0.06
 -10   6   7    0.01    0.07
  -9  -6   7    3.94    0.20
   9  -6  -7    3.78    0.18
   9  -6  -7    3.94    0.18
  -9   6   7    3.64    0.20
   8  -6  -7   19.19    0.50
  -8  -6   7   19.83    0.53
   8  -6  -7   19.60    0.51
  -8   6   7   19.41    0.54
   7  -6  -7    3.82    0.17
  -7  -6   7    3.92    0.19
   7  -6  -7    3.91    0.17
  -7   6   7    4.00    0.20
   6  -6  -7    1.46    0.11
   6  -6  -7    1.36    0.10
  -6  -6   7    1.36    0.12
  -6   6   7    1.47    0.13
  -5  -6   7    0.00    0.05
   5  -6  -7    0.04    0.05
   5  -6  -7    0.02    0.05
  -5   6   7   -0.04    0.06
  -4  -6   7    4.75    0.20
   4  -6  -7    4.83    0.18
   4  -6  -7    5.12    0.19
  -4   6   7    4.67    0.20
   3  -6  -7    1.41    0.10
  -3  -6   7    1.31    0.11
   3  -6  -7    1.35    0.10
  -3   6   7    1.28    0.11
   3   6  -7    1.36    0.09
   2  -6  -7    7.27    0.23
   2  -6  -7    7.60    0.25
  -2  -6   7    7.65    0.26
  -2   6   7    7.43    0.25
   2   6  -7    7.59    0.23
   1  -6  -7   24.52    0.59
   1  -6  -7   24.29    0.57
  -1  -6   7   24.95    0.61
   1   6  -7   24.28    0.58
  -1   6   7   24.37    0.59
   0  -6  -7    2.10    0.11
   0  -6   7    2.05    0.13
   0  -6  -7    2.03    0.12
   0   6  -7    2.15    0.12
   0   6   7    2.03    0.13
   1  -6   7    7.45    0.26
  -1  -6  -7    7.19    0.24
  -1   6  -7    7.17    0.23
   1   6   7    7.14    0.23
  -2  -6  -7    7.37    0.24
   2  -6   7    7.71    0.26
   2   6   7    7.22    0.23
  -2   6  -7    7.53    0.24
   3  -6   7    0.02    0.05
  -3  -6  -7    0.04    0.05
  -3   6  -7    0.03    0.05
   4  -6   7    2.02    0.14
  -4  -6  -7    1.93    0.12
  -4   6  -7    1.78    0.13
   5  -6   7   14.48    0.42
  -5  -6  -7   15.11    0.41
  -5   6  -7   14.60    0.41
  -6  -6  -7    0.02    0.05
   6  -6   7    0.03    0.06
  -6   6  -7    0.02    0.05
  -7  -6  -7    3.45    0.17
   7  -6   7    3.20    0.18
  -7   6  -7    3.24    0.17
  -8  -6  -7    0.97    0.10
   8  -6   7    1.19    0.12
  -8   6  -7    1.05    0.11
   9  -6   7    0.31    0.09
  -9  -6  -7    0.29    0.08
  -9   6  -7    0.32    0.08
 -10  -6  -7    4.99    0.22
  10  -6   7    5.23    0.24
 -10   6  -7    5.32    0.24
  11  -6   7   12.76    0.41
 -11  -6  -7   12.93    0.40
 -11   6  -7   12.59    0.40
  12  -6   7    3.34    0.24
  12  -7  -7    0.49    0.10
  11  -7  -7   -0.05    0.05
 -11  -7   7   -0.01    0.09
 -11   7   7    0.13    0.10
  10  -7  -7    6.48    0.26
 -10  -7   7    7.03    0.28
  10  -7  -7    7.15    0.33
 -10   7   7    6.42    0.29
   9  -7  -7    0.01    0.06
   9  -7  -7    0.18    0.07
  -9  -7   7    0.04    0.07
  -9   7   7    0.19    0.08
   8  -7  -7    1.08    0.11
  -8  -7   7    1.07    0.12
   8  -7  -7    1.06    0.11
  -8   7   7    1.02    0.13
   7  -7  -7    0.46    0.08
  -7  -7   7    0.33    0.08
   7  -7  -7    0.45    0.08
  -7   7   7    0.43    0.09
   6  -7  -7    1.74    0.13
  -6  -7   7    1.42    0.13
   6  -7  -7    1.51    0.11
  -6   7   7    1.38    0.14
   5  -7  -7    0.13    0.06
   5  -7  -7    0.24    0.06
  -5  -7   7    0.21    0.07
  -5   7   7    0.14    0.08
   4  -7  -7    2.43    0.14
   4  -7  -7    2.42    0.14
  -4  -7   7    2.30    0.16
  -4   7   7    2.39    0.16
  -3  -7   7    0.58    0.10
   3  -7  -7    0.56    0.09
   3  -7  -7    0.54    0.08
  -2  -7   7    2.05    0.15
   2  -7  -7    1.76    0.12
   2   7  -7    1.94    0.11
  -2   7   7    2.09    0.15
  -1  -7   7    0.19    0.08
   1  -7  -7    0.41    0.07
  -1   7   7    0.28    0.07
   1   7  -7    0.40    0.06
   0  -7   7    0.91    0.10
   0  -7  -7    0.91    0.10
   0   7  -7    0.90    0.09
   0   7   7    0.95    0.10
  -1  -7  -7    0.06    0.05
   1  -7   7    0.12    0.07
  -1   7  -7    0.06    0.05
   1   7   7    0.11    0.07
   2  -7   7    5.90    0.24
  -2  -7  -7    5.84    0.22
  -2   7  -7    6.21    0.22
  -3  -7  -7    0.49    0.08
   3  -7   7    0.56    0.09
  -3   7  -7    0.46    0.08
   4  -7   7    0.26    0.08
  -4  -7  -7    0.18    0.06
  -4   7  -7    0.25    0.07
  -5  -7  -7    0.13    0.06
   5  -7   7    0.14    0.07
  -5   7  -7    0.14    0.07
  -6  -7  -7    4.84    0.21
   6  -7   7    4.86    0.23
  -6   7  -7    5.06    0.22
  -7  -7  -7   -0.06    0.05
   7  -7   7    0.06    0.07
  -7   7  -7    0.02    0.06
   8  -7   7    4.60    0.23
  -8  -7  -7    5.03    0.22
  -8   7  -7    5.08    0.23
  -9  -7  -7    2.54    0.17
   9  -7   7    2.68    0.19
  -9   7  -7    2.78    0.18
 -10  -7  -7    1.05    0.12
  10  -8  -7   11.26    0.44
  -8  -8   7   -0.05    0.10
  -8   8   7   -0.11    0.07
  -7  -8   7    0.02    0.08
  -7   8   7   -0.02    0.07
  -6  -8   7    1.57    0.15
  -6   8   7    1.36    0.15
  -5  -8   7    0.23    0.09
  -5   8   7    0.10    0.08
  -4  -8   7    2.92    0.18
  -4   8   7    2.75    0.17
   3  -8  -7    7.56    0.32
  -3  -8   7    7.85    0.30
  -3   8   7    7.52    0.28
   2  -8  -7    1.07    0.11
  -2  -8   7    0.94    0.12
  -2   8   7    0.87    0.11
  -1  -8   7    3.91    0.21
   1  -8  -7    3.85    0.18
  -1   8   7    3.55    0.18
   0  -8  -7    0.05    0.06
   0  -8   7    0.17    0.08
   0   8  -7    0.21    0.06
  -1  -8  -7    0.89    0.10
   1  -8   7    0.94    0.12
  -1   8  -7    0.90    0.10
   2  -8   7    7.65    0.30
  -2  -8  -7    7.62    0.27
  -2   8  -7    8.28    0.28
   3  -8   7    0.20    0.09
  -3  -8  -7    0.22    0.07
  -3   8  -7    0.27    0.07
  -4  -8  -7    0.71    0.09
   4  -8   7    0.34    0.09
  -4   8  -7    0.46    0.09
  -5  -8  -7    0.18    0.07
   5  -8   7    0.15    0.09
  -5   8  -7    0.20    0.08
  -6  -8  -7    4.80    0.21
   6  -8   7    5.04    0.25
  -6   8  -7    4.69    0.23
  -7  -8  -7    1.72    0.15
  -8  -8  -7    1.16    0.13
  -5   9   7    1.55    0.20
  -4   9   7    0.16    0.08
  -3   9   7    0.24    0.09
  -2   9  -7   15.43    0.45
  -3   9  -7    0.65    0.10
  17   0  -8    6.97    0.28
 -17   0   8    6.64    0.27
 -16   0   8   10.87    0.35
  16   0  -8   11.08    0.36
 -15   0   8   26.46    0.67
  15   0  -8   26.36    0.67
  14   0  -8    4.28    0.20
 -14   0   8    4.70    0.20
  13   0  -8    8.60    0.28
 -13   0   8    8.32    0.27
 -12   0   8    0.27    0.06
 -12   0   8    0.18    0.06
  12   0  -8    0.33    0.07
 -11   0   8    5.08    0.18
 -11   0   8    5.06    0.19
  11   0  -8    5.30    0.20
  10   0  -8    0.14    0.05
 -10   0   8    0.07    0.04
 -10   0   8    0.08    0.06
  -9   0   8    3.99    0.16
   9   0  -8    3.54    0.15
  -9   0   8    3.59    0.14
  -8   0   8   28.96    0.66
  -8   0   8   28.84    0.65
   8   0  -8   29.48    0.66
   7   0  -8   29.40    0.68
  -7   0   8   30.82    0.67
  -7   0   8   30.37    0.68
  -6   0   8   44.93    0.95
  -6   0   8   45.22    0.97
   6   0  -8   44.46    0.97
  -5   0   8    2.88    0.12
   5   0  -8    2.76    0.11
  -5   0   8    2.94    0.10
  -4   0   8  211.84    4.41
   4   0  -8  207.91    4.27
  -4   0   8  210.70    4.28
  -3   0   8    2.33    0.10
  -3   0   8    2.18    0.07
   3   0  -8    2.16    0.09
  -2   0   8   99.07    2.07
  -2   0   8  100.60    2.04
   2   0  -8  100.58    2.06
   1   0  -8   27.90    0.61
  -1   0   8   28.47    0.59
   0   0   8   17.77    0.36
   0   0  -8   17.29    0.39
   0   0   8   17.09    0.40
   1   0   8    0.92    0.06
   1   0   8    0.82    0.04
  -1   0  -8    0.80    0.06
  -2   0  -8    0.25    0.04
   2   0   8    0.19    0.04
   2   0   8    0.30    0.02
   3   0   8   72.85    1.49
  -3   0  -8   71.24    1.51
   3   0   8   75.13    1.53
  -4   0  -8    1.86    0.07
  -4   0  -8    1.89    0.09
  -5   0  -8   21.01    0.48
  -5   0  -8   20.81    0.48
  -6   0  -8   21.46    0.47
  -6   0  -8   21.14    0.49
  -6   0  -8   21.41    0.49
  -7   0  -8   32.48    0.72
  -7   0  -8   32.32    0.70
  -7   0  -8   32.42    0.71
  -8   0  -8    2.00    0.10
  -8   0  -8    2.19    0.10
  -8   0  -8    1.95    0.11
  -9   0  -8    7.83    0.22
  -9   0  -8    7.85    0.22
  -9   0  -8    7.86    0.23
 -10   0  -8    1.20    0.08
 -10   0  -8    1.13    0.09
 -10   0  -8    1.21    0.08
 -11   0  -8   24.24    0.57
 -11   0  -8   23.89    0.58
 -12   0  -8   27.40    0.66
 -12   0  -8   27.02    0.64
 -13   0  -8   13.19    0.37
 -13   0  -8   13.78    0.39
 -14   0  -8    2.92    0.16
 -15   0  -8   15.25    0.44
 -16   0  -8    2.93    0.17
  17  -1  -8   -0.01    0.08
 -17  -1   8    0.13    0.07
  17   1  -8   -0.01    0.08
 -17   1   8    0.07    0.06
  16  -1  -8    0.53    0.10
 -16  -1   8    0.47    0.09
  16   1  -8    0.38    0.09
 -16   1   8    0.51    0.09
  15  -1  -8    3.82    0.20
 -15  -1   8    3.82    0.18
 -15   1   8    3.81    0.18
  15   1  -8    3.94    0.20
  14  -1  -8    0.68    0.10
 -14  -1   8    0.66    0.09
 -14   1   8    0.79    0.10
  14   1  -8    0.67    0.09
 -13  -1   8    4.68    0.19
  13  -1  -8    4.75    0.20
 -13   1   8    4.49    0.19
  13   1  -8    4.28    0.19
 -13   1   8    4.57    0.19
  12  -1  -8    8.92    0.28
 -12  -1   8    7.93    0.26
 -12   1   8    8.60    0.27
 -12   1   8    8.16    0.26
  12   1  -8    8.25    0.27
  11  -1  -8   17.11    0.45
 -11  -1   8   17.09    0.44
  11   1  -8   17.31    0.44
 -11   1   8   16.80    0.43
 -11   1   8   16.78    0.44
 -10  -1   8    4.96    0.18
  10  -1  -8    5.24    0.19
 -10  -1   8    5.36    0.17
  10   1  -8    4.94    0.18
 -10   1   8    4.74    0.18
 -10   1   8    5.22    0.19
  -9  -1   8    0.24    0.05
   9  -1  -8    0.13    0.06
  -9  -1   8    0.19    0.05
   9   1  -8    0.15    0.05
  -9   1   8    0.23    0.05
  -9   1   8    0.13    0.06
  -8  -1   8    4.03    0.15
  -8  -1   8    4.34    0.15
  -8   1   8    3.72    0.14
   8   1  -8    3.91    0.15
  -8   1   8    4.03    0.16
   7  -1  -8    0.25    0.05
  -7  -1   8    0.27    0.05
  -7  -1   8    0.27    0.05
   7   1  -8    0.27    0.05
  -7   1   8    0.32    0.06
  -7   1   8    0.19    0.04
  -6  -1   8    9.04    0.24
  -6  -1   8    9.36    0.25
   6  -1  -8    9.19    0.25
   6   1  -8    8.95    0.24
  -6   1   8    8.69    0.23
  -6   1   8    9.09    0.25
  -5  -1   8    0.02    0.04
   5  -1  -8    0.03    0.04
  -5  -1   8    0.07    0.03
  -5   1   8    0.03    0.02
   5   1  -8    0.04    0.03
  -5   1   8    0.03    0.05
   4  -1  -8   57.98    1.22
  -4  -1   8   57.79    1.21
  -4  -1   8   57.87    1.22
   4   1  -8   57.91    1.21
  -4   1   8   58.70    1.23
  -4   1   8   56.41    1.19
  -3  -1   8   -0.01    0.03
  -3  -1   8    0.02    0.03
   3  -1  -8    0.01    0.03
   3   1  -8    0.05    0.03
  -3   1   8    0.03    0.04
  -3   1   8    0.01    0.01
  -2  -1   8   10.29    0.26
   2  -1  -8    9.93    0.26
  -2  -1   8   10.27    0.24
  -2   1   8   10.17    0.22
  -1  -1   8    0.07    0.03
   1  -1  -8    0.01    0.03
  -1  -1   8    0.01    0.02
  -1   1   8    0.03    0.03
   1   1  -8    0.01    0.02
   0  -1   8    2.16    0.07
   0  -1   8    2.01    0.09
   0  -1  -8    2.19    0.09
   0   1  -8    2.11    0.08
   0   1   8    2.20    0.10
  -1  -1  -8   25.84    0.57
   1  -1   8   26.28    0.55
  -1   1  -8   25.16    0.55
   1   1   8   25.83    0.58
  -2  -1  -8   14.98    0.36
   2  -1   8   15.02    0.34
   2   1   8   15.47    0.36
  -2   1  -8   15.45    0.36
  -3  -1  -8    1.38    0.04
  -3  -1  -8    1.44    0.08
   3  -1   8    1.36    0.06
  -3   1  -8    1.35    0.08
   3   1   8    1.40    0.07
   4  -1   8    0.58    0.05
  -4  -1  -8    0.61    0.06
  -4  -1  -8    0.57    0.03
   4   1   8    0.42    0.05
  -4   1  -8    0.45    0.05
  -4   1  -8    0.75    0.05
  -5  -1  -8    1.71    0.07
  -5  -1  -8    1.83    0.09
  -5   1  -8    1.91    0.08
   5   1   8    1.90    0.09
  -5   1  -8    1.92    0.08
  -5   1  -8    1.81    0.09
  -6  -1  -8    4.00    0.12
  -6  -1  -8    3.80    0.14
  -6   1  -8    4.01    0.14
  -6   1  -8    3.89    0.13
   6   1   8    3.93    0.13
  -6   1  -8    3.95    0.13
  -7  -1  -8   20.19    0.48
  -7  -1  -8   20.31    0.45
  -7   1  -8   19.87    0.46
  -7   1  -8   19.77    0.46
   7   1   8   20.33    0.46
  -7   1  -8   20.14    0.48
  -8  -1  -8   25.11    0.56
  -8  -1  -8   25.02    0.59
  -8   1  -8   24.71    0.57
   8   1   8   25.02    0.56
  -8   1  -8   24.95    0.57
  -8   1  -8   24.95    0.58
  -9  -1  -8    6.45    0.19
  -9  -1  -8    6.16    0.21
  -9   1  -8    6.41    0.20
   9   1   8    6.36    0.19
  -9   1  -8    6.49    0.20
  -9   1  -8    6.57    0.20
 -10  -1  -8    0.22    0.04
 -10  -1  -8    0.20    0.05
 -10   1  -8    0.23    0.05
 -10   1  -8    0.25    0.05
 -10   1  -8    0.18    0.05
 -11  -1  -8    1.38    0.09
 -11  -1  -8    1.34    0.10
 -11   1  -8    1.36    0.10
 -11   1  -8    1.47    0.10
 -11   1  -8    1.35    0.10
 -12  -1  -8   -0.02    0.05
 -12   1  -8    0.07    0.05
 -12   1  -8    0.07    0.05
 -13  -1  -8    0.41    0.08
 -13   1  -8    0.39    0.07
 -13   1  -8    0.34    0.07
 -14  -1  -8    1.38    0.12
 -14   1  -8    1.39    0.12
 -14   1  -8    1.73    0.13
 -15  -1  -8    0.13    0.07
 -15   1  -8    0.20    0.07
  17  -2  -8    0.89    0.19
  17   2  -8    0.73    0.11
 -17   2   8    0.91    0.12
 -16  -2   8    3.33    0.18
  16  -2  -8    2.90    0.20
 -16   2   8    3.05    0.18
  16   2  -8    3.09    0.19
  15  -2  -8    0.15    0.08
 -15  -2   8    0.13    0.06
  15   2  -8    0.07    0.07
 -15   2   8    0.10    0.06
  14  -2  -8    5.68    0.24
 -14  -2   8    5.35    0.22
  14   2  -8    5.44    0.22
 -14   2   8    5.70    0.23
 -14   2   8    5.85    0.23
  13  -2  -8    0.25    0.08
 -13  -2   8    0.31    0.07
 -13   2   8    0.43    0.08
 -13   2   8    0.34    0.07
  13   2  -8    0.43    0.08
  12  -2  -8    0.66    0.09
 -12  -2   8    0.68    0.09
  12   2  -8    0.60    0.08
 -12   2   8    0.69    0.08
 -12   2   8    0.79    0.09
 -11  -2   8    1.36    0.10
  11  -2  -8    1.20    0.10
 -11   2   8    1.42    0.12
  11   2  -8    1.46    0.11
 -11   2   8    1.29    0.10
 -10  -2   8    4.15    0.17
  10  -2  -8    4.26    0.17
 -10   2   8    4.16    0.18
  10   2  -8    4.23    0.17
 -10   2   8    4.02    0.16
  -9  -2   8   -0.01    0.04
  -9  -2   8   -0.02    0.04
   9  -2  -8    0.03    0.05
   9   2  -8    0.04    0.05
  -9   2   8    0.01    0.06
  -9   2   8    0.05    0.04
  -8  -2   8    4.26    0.15
  -8  -2   8    4.73    0.17
  -8   2   8    4.87    0.18
  -8   2   8    4.33    0.15
   8   2  -8    4.46    0.16
  -7  -2   8    0.01    0.04
  -7  -2   8    0.05    0.04
   7  -2  -8   -0.01    0.01
  -7   2   8    0.07    0.06
   7   2  -8    0.01    0.04
  -7   2   8    0.01    0.03
  -6  -2   8   12.26    0.32
  -6  -2   8   12.51    0.31
  -6   2   8   12.33    0.30
  -6   2   8   12.41    0.33
   6   2  -8   12.88    0.31
  -5  -2   8    3.20    0.12
  -5  -2   8    3.32    0.12
   5   2  -8    3.26    0.11
  -5   2   8    3.22    0.11
  -5   2   8    3.29    0.14
  -4  -2   8    0.05    0.03
   4  -2  -8    0.02    0.01
  -4  -2   8    0.08    0.03
   4   2  -8    0.12    0.03
  -4   2   8    0.07    0.02
  -4   2   8    0.02    0.02
  -3  -2   8    0.36    0.05
  -3  -2   8    0.35    0.04
   3  -2  -8    0.22    0.04
  -3   2   8    0.28    0.06
  -3   2   8    0.36    0.03
  -2  -2   8   15.61    0.36
  -2  -2   8   15.40    0.37
   2  -2  -8   14.86    0.37
   2   2  -8   15.88    0.34
  -2   2   8   16.03    0.38
  -2   2   8   15.96    0.34
   1  -2  -8   13.16    0.27
   1  -2  -8   12.79    0.32
  -1  -2   8   12.90    0.31
  -1   2   8   13.03    0.33
   1   2  -8   12.66    0.31
   1   2  -8   13.10    0.29
   0  -2   8   18.71    0.43
   0  -2  -8   19.28    0.45
   0   2  -8   19.15    0.44
   0   2  -8   19.14    0.41
   0   2   8   19.71    0.45
  -1  -2  -8   22.20    0.51
   1  -2   8   21.98    0.49
  -1   2  -8   22.14    0.50
  -1   2  -8   22.07    0.46
   1   2   8   21.98    0.51
  -2  -2  -8    0.06    0.03
   2  -2   8    0.11    0.03
  -2   2  -8    0.01    0.02
  -2   2  -8    0.03    0.02
   2   2   8    0.11    0.04
   3  -2   8    0.75    0.06
  -3  -2  -8    0.95    0.07
  -3  -2  -8    0.80    0.03
   3   2   8    0.82    0.07
  -3   2  -8    0.64    0.06
  -3   2  -8    0.82    0.04
  -4  -2  -8    5.40    0.13
   4  -2   8    5.47    0.17
  -4  -2  -8    5.28    0.17
  -4   2  -8    5.38    0.17
   4   2   8    5.11    0.16
   5  -2   8    0.25    0.05
  -5  -2  -8    0.26    0.03
  -5  -2  -8    0.24    0.05
   5   2   8    0.29    0.05
  -5   2  -8    0.34    0.05
  -5   2  -8    0.27    0.03
  -6  -2  -8   11.45    0.30
  -6  -2  -8   11.18    0.26
   6   2   8   10.68    0.28
  -6   2  -8   11.35    0.27
  -6   2  -8   10.93    0.30
  -7  -2  -8    0.44    0.07
  -7  -2  -8    0.40    0.04
  -7   2  -8    0.57    0.06
   7   2   8    0.42    0.05
  -7   2  -8    0.46    0.06
  -7   2  -8    0.46    0.05
  -8  -2  -8    9.45    0.25
  -8  -2  -8    9.82    0.28
   8   2   8    9.65    0.25
  -8   2  -8    9.32    0.27
  -8   2  -8    9.41    0.25
  -8   2  -8    9.61    0.27
  -9  -2  -8    6.01    0.21
  -9   2  -8    6.20    0.19
  -9   2  -8    6.29    0.21
  -9   2  -8    6.21    0.21
 -10  -2  -8    5.31    0.20
 -10   2  -8    5.54    0.20
 -10   2  -8    5.53    0.18
 -10   2  -8    5.30    0.19
 -11  -2  -8    1.37    0.11
 -11   2  -8    1.69    0.12
 -11   2  -8    1.45    0.11
 -11   2  -8    1.44    0.11
 -12  -2  -8    0.46    0.07
 -12   2  -8    0.48    0.07
 -12   2  -8    0.40    0.07
 -13  -2  -8    0.58    0.09
 -13   2  -8    0.68    0.09
 -13   2  -8    0.64    0.08
 -14  -2  -8    3.11    0.18
 -14   2  -8    3.03    0.17
 -15  -2  -8    1.80    0.15
 -15   2  -8    1.95    0.14
 -16   2  -8    0.10    0.09
 -16  -3   8    1.81    0.15
  16  -3  -8    1.90    0.16
 -16   3   8    2.16    0.15
  16   3  -8    1.83    0.15
 -15  -3   8    0.69    0.10
  15  -3  -8    0.89    0.12
 -15   3   8    0.86    0.12
  15   3  -8    0.90    0.11
 -15   3   8    0.76    0.10
  14  -3  -8   17.09    0.48
 -14  -3   8   16.80    0.47
 -14   3   8   16.81    0.47
 -14   3   8   16.87    0.48
  14   3  -8   17.08    0.47
  13  -3  -8   21.54    0.57
 -13  -3   8   22.50    0.57
 -13   3   8   21.01    0.56
  13   3  -8   22.27    0.56
 -13   3   8   21.82    0.57
 -12  -3   8    4.65    0.20
  12  -3  -8    4.67    0.20
  12   3  -8    4.72    0.19
 -12   3   8    5.07    0.22
 -12   3   8    4.64    0.19
 -11  -3   8    1.77    0.12
  11  -3  -8    1.66    0.13
  11   3  -8    1.78    0.12
 -11   3   8    1.55    0.11
 -11   3   8    1.97    0.14
 -10  -3   8    2.98    0.15
  10  -3  -8    2.94    0.15
 -10   3   8    3.01    0.14
 -10   3   8    2.58    0.15
  10   3  -8    3.00    0.14
   9  -3  -8    0.09    0.05
  -9  -3   8    0.02    0.04
  -9   3   8    0.05    0.06
  -9   3   8    0.06    0.04
   9   3  -8   -0.03    0.04
   8  -3  -8    5.95    0.21
  -8  -3   8    5.73    0.20
   8   3  -8    5.98    0.19
  -8   3   8    5.81    0.22
  -8   3   8    5.93    0.19
  -7  -3   8   19.16    0.48
  -7  -3   8   19.81    0.45
   7  -3  -8   19.81    0.48
  -7   3   8   20.04    0.50
  -7   3   8   19.97    0.46
   7   3  -8   19.35    0.46
   6  -3  -8   55.48    1.18
  -6  -3   8   55.24    1.15
  -6  -3   8   52.94    1.18
  -6   3   8   55.08    1.16
   6   3  -8   53.48    1.15
  -5  -3   8    0.06    0.04
  -5  -3   8    0.01    0.03
   5  -3  -8    0.00    0.04
  -5   3   8    0.11    0.03
   5   3  -8    0.03    0.03
  -5   3   8   -0.04    0.01
  -4  -3   8    0.33    0.05
  -4  -3   8    0.33    0.05
   4  -3  -8    0.30    0.06
  -4   3   8    0.19    0.06
  -4   3   8    0.30    0.04
   3  -3  -8    5.86    0.19
  -3  -3   8    5.72    0.18
  -3   3   8    5.81    0.20
   3   3  -8    5.67    0.15
   2  -3  -8    7.46    0.22
   2  -3  -8    7.05    0.18
  -2  -3   8    7.26    0.21
  -2   3   8    7.59    0.22
   2   3  -8    7.09    0.17
   2   3  -8    7.29    0.20
  -1  -3   8   22.91    0.52
   1  -3  -8   22.95    0.53
   1  -3  -8   22.86    0.48
   1   3  -8   22.24    0.52
   1   3  -8   22.08    0.47
  -1   3   8   23.14    0.53
   0  -3  -8    0.03    0.02
   0  -3   8    0.10    0.04
   0  -3  -8    0.03    0.04
   0   3   8    0.04    0.05
   0   3  -8    0.05    0.04
   1  -3   8   33.62    0.74
  -1  -3  -8   33.13    0.70
   1   3   8   33.94    0.75
  -1   3  -8   33.93    0.74
   2  -3   8   24.48    0.56
  -2  -3  -8   24.31    0.51
  -2   3  -8   24.33    0.56
   2   3   8   24.30    0.56
  -5  -3  -8    7.94    0.25
   5  -3   8    9.02    0.25
  -5   3  -8    9.10    0.26
   5   3   8    8.60    0.24
  -6  -3  -8   18.35    0.46
   6  -3   8   17.97    0.45
  -6   3  -8   18.44    0.45
   6   3   8   17.93    0.43
  -7  -3  -8    9.44    0.28
   7  -3   8    9.32    0.27
  -7   3  -8    8.72    0.27
  -8  -3  -8    4.96    0.19
   8  -3   8    5.10    0.19
  -8   3  -8    5.10    0.19
  -9  -3  -8   17.31    0.45
  -9   3  -8   17.02    0.45
 -10  -3  -8    9.56    0.30
 -10   3  -8   10.12    0.30
 -10   3  -8    9.83    0.30
 -11  -3  -8    0.00    0.06
 -11   3  -8    0.29    0.07
 -11   3  -8    0.14    0.05
 -12  -3  -8    1.37    0.12
 -12   3  -8    1.33    0.11
 -12   3  -8    1.28    0.12
 -13  -3  -8    0.07    0.06
 -13   3  -8    0.04    0.06
 -13   3  -8    0.12    0.06
 -14  -3  -8    1.25    0.13
 -14   3  -8    1.17    0.12
 -14   3  -8    1.08    0.11
 -15   3  -8    1.06    0.12
  16  -4  -8    9.86    0.48
 -16   4   8   10.50    0.37
  16   4  -8   10.34    0.35
 -16   4   8   10.56    0.40
  15  -4  -8    0.08    0.07
 -15  -4   8    0.01    0.07
 -15   4   8    0.03    0.08
  15   4  -8    0.02    0.07
 -15   4   8    0.08    0.06
  14  -4  -8    0.52    0.10
 -14  -4   8    0.33    0.08
 -14   4   8    0.60    0.10
 -14   4   8    0.53    0.10
  14   4  -8    0.54    0.09
  13  -4  -8    1.11    0.12
 -13  -4   8    0.93    0.11
 -13   4   8    0.95    0.11
 -13   4   8    1.18    0.12
  13   4  -8    1.01    0.10
 -12  -4   8    0.14    0.07
  12  -4  -8    0.20    0.07
  12   4  -8    0.34    0.07
 -12   4   8    0.11    0.08
 -12   4   8    0.41    0.08
  11  -4  -8    2.61    0.15
 -11  -4   8    2.72    0.16
  11   4  -8    2.72    0.14
 -11   4   8    2.61    0.14
 -11   4   8    2.89    0.17
 -10  -4   8    0.15    0.06
  10  -4  -8    0.02    0.05
 -10   4   8    0.05    0.06
  10   4  -8    0.12    0.05
 -10   4   8    0.20    0.05
  -9  -4   8    2.28    0.13
   9  -4  -8    2.11    0.13
  -9   4   8    2.31    0.12
  -9   4   8    2.25    0.15
   9   4  -8    2.30    0.12
  -8  -4   8   -0.01    0.05
   8  -4  -8   -0.02    0.04
  -8   4   8   -0.07    0.05
  -8   4   8    0.08    0.04
   8   4  -8    0.02    0.04
   7  -4  -8    7.65    0.24
  -7  -4   8    7.48    0.25
  -7   4   8    7.70    0.26
  -7   4   8    7.67    0.23
   7   4  -8    7.25    0.21
  -6  -4   8    1.85    0.09
   6  -4  -8    1.66    0.11
  -6  -4   8    1.76    0.12
  -6   4   8    1.96    0.13
   6   4  -8    1.67    0.09
  -6   4   8    1.71    0.09
  -5  -4   8    6.73    0.19
  -5  -4   8    6.13    0.21
   5  -4  -8    6.40    0.21
  -5   4   8    6.93    0.23
   4  -4  -8   21.31    0.51
  -4  -4   8   20.45    0.51
   4  -4  -8   21.10    0.48
  -4   4   8   20.67    0.52
   3  -4  -8   19.12    0.48
  -3  -4   8   19.57    0.48
   3  -4  -8   19.67    0.45
  -3   4   8   20.03    0.49
   3   4  -8   19.59    0.46
   2  -4  -8   45.17    0.95
  -2  -4   8   44.05    0.98
   2  -4  -8   44.46    0.98
   2   4  -8   44.88    0.96
  -2   4   8   44.23    0.98
  -1  -4   8    6.87    0.22
   1  -4  -8    6.99    0.22
   1  -4  -8    6.66    0.18
   1   4  -8    7.32    0.21
  -1   4   8    6.79    0.22
   0  -4  -8    0.55    0.07
   0  -4   8    0.66    0.08
   0   4   8    0.64    0.07
   0   4  -8    0.59    0.07
   1  -4   8    0.09    0.05
  -1  -4  -8    0.08    0.02
  -1  -4  -8    0.12    0.05
   1   4   8    0.15    0.05
  -1   4  -8    0.12    0.05
  -2  -4  -8    0.07    0.05
   2  -4   8    0.16    0.06
   2   4   8    0.22    0.06
  -2   4  -8    0.19    0.05
  -3  -4  -8    1.10    0.09
   3  -4   8    1.01    0.09
  -3   4  -8    0.94    0.09
   3   4   8    0.99    0.08
   4  -4   8    0.27    0.07
  -4  -4  -8    0.31    0.06
  -4   4  -8    0.17    0.05
   4   4   8    0.25    0.05
   5  -4   8   22.26    0.54
  -5  -4  -8   21.70    0.54
  -5   4  -8   21.83    0.53
   5   4   8   21.63    0.50
   6  -4   8    1.50    0.11
  -6  -4  -8    1.34    0.10
  -6   4  -8    1.43    0.11
  -7  -4  -8    6.25    0.22
   7  -4   8    6.23    0.22
  -7   4  -8    6.42    0.22
   8  -4   8    0.07    0.06
  -8  -4  -8    0.11    0.05
  -8   4  -8    0.09    0.05
  -9  -4  -8    7.06    0.25
   9  -4   8    6.91    0.25
  -9   4  -8    6.97    0.25
  10  -4   8    5.20    0.21
 -10  -4  -8    4.75    0.20
 -10   4  -8    4.67    0.20
  11  -4   8    4.36    0.20
 -11  -4  -8    4.91    0.21
 -11   4  -8    4.26    0.19
  12  -4   8   11.14    0.36
 -12  -4  -8   11.67    0.36
 -12   4  -8   11.52    0.36
  13  -4   8    1.42    0.13
 -13  -4  -8    1.25    0.13
 -13   4  -8    1.05    0.11
 -14   4  -8    2.95    0.17
  15  -5  -8    2.07    0.16
 -15   5   8    1.79    0.15
  14  -5  -8    4.96    0.23
 -14  -5   8    4.97    0.23
 -14   5   8    4.89    0.24
 -14   5   8    4.71    0.22
 -13  -5   8    3.09    0.18
  13  -5  -8    3.20    0.19
 -13   5   8    3.20    0.20
 -13   5   8    3.04    0.18
  12  -5  -8    2.33    0.15
 -12  -5   8    2.32    0.16
 -12   5   8    2.47    0.15
 -12   5   8    1.97    0.17
  11  -5  -8    4.13    0.19
 -11  -5   8    3.74    0.19
 -11   5   8    3.99    0.18
 -11   5   8    3.74    0.20
  10  -5  -8    0.08    0.06
 -10  -5   8    0.04    0.05
 -10   5   8    0.13    0.07
 -10   5   8    0.07    0.05
   9  -5  -8    2.98    0.15
  -9  -5   8    2.63    0.15
  -9   5   8    2.47    0.16
  -9   5   8    2.56    0.14
  -8  -5   8    3.21    0.17
   8  -5  -8    3.18    0.16
  -8   5   8    3.36    0.18
   7  -5  -8    0.16    0.06
   7  -5  -8    0.19    0.05
  -7  -5   8    0.07    0.06
  -7   5   8    0.15    0.07
   6  -5  -8    3.88    0.17
   6  -5  -8    3.99    0.15
  -6  -5   8    3.97    0.18
  -6   5   8    4.15    0.19
   5  -5  -8    0.58    0.07
  -5  -5   8    0.53    0.07
   5  -5  -8    0.59    0.08
  -5  -5   8    0.53    0.08
  -5   5   8    0.67    0.09
   4  -5  -8    4.82    0.16
   4  -5  -8    4.81    0.18
  -4  -5   8    4.63    0.19
   4   5  -8    5.07    0.16
  -4   5   8    4.74    0.20
   3  -5  -8    0.61    0.08
  -3  -5   8    0.79    0.09
   3  -5  -8    0.66    0.07
  -3   5   8    0.72    0.09
   3   5  -8    0.55    0.06
  -2  -5   8    2.82    0.15
   2  -5  -8    2.78    0.14
   2  -5  -8    2.87    0.12
  -2   5   8    2.83    0.15
   2   5  -8    3.05    0.13
  -1  -5   8    6.77    0.23
   1  -5  -8    6.93    0.20
   1  -5  -8    6.89    0.23
  -1   5   8    7.16    0.23
   1   5  -8    6.98    0.21
   0  -5   8    4.01    0.17
   0  -5  -8    4.09    0.16
   0   5   8    4.06    0.16
   0   5  -8    4.00    0.16
   1  -5   8    0.93    0.09
  -1  -5  -8    1.01    0.09
   1   5   8    1.16    0.10
  -1   5  -8    1.19    0.09
  -2  -5  -8    3.43    0.15
   2  -5   8    3.54    0.16
  -2   5  -8    3.68    0.15
   2   5   8    3.63    0.15
  -3  -5  -8    1.43    0.10
   3  -5   8    1.48    0.12
   3   5   8    1.38    0.10
  -3   5  -8    1.46    0.11
   4  -5   8    2.44    0.14
  -4  -5  -8    2.41    0.13
  -4   5  -8    2.43    0.14
  -5  -5  -8    3.20    0.15
   5  -5   8    3.25    0.16
  -5   5  -8    2.85    0.15
   6  -5   8   -0.01    0.05
  -6  -5  -8    0.08    0.05
  -6   5  -8   -0.07    0.05
   7  -5   8    1.47    0.13
  -7  -5  -8    1.59    0.12
  -7   5  -8    1.81    0.13
   8  -5   8    2.19    0.15
  -8  -5  -8    2.33    0.14
  -8   5  -8    2.40    0.15
  -9  -5  -8    0.02    0.06
   9  -5   8   -0.07    0.05
  -9   5  -8    0.03    0.06
  10  -5   8    0.59    0.10
 -10  -5  -8    0.49    0.09
 -10   5  -8    0.52    0.09
  11  -5   8    0.92    0.11
 -11  -5  -8    0.93    0.11
 -11   5  -8    0.82    0.10
  12  -5   8    0.84    0.12
 -12  -5  -8    0.85    0.11
 -12   5  -8    1.03    0.12
  13  -5   8    0.06    0.07
 -13   5  -8    0.01    0.06
  14  -6  -8    0.08    0.07
  13  -6  -8    0.64    0.11
 -13   6   8    0.31    0.13
 -12  -6   8    0.87    0.11
  12  -6  -8    0.95    0.11
 -12   6   8    0.84    0.12
 -11  -6   8   -0.01    0.07
  11  -6  -8    0.03    0.06
  11  -6  -8    0.04    0.06
 -11   6   8    0.01    0.08
 -10  -6   8    0.26    0.08
  10  -6  -8    0.36    0.07
  10  -6  -8    0.22    0.07
 -10   6   8    0.14    0.08
   9  -6  -8    1.13    0.11
   9  -6  -8    1.04    0.11
  -9  -6   8    1.10    0.12
  -9   6   8    1.03    0.12
   8  -6  -8    0.82    0.09
  -8  -6   8    0.81    0.11
   8  -6  -8    0.69    0.09
  -8   6   8    0.59    0.10
  -7  -6   8    0.01    0.06
   7  -6  -8    0.05    0.05
   7  -6  -8    0.00    0.05
  -7   6   8    0.07    0.07
   6  -6  -8    0.58    0.08
   6  -6  -8    0.61    0.08
  -6  -6   8    0.69    0.10
  -6   6   8    0.55    0.09
  -5  -6   8    4.34    0.19
   5  -6  -8    4.37    0.17
   5  -6  -8    4.62    0.19
  -5   6   8    4.21    0.20
  -4  -6   8   21.88    0.56
   4  -6  -8   22.04    0.53
   4  -6  -8   21.86    0.54
  -4   6   8   21.19    0.56
   3  -6  -8   20.30    0.51
  -3  -6   8   19.74    0.52
   3   6  -8   19.54    0.48
  -3   6   8   19.74    0.52
  -2  -6   8    5.72    0.22
   2  -6  -8    5.79    0.21
  -2   6   8    5.88    0.22
   2   6  -8    5.67    0.19
   1  -6  -8   31.17    0.74
  -1  -6   8   32.60    0.76
  -1   6   8   31.41    0.75
   1   6  -8   32.18    0.73
   0  -6  -8    0.11    0.06
   0  -6   8    0.15    0.07
   0   6  -8    0.18    0.05
   0   6   8    0.17    0.06
  -1  -6  -8    5.11    0.20
   1  -6   8    5.60    0.22
   1   6   8    5.48    0.20
  -1   6  -8    5.18    0.20
   2  -6   8    6.10    0.24
  -2  -6  -8    6.29    0.22
  -2   6  -8    6.23    0.22
   2   6   8    6.24    0.21
  -3  -6  -8    1.90    0.13
   3  -6   8    1.93    0.14
  -3   6  -8    1.93    0.13
  -4  -6  -8    0.65    0.09
   4  -6   8    0.63    0.09
  -4   6  -8    0.63    0.09
  -5  -6  -8    1.11    0.11
   5  -6   8    1.38    0.13
  -5   6  -8    1.10    0.11
  -6  -6  -8    0.44    0.08
   6  -6   8    0.43    0.09
  -6   6  -8    0.37    0.07
   7  -6   8    0.31    0.08
  -7  -6  -8    0.24    0.07
  -7   6  -8    0.31    0.08
  -8  -6  -8    0.44    0.08
   8  -6   8    0.57    0.10
  -8   6  -8    0.35    0.08
  -9  -6  -8    0.28    0.08
   9  -6   8    0.35    0.09
  -9   6  -8    0.42    0.09
 -10  -6  -8    3.90    0.20
  10  -6   8    4.25    0.22
 -10   6  -8    3.83    0.20
  11  -6   8    5.60    0.26
 -11  -6  -8    5.76    0.25
 -11   6  -8    5.56    0.25
  12  -7  -8   10.42    0.36
  11  -7  -8    5.35    0.25
  11  -7  -8    5.18    0.23
 -10  -7   8    1.90    0.16
  10  -7  -8    1.79    0.14
  10  -7  -8    1.75    0.15
 -10   7   8    1.83    0.17
   9  -7  -8    2.90    0.16
  -9  -7   8    2.84    0.18
   9  -7  -8    2.76    0.16
  -9   7   8    2.89    0.19
   8  -7  -8    3.78    0.26
  -8  -7   8    4.07    0.21
   8  -7  -8    3.50    0.18
  -8   7   8    3.79    0.21
   7  -7  -8    7.01    0.25
  -7  -7   8    7.05    0.27
  -7   7   8    6.56    0.27
  -6  -7   8    1.73    0.15
   6  -7  -8    1.96    0.13
  -6   7   8    1.85    0.15
  -5  -7   8    0.75    0.10
   5  -7  -8    0.94    0.10
  -5   7   8    0.86    0.12
  -4  -7   8    0.55    0.09
   4  -7  -8    0.58    0.08
  -4   7   8    0.61    0.10
   3  -7  -8    0.09    0.06
  -3  -7   8    0.19    0.07
  -3   7   8    0.15    0.07
  -2  -7   8    3.33    0.18
   2  -7  -8    3.34    0.16
   2   7  -8    3.34    0.15
  -2   7   8    3.36    0.17
   1  -7  -8    4.27    0.18
  -1  -7   8    3.96    0.20
   1   7  -8    4.39    0.17
  -1   7   8    4.33    0.19
   0  -7  -8    5.43    0.21
   0  -7   8    5.17    0.23
   0   7   8    5.33    0.21
   0   7  -8    4.83    0.20
   1  -7   8    2.56    0.17
  -1  -7  -8    2.61    0.15
  -1   7  -8    2.71    0.15
  -2  -7  -8    3.72    0.18
   2  -7   8    3.89    0.20
  -2   7  -8    3.72    0.17
   3  -7   8    3.74    0.20
  -3  -7  -8    3.84    0.18
  -3   7  -8    4.13    0.19
   4  -7   8    4.55    0.22
  -4  -7  -8    4.80    0.21
  -4   7  -8    4.90    0.21
   5  -7   8    4.77    0.23
  -5  -7  -8    5.19    0.21
  -5   7  -8    4.52    0.21
  -6  -7  -8    3.87    0.19
   6  -7   8    3.54    0.20
  -6   7  -8    3.72    0.19
   7  -7   8    5.30    0.25
  -7  -7  -8    5.53    0.23
  -7   7  -8    5.66    0.24
  -8  -7  -8   10.23    0.34
   8  -7   8   10.59    0.37
  -8   7  -8   10.66    0.36
   9  -7   8    0.47    0.10
  -9  -7  -8    0.44    0.10
  -9   7  -8    0.38    0.15
  -7  -8   8    1.08    0.14
  -7   8   8    1.32    0.14
  -6  -8   8    0.16    0.09
  -6   8   8   -0.07    0.07
   5  -8  -8    1.59    0.19
  -5  -8   8    1.41    0.14
  -5   8   8    1.51    0.15
  -4  -8   8    0.15    0.08
   4  -8  -8    0.12    0.06
  -4   8   8    0.11    0.08
  -3  -8   8    0.02    0.07
   3  -8  -8    0.03    0.06
  -3   8   8   -0.07    0.07
  -2  -8   8    2.63    0.18
   2  -8  -8    2.29    0.15
  -2   8   8    2.20    0.16
   1  -8  -8    2.20    0.14
  -1  -8   8    1.55    0.15
  -1   8   8    1.92    0.15
   0  -8  -8    0.49    0.09
   0  -8   8    0.63    0.10
   0   8  -8    0.66    0.08
   1  -8   8    0.06    0.08
  -1  -8  -8    0.07    0.06
  -1   8  -8    0.01    0.06
   2  -8   8    2.44    0.18
  -2  -8  -8    2.35    0.15
  -2   8  -8    2.35    0.15
  -3  -8  -8    0.04    0.06
   3  -8   8    0.12    0.08
  -3   8  -8    0.04    0.06
  -4  -8  -8    1.65    0.13
   4  -8   8    1.55    0.15
  -4   8  -8    1.75    0.14
  -5  -8  -8    0.20    0.08
   5  -8   8    0.21    0.09
  -5   8  -8    0.25    0.08
  -6  -8  -8    0.27    0.08
   6  -8   8    0.21    0.14
  -6   8  -8    0.25    0.08
  -7  -8  -8    0.32    0.09
  -4   9   8    0.86    0.12
  -3   9   8    5.87    0.29
  -2   9  -8    0.24    0.08
 -17   0   9    0.08    0.06
  17   0  -9   -0.05    0.08
  16   0  -9   -0.02    0.07
 -16   0   9    0.00    0.06
  15   0  -9    0.04    0.07
 -15   0   9   -0.02    0.04
 -14   0   9    0.02    0.05
  14   0  -9    0.00    0.06
 -13   0   9   -0.05    0.04
  13   0  -9    0.05    0.06
 -12   0   9    0.02    0.04
 -12   0   9   -0.05    0.05
  12   0  -9    0.04    0.06
 -11   0   9   -0.01    0.05
  11   0  -9   -0.04    0.05
 -11   0   9    0.02    0.04
  10   0  -9   -0.03    0.05
 -10   0   9    0.02    0.04
 -10   0   9    0.01    0.05
  -9   0   9    0.04    0.06
   9   0  -9    0.05    0.05
  -9   0   9   -0.01    0.03
  -8   0   9   -0.02    0.05
   8   0  -9    0.01    0.05
  -8   0   9    0.02    0.03
  -7   0   9    0.03    0.03
   7   0  -9    0.07    0.05
  -7   0   9    0.02    0.05
  -6   0   9    0.01    0.03
   6   0  -9    0.00    0.04
  -6   0   9    0.01    0.05
  -5   0   9    0.02    0.02
   5   0  -9    0.02    0.04
  -5   0   9   -0.02    0.04
  -4   0   9   -0.01    0.04
  -4   0   9    0.01    0.02
   4   0  -9    0.05    0.03
  -3   0   9   -0.04    0.04
  -3   0   9   -0.01    0.02
   3   0  -9    0.04    0.03
  -2   0   9   -0.04    0.03
  -2   0   9    0.01    0.02
   2   0  -9    0.03    0.03
  -1   0   9    0.03    0.01
   1   0  -9   -0.01    0.03
  -1   0   9    0.01    0.01
   0   0  -9   -0.03    0.02
   0   0   9   -0.01    0.01
   0   0   9    0.01    0.03
  -1   0  -9   -0.01    0.03
   1   0   9   -0.01    0.02
   1   0   9   -0.02    0.03
   2   0   9   -0.04    0.03
  -2   0  -9   -0.01    0.03
   2   0   9    0.01    0.02
  -3   0  -9    0.04    0.03
   3   0   9    0.01    0.02
   3   0   9   -0.01    0.03
   4   0   9    0.03    0.04
  -4   0  -9    0.03    0.03
  -5   0  -9   -0.03    0.03
  -5   0  -9    0.00    0.01
   5   0   9    0.03    0.04
  -6   0  -9   -0.02    0.03
  -6   0  -9   -0.06    0.03
  -7   0  -9    0.00    0.04
  -7   0  -9   -0.01    0.04
  -7   0  -9    0.00    0.03
  -8   0  -9   -0.01    0.03
  -8   0  -9   -0.06    0.03
  -8   0  -9    0.00    0.04
  -9   0  -9    0.01    0.03
  -9   0  -9    0.03    0.04
  -9   0  -9    0.01    0.04
 -10   0  -9    0.00    0.04
 -10   0  -9    0.04    0.04
 -10   0  -9   -0.01    0.04
 -11   0  -9   -0.03    0.04
 -12   0  -9    0.02    0.05
 -13   0  -9   -0.07    0.05
 -14   0  -9   -0.03    0.05
 -15   0  -9    0.05    0.06
 -16   0  -9   -0.09    0.07
  17  -1  -9    0.03    0.09
 -17  -1   9   -0.02    0.06
  17   1  -9    0.07    0.09
 -17   1   9   -0.08    0.05
 -16  -1   9    0.89    0.11
  16  -1  -9    0.93    0.12
 -16   1   9    0.89    0.11
  16   1  -9    0.68    0.11
  15  -1  -9    0.26    0.08
 -15  -1   9    0.24    0.07
 -15   1   9    0.31    0.07
  15   1  -9    0.23    0.08
  14  -1  -9    0.72    0.10
 -14  -1   9    0.70    0.09
  14   1  -9    0.56    0.09
 -14   1   9    0.76    0.09
 -13  -1   9    0.61    0.08
  13  -1  -9    0.54    0.09
 -13   1   9    0.72    0.09
 -13   1   9    0.66    0.08
  13   1  -9    0.62    0.09
  12  -1  -9    0.24    0.07
 -12  -1   9    0.21    0.06
  12   1  -9    0.20    0.07
 -12   1   9    0.13    0.05
 -12   1   9    0.21    0.07
  11  -1  -9   13.35    0.37
 -11  -1   9   12.77    0.36
  11   1  -9   12.89    0.36
 -11   1   9   13.04    0.35
 -11   1   9   12.91    0.36
  10  -1  -9   17.24    0.44
 -10  -1   9   16.74    0.43
 -10  -1   9   16.81    0.41
 -10   1   9   16.41    0.42
 -10   1   9   16.69    0.43
  10   1  -9   16.31    0.43
  -9  -1   9    5.49    0.19
   9  -1  -9    5.68    0.20
  -9  -1   9    5.87    0.19
   9   1  -9    5.25    0.19
  -9   1   9    5.21    0.20
  -9   1   9    5.88    0.19
  -8  -1   9   22.42    0.53
  -8  -1   9   22.36    0.53
   8  -1  -9   22.61    0.54
   8   1  -9   22.50    0.53
  -8   1   9   22.75    0.54
  -8   1   9   22.45    0.52
   7  -1  -9   30.62    0.69
  -7  -1   9   29.79    0.67
  -7  -1   9   30.32    0.67
   7   1  -9   29.91    0.67
  -7   1   9   29.84    0.67
  -7   1   9   30.03    0.69
  -6  -1   9   49.94    1.08
  -6  -1   9   51.43    1.07
   6  -1  -9   50.79    1.09
  -6   1   9   50.70    1.09
   6   1  -9   49.71    1.07
  -6   1   9   49.37    1.06
  -5  -1   9   11.55    0.30
   5  -1  -9   11.68    0.30
  -5  -1   9   11.34    0.28
  -5   1   9   11.42    0.31
  -5   1   9   11.30    0.27
   5   1  -9   11.71    0.29
   4  -1  -9    0.59    0.06
  -4  -1   9    0.49    0.06
  -4  -1   9    0.58    0.05
  -4   1   9    0.63    0.07
  -4   1   9    0.56    0.04
   4   1  -9    0.54    0.05
  -3  -1   9    4.91    0.14
  -3  -1   9    4.93    0.16
   3  -1  -9    5.03    0.16
  -3   1   9    4.75    0.17
  -3   1   9    4.99    0.13
   3   1  -9    5.24    0.15
   2  -1  -9    7.62    0.21
  -2  -1   9    7.33    0.19
  -2  -1   9    7.42    0.21
  -2   1   9    7.56    0.17
   2   1  -9    7.54    0.19
  -1  -1   9    0.08    0.03
  -1  -1   9   -0.01    0.02
   1  -1  -9    0.01    0.03
   1   1  -9    0.01    0.01
  -1   1   9   -0.04    0.04
   0  -1  -9    7.83    0.21
   0  -1   9    7.51    0.19
   0   1   9    7.86    0.22
   1  -1   9    5.97    0.15
  -1  -1  -9    6.26    0.18
   1  -1   9    5.42    0.17
   1   1   9    6.11    0.18
  -2  -1  -9    2.30    0.10
   2  -1   9    2.19    0.08
  -2   1  -9    1.99    0.08
  -2   1  -9    2.23    0.10
   2   1   9    2.16    0.10
   3  -1   9    9.64    0.24
  -3  -1  -9    9.73    0.26
   3   1   9    9.82    0.26
  -3   1  -9    9.59    0.24
  -3   1  -9    9.72    0.26
  -4  -1  -9    0.80    0.04
   4  -1   9    0.80    0.06
  -4  -1  -9    0.90    0.07
   4   1   9    0.78    0.07
  -4   1  -9    0.85    0.07
  -4   1  -9    0.73    0.06
  -5  -1  -9    2.07    0.07
   5  -1   9    2.15    0.09
  -5  -1  -9    2.18    0.11
   5   1   9    2.26    0.10
  -5   1  -9    2.22    0.09
  -5   1  -9    2.29    0.11
  -6  -1  -9   18.18    0.41
  -6  -1  -9   18.48    0.45
  -6   1  -9   18.03    0.43
   6   1   9   18.97    0.44
  -6   1  -9   18.54    0.43
  -6   1  -9   18.62    0.44
  -7  -1  -9   15.63    0.40
  -7  -1  -9   15.12    0.38
  -7   1  -9   15.76    0.39
   7   1   9   15.92    0.38
  -7   1  -9   15.65    0.38
  -7   1  -9   15.79    0.38
  -8  -1  -9   52.05    1.13
   8   1   9   50.74    1.11
  -8   1  -9   51.61    1.11
  -8   1  -9   52.65    1.11
  -8   1  -9   51.77    1.12
  -9  -1  -9    0.43    0.06
  -9   1  -9    0.35    0.05
  -9   1  -9    0.30    0.05
   9   1   9    0.39    0.05
  -9   1  -9    0.28    0.05
 -10  -1  -9    4.00    0.17
 -10   1  -9    3.93    0.16
 -10   1  -9    3.96    0.16
 -10   1  -9    4.08    0.16
 -11  -1  -9    1.07    0.10
 -11   1  -9    1.13    0.09
 -11   1  -9    1.17    0.09
 -11   1  -9    1.28    0.10
 -12  -1  -9    2.30    0.14
 -12   1  -9    2.40    0.13
 -12   1  -9    2.26    0.13
 -13  -1  -9    0.98    0.10
 -13   1  -9    0.92    0.10
 -14  -1  -9    0.14    0.07
 -14   1  -9    0.33    0.08
 -15  -1  -9    2.67    0.16
 -17   2   9    1.53    0.17
 -16  -2   9   18.44    0.52
  16  -2  -9   18.25    0.53
  16   2  -9   18.68    0.52
 -16   2   9   18.16    0.52
  15  -2  -9    8.41    0.30
 -15  -2   9    7.67    0.28
 -15   2   9    7.99    0.29
  15   2  -9    8.12    0.29
  14  -2  -9    3.74    0.20
 -14  -2   9    3.50    0.18
  14   2  -9    3.69    0.19
 -14   2   9    3.70    0.19
 -14   2   9    3.85    0.18
 -13  -2   9   -0.06    0.04
  13  -2  -9    0.01    0.06
 -13   2   9    0.12    0.05
 -13   2   9   -0.03    0.06
  13   2  -9    0.06    0.06
  12  -2  -9    3.88    0.18
 -12  -2   9    3.52    0.17
  12   2  -9    3.62    0.17
 -12   2   9    3.78    0.18
 -12   2   9    3.57    0.16
  11  -2  -9   12.81    0.37
 -11  -2   9   12.66    0.36
 -11   2   9   12.89    0.37
 -11   2   9   12.67    0.35
  11   2  -9   13.29    0.36
 -10  -2   9    4.88    0.19
  10  -2  -9    5.15    0.20
 -10   2   9    5.07    0.20
 -10   2   9    4.91    0.18
  10   2  -9    5.11    0.19
  -9  -2   9   24.58    0.60
   9  -2  -9   25.44    0.61
  -9  -2   9   25.41    0.57
  -9   2   9   25.55    0.61
  -9   2   9   25.00    0.59
   9   2  -9   25.12    0.59
  -8  -2   9    0.05    0.05
   8  -2  -9    0.04    0.05
  -8  -2   9    0.04    0.05
  -8   2   9    0.07    0.04
  -8   2   9    0.01    0.06
   8   2  -9    0.02    0.04
   7  -2  -9    0.02    0.02
  -7  -2   9    0.00    0.04
  -7  -2   9   -0.03    0.04
  -7   2   9   -0.06    0.05
   7   2  -9    0.06    0.04
  -7   2   9    0.00    0.03
  -6  -2   9    0.17    0.04
  -6  -2   9    0.09    0.05
  -6   2   9    0.22    0.04
  -6   2   9    0.21    0.07
   6   2  -9    0.11    0.04
  -5  -2   9    0.79    0.07
  -5  -2   9    0.73    0.07
  -5   2   9    0.81    0.05
   5   2  -9    0.82    0.07
  -5   2   9    0.71    0.08
  -4  -2   9    5.79    0.17
  -4  -2   9    5.62    0.18
   4   2  -9    5.70    0.16
  -4   2   9    5.70    0.15
   3  -2  -9   10.66    0.28
  -3  -2   9   10.18    0.27
  -3  -2   9   10.69    0.27
  -3   2   9   10.33    0.24
  -3   2   9   10.90    0.29
   2  -2  -9   74.46    1.54
  -2  -2   9   73.54    1.53
  -2  -2   9   73.91    1.52
  -2   2   9   76.14    1.55
   2   2  -9   67.86    1.50
  -1  -2   9   26.81    0.59
   1  -2  -9   27.21    0.61
  -1  -2   9   26.63    0.61
  -1   2   9   27.33    0.62
   1   2  -9   27.21    0.57
   0  -2   9    6.86    0.19
   0  -2  -9    6.95    0.21
   0   2  -9    7.05    0.20
   0   2  -9    7.06    0.17
   0   2   9    7.07    0.21
  -1  -2  -9    4.69    0.16
   1  -2   9    4.44    0.14
  -1   2  -9    4.64    0.12
  -1   2  -9    4.90    0.16
   1   2   9    4.71    0.16
   2  -2   9   18.20    0.42
  -2  -2  -9   17.99    0.43
  -2   2  -9   18.48    0.39
   2   2   9   17.88    0.43
  -3  -2  -9   37.42    0.81
   3  -2   9   37.95    0.80
   3   2   9   36.75    0.81
  -3   2  -9   34.62    0.77
   4  -2   9   28.49    0.62
  -4  -2  -9   27.93    0.64
   4   2   9   27.82    0.63
  -4   2  -9   27.32    0.63
   5  -2   9   32.53    0.71
  -5  -2  -9   32.54    0.72
  -5   2  -9   30.98    0.72
  -5   2  -9   31.95    0.68
   5   2   9   31.31    0.71
  -6  -2  -9   -0.03    0.04
   6  -2   9   -0.03    0.04
  -6   2  -9    0.00    0.04
  -6   2  -9    0.00    0.03
   6   2   9    0.04    0.04
  -7  -2  -9    0.18    0.05
  -7   2  -9    0.17    0.05
  -7   2  -9    0.17    0.04
   7   2   9    0.23    0.05
  -8  -2  -9    0.21    0.06
  -8   2  -9    0.21    0.04
   8   2   9    0.22    0.05
  -8   2  -9    0.25    0.05
  -8   2  -9    0.14    0.05
  -9  -2  -9    1.19    0.10
  -9   2  -9    1.06    0.09
  -9   2  -9    1.06    0.09
 -10  -2  -9    1.43    0.11
 -10   2  -9    1.67    0.11
 -10   2  -9    1.51    0.11
 -11  -2  -9    4.43    0.19
 -11   2  -9    4.53    0.18
 -11   2  -9    4.19    0.18
 -12  -2  -9    4.42    0.20
 -12   2  -9    4.37    0.18
 -12   2  -9    4.43    0.18
 -13  -2  -9    3.13    0.17
 -13   2  -9    3.03    0.16
 -13   2  -9    3.76    0.25
 -14  -2  -9    4.37    0.21
 -14   2  -9    4.36    0.28
 -15  -2  -9   12.50    0.53
 -16  -3   9    0.54    0.10
  16  -3  -9    0.69    0.11
  16   3  -9    0.58    0.11
 -16   3   9    0.57    0.10
 -15  -3   9    0.36    0.09
  15  -3  -9    0.27    0.08
  15   3  -9    0.33    0.09
 -15   3   9    0.27    0.09
 -15   3   9    0.34    0.08
 -14  -3   9    1.25    0.13
  14  -3  -9    1.01    0.12
  14   3  -9    0.99    0.11
 -14   3   9    1.16    0.13
 -14   3   9    1.20    0.12
 -13  -3   9    0.56    0.09
  13  -3  -9    0.41    0.09
  13   3  -9    0.53    0.09
 -13   3   9    0.58    0.08
 -13   3   9    0.25    0.08
 -12  -3   9    1.84    0.13
  12  -3  -9    2.24    0.15
 -12   3   9    2.05    0.13
  12   3  -9    1.81    0.13
 -12   3   9    1.73    0.14
 -11  -3   9    1.06    0.10
  11  -3  -9    1.27    0.12
 -11   3   9    1.08    0.09
 -11   3   9    1.17    0.11
  11   3  -9    1.10    0.10
 -10  -3   9    1.12    0.10
  10  -3  -9    1.02    0.10
 -10   3   9    1.06    0.09
  10   3  -9    1.20    0.10
 -10   3   9    1.09    0.11
   9  -3  -9    0.17    0.06
  -9  -3   9    0.18    0.06
   9   3  -9    0.13    0.05
  -9   3   9    0.12    0.07
  -9   3   9    0.18    0.05
   8  -3  -9    1.39    0.11
  -8  -3   9    1.25    0.10
  -8   3   9    1.53    0.09
   8   3  -9    1.57    0.10
  -8   3   9    1.35    0.12
  -7  -3   9    4.07    0.16
  -7  -3   9    4.02    0.15
   7  -3  -9    3.67    0.16
  -7   3   9    4.39    0.18
   7   3  -9    4.19    0.15
  -7   3   9    3.96    0.14
   6  -3  -9    5.92    0.20
  -6  -3   9    5.87    0.20
  -6  -3   9    6.03    0.19
  -6   3   9    6.09    0.22
  -6   3   9    5.88    0.18
   6   3  -9    5.91    0.18
  -5  -3   9    0.03    0.04
   5  -3  -9    0.02    0.05
  -5  -3   9    0.00    0.05
  -5   3   9    0.04    0.03
   5   3  -9    0.08    0.03
  -5   3   9    0.01    0.02
  -4  -3   9    6.75    0.20
  -4  -3   9    6.88    0.21
   4   3  -9    6.76    0.18
  -4   3   9    6.85    0.18
  -3  -3   9    1.45    0.09
  -3  -3   9    1.43    0.08
  -3   3   9    1.29    0.11
   3   3  -9    1.33    0.06
  -2  -3   9    0.26    0.05
   2  -3  -9    0.37    0.04
  -2   3   9    0.29    0.07
   2   3  -9    0.27    0.03
   2   3  -9    0.36    0.05
   1  -3  -9    2.67    0.08
  -1  -3   9    2.48    0.11
  -1   3   9    2.58    0.13
   1   3  -9    2.59    0.11
   0  -3   9    0.05    0.04
   0   3  -9    0.09    0.04
   0   3   9    0.06    0.05
   1  -3   9    0.12    0.05
   1   3   9    0.18    0.06
  -1   3  -9    0.07    0.04
   2  -3   9    0.40    0.06
  -2   3  -9    0.35    0.05
   2   3   9    0.50    0.07
   3  -3   9    4.23    0.15
   3   3   9    4.09    0.15
  -4  -3  -9    0.84    0.08
   4  -3   9    0.83    0.08
  -4   3  -9    0.77    0.07
   4   3   9    0.80    0.08
   5  -3   9    0.05    0.05
  -5  -3  -9    0.09    0.05
  -5   3  -9    0.12    0.05
   5   3   9    0.11    0.05
   6  -3   9   17.33    0.43
  -6  -3  -9   17.90    0.45
  -6   3  -9   17.66    0.44
   6   3   9   16.56    0.42
  -7  -3  -9    8.46    0.27
   7  -3   9    8.68    0.26
  -7   3  -9    8.32    0.26
   8  -3   9    4.32    0.17
  -8  -3  -9    4.63    0.19
  -8   3  -9    4.59    0.18
   9  -3   9    2.03    0.13
  -9  -3  -9    2.14    0.13
  -9   3  -9    2.02    0.13
 -10  -3  -9    2.68    0.15
 -10   3  -9    2.21    0.13
 -11  -3  -9    1.50    0.12
 -11   3  -9    1.51    0.12
 -12  -3  -9    0.22    0.07
 -12   3  -9    0.23    0.07
 -12   3  -9    0.23    0.07
 -13  -3  -9    0.37    0.08
 -13   3  -9    0.44    0.09
 -13   3  -9    0.51    0.08
 -14  -3  -9    1.95    0.16
 -14   3  -9    2.27    0.19
 -14   3  -9    1.83    0.15
 -15   3  -9    1.89    0.21
 -16   4   9    7.13    0.31
  16   4  -9    7.44    0.29
  15  -4  -9    3.35    0.20
 -15  -4   9    3.50    0.20
 -15   4   9    3.16    0.18
  15   4  -9    3.47    0.19
 -15   4   9    3.64    0.21
  14  -4  -9    0.25    0.08
 -14  -4   9    0.16    0.07
  14   4  -9    0.26    0.08
 -14   4   9    0.24    0.08
 -14   4   9    0.22    0.09
  13  -4  -9    0.41    0.09
 -13  -4   9    0.19    0.07
 -13   4   9    0.36    0.08
 -13   4   9    0.18    0.08
  13   4  -9    0.33    0.08
  12  -4  -9   12.18    0.37
 -12  -4   9   12.21    0.38
  12   4  -9   12.42    0.35
 -12   4   9   12.61    0.39
 -12   4   9   12.03    0.36
 -11  -4   9    1.14    0.11
  11  -4  -9    1.22    0.12
 -11   4   9    1.19    0.10
  11   4  -9    1.55    0.11
 -11   4   9    1.08    0.12
 -10  -4   9    0.54    0.09
  10  -4  -9    0.52    0.08
  10   4  -9    0.58    0.07
 -10   4   9    0.54    0.07
 -10   4   9    0.52    0.09
   9  -4  -9    0.01    0.05
  -9  -4   9    0.01    0.06
  -9   4   9    0.06    0.04
  -9   4   9    0.09    0.07
   9   4  -9    0.02    0.04
  -8  -4   9    1.39    0.11
   8  -4  -9    1.42    0.11
   8   4  -9    1.48    0.09
  -8   4   9    1.39    0.10
  -8   4   9    1.49    0.13
  -7  -4   9    0.37    0.07
   7  -4  -9    0.38    0.07
  -7   4   9    0.37    0.05
  -7   4   9    0.48    0.08
   6  -4  -9    1.19    0.10
  -6  -4   9    1.20    0.08
  -6  -4   9    1.20    0.10
  -6   4   9    1.08    0.08
  -6   4   9    1.11    0.10
   5  -4  -9    0.13    0.04
  -5  -4   9    0.17    0.04
  -5  -4   9    0.19    0.06
   5  -4  -9    0.19    0.06
  -5   4   9    0.12    0.06
  -4  -4   9    3.78    0.14
   4  -4  -9    3.96    0.16
  -4  -4   9    3.71    0.16
   4  -4  -9    3.60    0.13
  -4   4   9    3.83    0.17
   3  -4  -9    9.43    0.28
   3  -4  -9    9.45    0.24
  -3  -4   9    9.62    0.28
   3   4  -9    9.66    0.26
  -3   4   9    9.36    0.29
   2  -4  -9   17.85    0.42
   2  -4  -9   17.00    0.44
  -2  -4   9   17.69    0.44
  -2   4   9   17.04    0.44
   2   4  -9   17.05    0.42
   1  -4  -9    3.87    0.16
  -1  -4   9    3.87    0.16
  -1   4   9    3.58    0.16
   1   4  -9    3.93    0.15
   0  -4   9    0.07    0.06
   0  -4  -9    0.04    0.05
   0   4   9    0.10    0.06
   0   4  -9    0.02    0.04
  -1  -4  -9    3.17    0.14
   1  -4   9    2.76    0.14
  -1   4  -9    2.75    0.13
   1   4   9    3.14    0.14
   2  -4   9   19.96    0.49
  -2  -4  -9   19.85    0.49
   2   4   9   19.77    0.48
  -2   4  -9   19.33    0.48
   3  -4   9    0.17    0.06
  -3  -4  -9    0.31    0.06
   3   4   9    0.34    0.06
  -3   4  -9    0.35    0.06
   4  -4   9    2.10    0.12
  -4  -4  -9    2.24    0.12
  -4   4  -9    2.08    0.12
   4   4   9    2.00    0.11
  -5  -4  -9    0.14    0.05
   5  -4   9   -0.01    0.05
  -5   4  -9    0.02    0.05
   5   4   9    0.03    0.04
  -6  -4  -9    4.59    0.18
   6  -4   9    4.45    0.18
  -6   4  -9    4.46    0.18
  -7  -4  -9    5.49    0.21
   7  -4   9    5.78    0.21
  -7   4  -9    5.49    0.21
   8  -4   9    4.65    0.20
  -8  -4  -9    4.76    0.20
  -8   4  -9    5.07    0.20
  -9  -4  -9    0.45    0.08
   9  -4   9    0.44    0.08
  -9   4  -9    0.49    0.08
  10  -4   9   -0.04    0.05
 -10  -4  -9   -0.03    0.05
 -10   4  -9    0.04    0.06
 -11  -4  -9    8.31    0.29
  11  -4   9    8.21    0.29
 -11   4  -9    7.95    0.28
  12  -4   9    0.75    0.10
 -12  -4  -9    0.73    0.10
 -12   4  -9    0.61    0.09
 -13  -4  -9    0.91    0.12
  13  -4   9    0.80    0.11
 -13   4  -9    0.69    0.10
  14  -4   9    0.60    0.10
 -14   4  -9    0.80    0.10
 -15   5   9    0.40    0.10
 -14  -5   9    3.27    0.22
  14  -5  -9    3.08    0.19
 -14   5   9    3.33    0.22
 -14   5   9    3.17    0.18
 -13  -5   9    3.34    0.19
  13  -5  -9    3.64    0.20
 -13   5   9    3.43    0.18
 -13   5   9    3.62    0.21
  12  -5  -9    2.87    0.17
 -12  -5   9    2.70    0.17
 -12   5   9    2.96    0.16
 -12   5   9    2.81    0.19
  11  -5  -9    1.15    0.12
 -11  -5   9    0.84    0.11
 -11   5   9    1.04    0.11
 -11   5   9    0.92    0.12
 -10  -5   9    1.77    0.14
  10  -5  -9    1.66    0.13
 -10   5   9    1.38    0.13
 -10   5   9    1.75    0.12
  -9  -5   9    3.43    0.18
   9  -5  -9    3.67    0.18
  -9   5   9    3.36    0.16
  -9   5   9    3.80    0.19
  -8  -5   9    0.45    0.09
   8  -5  -9    0.55    0.08
  -8   5   9    0.39    0.09
   7  -5  -9   33.31    0.77
   7  -5  -9   33.98    0.80
  -7  -5   9   34.71    0.81
  -7   5   9   34.01    0.82
   6  -5  -9   21.58    0.55
  -6  -5   9   22.11    0.55
   6  -5  -9   21.51    0.52
  -6   5   9   22.08    0.56
   5  -5  -9   19.74    0.51
   5  -5  -9   20.19    0.49
  -5  -5   9   20.91    0.49
  -5  -5   9   20.04    0.52
  -5   5   9   20.54    0.53
  -4  -5   9   27.32    0.65
   4  -5  -9   26.92    0.65
   4   5  -9   27.42    0.62
  -4   5   9   27.12    0.66
   3  -5  -9    1.49    0.11
  -3  -5   9    1.40    0.12
  -3   5   9    1.62    0.12
   3   5  -9    1.61    0.10
  -2  -5   9    3.15    0.15
   2  -5  -9    3.15    0.15
   2   5  -9    3.29    0.13
  -2   5   9    3.04    0.15
  -1  -5   9   30.47    0.71
   1  -5  -9   30.26    0.71
  -1   5   9   30.74    0.71
   1   5  -9   30.13    0.69
   0  -5   9    2.33    0.14
   0  -5  -9    2.75    0.14
   0   5  -9    2.83    0.13
   0   5   9    2.41    0.14
   1  -5   9    0.71    0.08
  -1  -5  -9    0.49    0.07
   1   5   9    0.62    0.08
  -1   5  -9    0.62    0.07
  -2  -5  -9    1.09    0.10
   2  -5   9    0.90    0.10
   2   5   9    1.01    0.09
  -2   5  -9    0.90    0.09
  -3  -5  -9    0.08    0.05
   3  -5   9    0.04    0.06
  -3   5  -9   -0.02    0.05
   3   5   9    0.00    0.05
  -4  -5  -9    0.40    0.07
   4  -5   9    0.45    0.08
  -4   5  -9    0.26    0.06
   5  -5   9    0.25    0.07
  -5  -5  -9    0.26    0.07
  -5   5  -9    0.35    0.07
   6  -5   9   16.06    0.44
  -6  -5  -9   15.88    0.43
  -6   5  -9   15.78    0.43
   7  -5   9    9.48    0.32
  -7  -5  -9    9.73    0.31
  -7   5  -9    9.92    0.31
  -8  -5  -9   31.76    0.76
   8  -5   9   30.72    0.76
  -8   5  -9   31.39    0.76
   9  -5   9   16.08    0.45
  -9  -5  -9   15.46    0.45
  -9   5  -9   15.86    0.45
  10  -5   9    0.45    0.09
 -10  -5  -9    0.47    0.09
 -10   5  -9    0.56    0.09
 -11  -5  -9    0.13    0.07
  11  -5   9    0.05    0.07
 -11   5  -9    0.11    0.07
 -12  -5  -9   10.09    0.37
  12  -5   9    9.20    0.34
 -12   5  -9    9.80    0.33
  13  -5   9    0.09    0.09
  13  -6  -9   -0.07    0.06
 -12  -6   9    0.07    0.07
  12  -6  -9    0.13    0.07
 -12   6   9   -0.05    0.08
 -11  -6   9    2.81    0.19
  11  -6  -9    2.85    0.17
  11  -6  -9    3.39    0.18
 -11   6   9    3.21    0.20
  10  -6  -9    4.41    0.21
 -10  -6   9    4.59    0.22
  10  -6  -9    4.54    0.20
 -10   6   9    4.85    0.24
   9  -6  -9    0.81    0.10
  -9  -6   9    0.78    0.10
   9  -6  -9    0.76    0.10
  -9   6   9    0.85    0.12
   8  -6  -9    0.71    0.13
  -8  -6   9    0.63    0.10
   8  -6  -9    0.60    0.09
  -8   6   9    0.61    0.11
  -7  -6   9    0.05    0.06
   7  -6  -9    0.08    0.06
  -7   6   9    0.18    0.08
  -6  -6   9    0.20    0.07
   6  -6  -9    0.15    0.06
  -6   6   9    0.12    0.07
   5  -6  -9    0.27    0.07
  -5  -6   9    0.24    0.08
  -5   6   9    0.33    0.08
   4  -6  -9    7.91    0.26
  -4  -6   9    7.36    0.27
   4   6  -9    8.16    0.28
  -4   6   9    7.50    0.27
  -3  -6   9    0.29    0.08
   3  -6  -9    0.44    0.08
   3   6  -9    0.38    0.06
  -3   6   9    0.41    0.08
   2  -6  -9    2.76    0.15
  -2  -6   9    2.55    0.16
   2   6  -9    2.70    0.13
  -2   6   9    2.68    0.15
   1  -6  -9    3.08    0.15
  -1  -6   9    2.79    0.16
   1   6  -9    2.99    0.14
  -1   6   9    2.97    0.16
   0  -6  -9   -0.05    0.05
   0  -6   9    0.04    0.06
   0   6   9    0.00    0.05
   0   6  -9    0.02    0.04
   1  -6   9    0.28    0.07
  -1  -6  -9    0.28    0.07
   1   6   9    0.20    0.06
  -1   6  -9    0.11    0.06
   2  -6   9    0.25    0.07
  -2  -6  -9    0.22    0.07
  -2   6  -9    0.19    0.06
   2   6   9    0.15    0.06
  -3  -6  -9    5.02    0.20
   3  -6   9    4.98    0.21
  -3   6  -9    4.81    0.20
  -4  -6  -9    1.77    0.13
   4  -6   9    1.62    0.14
  -4   6  -9    1.59    0.12
   5  -6   9    3.12    0.18
  -5  -6  -9    3.17    0.17
  -5   6  -9    3.08    0.16
  -6  -6  -9    1.47    0.12
   6  -6   9    1.52    0.14
  -6   6  -9    1.33    0.12
   7  -6   9    0.19    0.07
  -7  -6  -9    0.21    0.07
  -7   6  -9    0.21    0.07
   8  -6   9    0.69    0.10
  -8  -6  -9    0.34    0.08
  -8   6  -9    0.42    0.08
  -9  -6  -9    0.12    0.07
   9  -6   9    0.17    0.08
  -9   6  -9    0.34    0.09
 -10  -6  -9    0.09    0.07
  10  -6   9    0.12    0.08
 -10   6  -9    0.14    0.07
  11  -6   9    0.16    0.08
  12  -7  -9    0.14    0.09
  11  -7  -9    0.00    0.06
 -10  -7   9    0.34    0.10
  10  -7  -9    0.37    0.09
 -10   7   9    0.34    0.11
  -9  -7   9    2.37    0.18
   9  -7  -9    2.00    0.14
  -9   7   9    2.17    0.18
   8  -7  -9    0.38    0.08
  -8  -7   9    0.48    0.10
  -8   7   9    0.37    0.10
   7  -7  -9    9.85    0.32
  -7  -7   9    9.43    0.33
  -7   7   9   10.17    0.36
  -6  -7   9    0.65    0.11
   6  -7  -9    0.78    0.10
  -6   7   9    0.67    0.11
   5  -7  -9    0.42    0.08
  -5  -7   9    0.33    0.09
  -5   7   9    0.25    0.08
   4  -7  -9    0.94    0.10
  -4  -7   9    0.99    0.12
  -4   7   9    0.98    0.12
   3  -7  -9    0.31    0.07
  -3  -7   9    0.20    0.08
  -3   7   9    0.34    0.08
   2  -7  -9    0.65    0.09
  -2  -7   9    0.56    0.09
  -2   7   9    0.54    0.09
   2   7  -9    0.46    0.07
   1  -7  -9    0.11    0.06
  -1  -7   9    0.17    0.08
   1   7  -9    0.09    0.05
  -1   7   9    0.02    0.06
   0  -7  -9    2.32    0.14
   0  -7   9    2.50    0.16
   0   7   9    2.18    0.15
   0   7  -9    2.74    0.15
   1  -7   9    0.26    0.08
  -1  -7  -9    0.24    0.07
  -1   7  -9    0.30    0.07
   2  -7   9    2.95    0.18
  -2  -7  -9    2.92    0.16
  -2   7  -9    3.12    0.16
  -3  -7  -9   -0.03    0.05
   3  -7   9    0.00    0.07
  -3   7  -9    0.04    0.06
  -4  -7  -9    0.14    0.07
   4  -7   9    0.30    0.09
  -4   7  -9    0.27    0.07
   5  -7   9    1.50    0.15
  -5  -7  -9    1.35    0.12
  -5   7  -9    1.21    0.12
   6  -7   9    3.80    0.21
  -6  -7  -9    3.52    0.19
  -6   7  -9    3.83    0.19
  -7  -7  -9    0.71    0.10
   7  -7   9    0.73    0.11
  -7   7  -9    0.92    0.12
  -8  -7  -9    0.25    0.08
   8  -7   9    0.15    0.08
  -8   7  -9    0.30    0.09
  -7   8   9   -0.05    0.08
  -6  -8   9    0.02    0.08
   6  -8  -9   -0.06    0.06
  -6   8   9    0.00    0.08
   5  -8  -9    0.18    0.07
  -5  -8   9    0.07    0.08
  -5   8   9    0.04    0.08
   4  -8  -9    8.51    0.30
  -4  -8   9    8.56    0.32
  -4   8   9    8.98    0.32
  -3  -8   9    2.00    0.17
   3  -8  -9    2.07    0.14
  -3   8   9    1.79    0.15
  -2  -8   9    3.34    0.20
   2  -8  -9    3.33    0.17
  -2   8   9    3.41    0.19
   1  -8  -9    1.54    0.13
  -1  -8   9    1.58    0.15
   0  -8  -9    0.81    0.10
   0  -8   9    0.83    0.12
   0   8  -9    0.90    0.10
  -1  -8  -9    0.94    0.11
   1  -8   9    1.07    0.13
  -1   8  -9    0.91    0.10
  -2  -8  -9    5.44    0.23
   2  -8   9    5.57    0.26
  -2   8  -9    5.58    0.23
  -3  -8  -9    6.65    0.26
   3  -8   9    6.43    0.28
  -3   8  -9    6.62    0.26
   4  -8   9    8.55    0.33
  -4  -8  -9    9.62    0.32
  -4   8  -9    9.02    0.31
   5  -8   9    0.33    0.12
  -5  -8  -9    0.25    0.08
  -5   8  -9    0.41    0.09
  -6  -8  -9    3.04    0.18
 -17   0  10    1.40    0.14
  16   0 -10    4.54    0.23
 -16   0  10    4.26    0.21
  15   0 -10    0.44    0.10
 -15   0  10    0.51    0.08
  14   0 -10    0.03    0.07
 -14   0  10   -0.03    0.04
 -13   0  10    0.29    0.06
  13   0 -10    0.21    0.07
 -12   0  10    0.43    0.08
 -12   0  10    0.53    0.07
  12   0 -10    0.41    0.08
 -11   0  10    1.94    0.11
 -11   0  10    1.95    0.13
  11   0 -10    1.78    0.13
 -10   0  10   20.44    0.50
  10   0 -10   20.46    0.51
 -10   0  10   20.52    0.50
  -9   0  10   50.71    1.11
  -9   0  10   51.65    1.12
   9   0 -10   50.60    1.12
  -8   0  10   34.10    0.76
  -8   0  10   34.85    0.78
   8   0 -10   34.15    0.78
  -7   0  10   30.57    0.68
   7   0 -10   30.71    0.70
  -7   0  10   30.88    0.70
   6   0 -10  101.01    2.11
  -6   0  10  100.46    2.11
  -6   0  10  102.12    2.09
  -5   0  10    1.37    0.11
  -5   0  10    1.30    0.07
   5   0 -10    1.36    0.09
  -4   0  10    1.12    0.06
  -4   0  10    1.09    0.10
   4   0 -10    1.01    0.08
  -3   0  10    1.77    0.11
   3   0 -10    1.79    0.09
  -3   0  10    1.88    0.07
  -2   0  10    5.49    0.14
   2   0 -10    5.43    0.16
  -2   0  10    5.35    0.18
   1   0 -10   11.00    0.28
  -1   0  10   11.48    0.25
   0   0  10    0.49    0.03
   0   0  10    0.42    0.06
   0   0 -10    0.40    0.05
   1   0  10   10.93    0.29
  -1   0 -10   10.84    0.27
   1   0  10   10.98    0.24
   2   0  10   23.01    0.53
   2   0  10   22.60    0.48
  -2   0 -10   22.63    0.51
  -3   0 -10   46.25    0.99
   3   0  10   46.98    0.96
   3   0  10   46.35    1.01
   4   0  10   48.29    1.04
  -4   0 -10   47.42    1.02
   4   0  10   47.76    0.99
   5   0  10  176.03    3.61
  -5   0 -10  176.37    3.61
   6   0  10    7.65    0.23
  -6   0 -10    7.58    0.22
  -6   0 -10    7.35    0.23
  -7   0 -10    0.10    0.04
   7   0  10    0.06    0.04
  -8   0 -10    5.98    0.20
  -9   0 -10   10.88    0.30
 -10   0 -10    4.74    0.18
 -11   0 -10    2.07    0.12
 -12   0 -10    1.89    0.13
 -13   0 -10    2.38    0.14
 -14   0 -10    0.16    0.07
 -15   0 -10    0.02    0.06
 -17   1  10    1.96    0.15
  16  -1 -10    0.00    0.07
 -16  -1  10   -0.07    0.05
  16   1 -10   -0.09    0.07
 -16   1  10   -0.04    0.05
  15  -1 -10    2.04    0.16
 -15  -1  10    2.25    0.14
 -15   1  10    1.95    0.14
  15   1 -10    1.91    0.15
 -14  -1  10    1.84    0.13
  14  -1 -10    1.79    0.15
 -14   1  10    2.03    0.13
  14   1 -10    1.98    0.15
  13  -1 -10    7.81    0.28
 -13  -1  10    7.56    0.26
 -13   1  10    8.18    0.27
  13   1 -10    7.93    0.27
 -13   1  10    7.19    0.26
  12  -1 -10   -0.08    0.05
 -12  -1  10   -0.03    0.04
 -12   1  10    0.06    0.04
  12   1 -10   -0.02    0.06
 -12   1  10    0.04    0.06
  11  -1 -10    0.12    0.06
 -11  -1  10    0.14    0.05
  11   1 -10    0.22    0.06
 -11   1  10    0.26    0.07
 -11   1  10    0.16    0.05
 -10  -1  10    1.35    0.11
 -10  -1  10    1.23    0.09
  10  -1 -10    1.40    0.12
 -10   1  10    1.33    0.09
  10   1 -10    1.08    0.10
 -10   1  10    1.54    0.12
   9  -1 -10    0.20    0.06
  -9  -1  10    0.24    0.06
  -9  -1  10    0.18    0.05
  -9   1  10    0.19    0.07
   9   1 -10    0.25    0.06
  -9   1  10    0.19    0.04
  -8  -1  10    0.47    0.06
  -8  -1  10    0.46    0.07
   8  -1 -10    0.60    0.08
  -8   1  10    0.41    0.08
   8   1 -10    0.42    0.06
  -8   1  10    0.51    0.06
  -7  -1  10   10.62    0.30
  -7  -1  10   10.89    0.29
   7  -1 -10   10.80    0.30
  -7   1  10   11.98    0.29
   7   1 -10   10.74    0.29
  -7   1  10   10.85    0.31
  -6  -1  10    3.91    0.14
   6  -1 -10    3.90    0.15
  -6  -1  10    3.82    0.16
  -6   1  10    3.86    0.16
   6   1 -10    3.94    0.14
  -6   1  10    3.68    0.12
  -5  -1  10    9.11    0.24
  -5  -1  10    8.95    0.26
   5  -1 -10    9.13    0.26
   5   1 -10    9.07    0.24
  -5   1  10    9.34    0.27
  -5   1  10    8.82    0.22
   4  -1 -10   38.36    0.83
  -4  -1  10   38.00    0.81
  -4  -1  10   37.49    0.83
  -4   1  10   38.72    0.85
   4   1 -10   37.46    0.82
  -4   1  10   37.31    0.79
   3  -1 -10    2.71    0.12
  -3  -1  10    2.92    0.12
  -3  -1  10    2.71    0.10
  -3   1  10    2.38    0.12
  -3   1  10    2.71    0.08
   3   1 -10    2.90    0.11
  -2  -1  10   12.26    0.29
   2  -1 -10   12.53    0.31
  -2  -1  10   12.20    0.31
   2   1 -10   12.12    0.29
  -2   1  10   12.26    0.26
   1  -1 -10   22.81    0.53
  -1  -1  10   22.90    0.50
  -1  -1  10   22.99    0.53
   1   1 -10   23.85    0.51
  -1   1  10   23.41    0.54
   0  -1 -10    8.76    0.24
   0  -1  10    8.92    0.21
   0   1 -10    8.76    0.22
   0   1  10    8.76    0.25
  -1  -1 -10   14.68    0.36
   1  -1  10   14.38    0.33
   1   1  10   14.39    0.36
  -1   1 -10   14.58    0.34
  -2  -1 -10    2.09    0.10
   2  -1  10    2.22    0.11
   2  -1  10    2.23    0.08
  -2   1 -10    2.18    0.09
   2   1  10    2.16    0.11
  -3  -1 -10    0.17    0.05
   3  -1  10    0.31    0.04
   3   1  10    0.18    0.05
  -3   1 -10    0.23    0.04
  -3   1 -10    0.28    0.04
  -4  -1 -10    0.09    0.04
   4  -1  10    0.11    0.03
  -4   1 -10    0.14    0.04
  -4   1 -10    0.16    0.04
   4   1  10    0.12    0.04
  -5  -1 -10   -0.02    0.04
   5  -1  10    0.02    0.03
  -5   1 -10    0.10    0.04
   5   1  10    0.01    0.04
  -5   1 -10    0.01    0.04
  -6  -1 -10    0.69    0.07
   6  -1  10    0.68    0.06
  -6   1 -10    0.60    0.06
   6   1  10    0.65    0.07
  -6   1 -10    0.59    0.07
  -7  -1 -10    0.65    0.07
  -7   1 -10    0.69    0.07
  -7   1 -10    0.71    0.06
  -7   1 -10    0.76    0.07
   7   1  10    0.67    0.07
  -8  -1 -10   17.69    0.44
  -8   1 -10   17.63    0.42
   8   1  10   16.85    0.42
  -8   1 -10   17.50    0.42
  -8   1 -10   17.35    0.43
  -9  -1 -10    2.90    0.14
   9   1  10    2.43    0.12
  -9   1 -10    2.60    0.13
  -9   1 -10    2.73    0.12
  -9   1 -10    2.70    0.12
 -10  -1 -10    2.45    0.13
 -10   1 -10    2.71    0.13
 -10   1 -10    2.49    0.13
 -11  -1 -10    4.64    0.19
 -11   1 -10    4.72    0.18
 -11   1 -10    4.88    0.18
 -12  -1 -10   10.46    0.32
 -12   1 -10   10.07    0.30
 -13  -1 -10    0.05    0.06
 -14  -1 -10    1.08    0.11
 -15  -1 -10    3.02    0.18
  16  -2 -10    0.06    0.08
 -16  -2  10   -0.02    0.05
  16   2 -10    0.00    0.08
 -16   2  10    0.02    0.06
 -15  -2  10    0.87    0.10
  15  -2 -10    1.14    0.13
  15   2 -10    0.78    0.11
 -15   2  10    1.13    0.12
  14  -2 -10    0.13    0.08
 -14  -2  10    0.24    0.07
 -14   2  10    0.22    0.07
  14   2 -10    0.27    0.08
 -14   2  10    0.19    0.08
  13  -2 -10    7.47    0.28
 -13  -2  10    7.94    0.27
  13   2 -10    7.97    0.27
 -13   2  10    7.82    0.26
 -13   2  10    7.24    0.27
  12  -2 -10    0.68    0.09
 -12  -2  10    0.77    0.09
 -12   2  10    0.75    0.10
  12   2 -10    0.84    0.10
 -12   2  10    0.79    0.09
 -11  -2  10    2.19    0.13
  11  -2 -10    1.92    0.14
  11   2 -10    2.18    0.13
 -11   2  10    2.42    0.15
 -11   2  10    2.16    0.12
 -10  -2  10   12.47    0.35
  10  -2 -10   12.82    0.36
  10   2 -10   12.99    0.35
 -10   2  10   12.83    0.35
 -10   2  10   13.10    0.37
  -9  -2  10    3.96    0.15
  -9  -2  10    3.99    0.16
   9  -2 -10    4.07    0.17
   9   2 -10    4.09    0.16
  -9   2  10    4.01    0.15
  -9   2  10    3.97    0.18
  -8  -2  10    1.38    0.09
   8  -2 -10    1.31    0.11
  -8  -2  10    1.29    0.10
  -8   2  10    1.05    0.10
  -8   2  10    1.31    0.08
   8   2 -10    1.29    0.10
  -7  -2  10    1.23    0.09
  -7  -2  10    1.31    0.10
   7  -2 -10    1.29    0.10
   7   2 -10    1.42    0.09
  -7   2  10    1.27    0.08
  -7   2  10    1.42    0.12
  -6  -2  10    6.69    0.21
   6  -2 -10    6.48    0.22
  -6  -2  10    7.35    0.21
  -6   2  10    6.93    0.19
   6   2 -10    6.83    0.20
  -6   2  10    7.28    0.24
   5  -2 -10    0.44    0.06
  -5  -2  10    0.47    0.06
  -5  -2  10    0.47    0.06
  -5   2  10    0.29    0.06
   5   2 -10    0.47    0.05
  -5   2  10    0.55    0.05
   4  -2 -10    0.51    0.07
  -4  -2  10    0.62    0.07
  -4  -2  10    0.64    0.06
   4   2 -10    0.64    0.05
  -4   2  10    0.61    0.04
  -3  -2  10    0.67    0.07
  -3  -2  10    0.80    0.07
   3  -2 -10    0.89    0.08
  -3   2  10    0.75    0.04
   3   2 -10    0.75    0.06
  -2  -2  10    3.18    0.12
   2  -2 -10    3.22    0.13
   2  -2 -10    3.45    0.10
  -2  -2  10    3.02    0.13
  -2   2  10    3.25    0.15
  -1  -2  10    1.06    0.07
   1  -2 -10    1.06    0.08
  -1  -2  10    1.09    0.08
   1   2 -10    0.69    0.05
  -1   2  10    1.17    0.10
   0  -2  10    0.05    0.04
   0  -2 -10    0.04    0.04
   0   2 -10    0.05    0.03
   0   2  10    0.07    0.05
  -1  -2 -10    6.24    0.19
   1  -2  10    5.88    0.17
   1   2  10    5.93    0.20
  -1   2 -10    5.94    0.15
   2  -2  10    0.25    0.05
  -2  -2 -10    0.24    0.05
   2   2  10    0.32    0.06
  -2   2 -10    0.14    0.03
   3  -2  10    5.13    0.16
  -3  -2 -10    4.74    0.17
   3   2  10    4.86    0.17
  -4  -2 -10    3.14    0.14
   4  -2  10    3.24    0.13
  -4   2 -10    3.15    0.10
   4   2  10    3.34    0.14
  -4   2 -10    3.34    0.14
   5  -2  10    2.04    0.10
  -5  -2 -10    2.12    0.12
  -5   2 -10    2.10    0.12
   5   2  10    2.12    0.11
  -5   2 -10    2.09    0.09
   6  -2  10    7.85    0.23
  -6  -2 -10    7.66    0.24
   6   2  10    7.61    0.23
  -6   2 -10    7.86    0.24
  -7  -2 -10    5.04    0.19
   7  -2  10    4.96    0.17
  -7   2 -10    4.92    0.18
   7   2  10    4.71    0.17
  -8  -2 -10    1.55    0.11
   8  -2  10    1.56    0.10
   8   2  10    1.58    0.12
  -8   2 -10    1.52    0.10
  -9  -2 -10    3.57    0.16
  -9   2 -10    3.86    0.16
 -10  -2 -10    0.37    0.07
 -10   2 -10    0.40    0.07
 -10   2 -10    0.44    0.07
 -11  -2 -10    0.16    0.06
 -11   2 -10    0.10    0.05
 -11   2 -10    0.13    0.05
 -12  -2 -10    3.22    0.17
 -12   2 -10    2.92    0.15
 -13  -2 -10    2.33    0.15
 -14  -2 -10    7.02    0.27
  16   3 -10   -0.02    0.08
 -16   3  10    0.05    0.06
  15  -3 -10    7.52    0.30
 -15  -3  10    7.93    0.29
  15   3 -10    7.82    0.29
 -15   3  10    7.71    0.28
 -15   3  10    7.91    0.31
  14  -3 -10    6.89    0.27
 -14  -3  10    6.95    0.27
 -14   3  10    6.68    0.28
 -14   3  10    7.10    0.26
  14   3 -10    6.86    0.26
  13  -3 -10    1.70    0.14
 -13  -3  10    1.50    0.13
 -13   3  10    1.34    0.11
  13   3 -10    1.44    0.13
 -13   3  10    1.24    0.13
  12  -3 -10    1.21    0.12
 -12  -3  10    1.06    0.10
  12   3 -10    1.24    0.11
 -12   3  10    1.17    0.12
 -12   3  10    1.13    0.10
  11  -3 -10    0.60    0.09
 -11  -3  10    0.40    0.07
  11   3 -10    0.57    0.08
 -11   3  10    0.50    0.09
 -11   3  10    0.53    0.07
 -10  -3  10    0.05    0.05
  10  -3 -10   -0.03    0.05
 -10   3  10    0.10    0.05
 -10   3  10    0.00    0.06
  10   3 -10    0.05    0.05
   9  -3 -10    2.98    0.15
  -9  -3  10    2.71    0.14
  -9   3  10    3.03    0.16
  -9   3  10    2.93    0.13
   9   3 -10    2.81    0.13
  -8  -3  10    0.71    0.09
  -8  -3  10    0.63    0.08
   8  -3 -10    0.50    0.08
   8   3 -10    0.76    0.07
  -8   3  10    0.65    0.09
  -8   3  10    0.70    0.07
  -7  -3  10    6.80    0.22
   7  -3 -10    6.68    0.23
  -7  -3  10    6.40    0.20
   7   3 -10    6.70    0.20
  -7   3  10    6.52    0.20
  -7   3  10    6.97    0.24
   6  -3 -10    3.94    0.17
  -6  -3  10    4.07    0.15
  -6  -3  10    4.04    0.16
  -6   3  10    4.17    0.14
   6   3 -10    4.14    0.14
  -6   3  10    4.50    0.19
   5  -3 -10   23.41    0.56
  -5  -3  10   22.94    0.55
  -5  -3  10   22.83    0.54
   5   3 -10   23.11    0.52
  -5   3  10   22.71    0.52
  -5   3  10   24.83    0.58
  -4  -3  10   14.45    0.36
  -4  -3  10   14.35    0.37
  -4   3  10   14.75    0.34
  -4   3  10   14.55    0.39
   4   3 -10   14.30    0.33
  -3  -3  10    1.14    0.09
  -3  -3  10    1.13    0.09
  -3   3  10    0.94    0.09
  -2  -3  10    0.02    0.04
  -2  -3  10    0.02    0.05
   2  -3 -10    0.02    0.02
  -2   3  10    0.00    0.06
  -1  -3  10   32.50    0.72
  -1   3  10   32.46    0.74
   1   3 -10   31.92    0.72
   0  -3  10   51.06    1.10
   0   3  10   51.08    1.11
   0   3 -10   51.36    1.11
   1  -3  10   34.61    0.77
   1   3  10   34.98    0.78
  -1   3 -10   34.06    0.77
  -2  -3 -10    1.80    0.11
   2  -3  10    1.65    0.11
   2   3  10    1.80    0.12
  -2   3 -10    1.76    0.11
  -3  -3 -10    2.76    0.13
   3  -3  10    2.38    0.12
  -3   3 -10    2.48    0.12
   3   3  10    2.52    0.13
   4  -3  10    9.48    0.27
  -4  -3 -10    9.86    0.28
  -4   3 -10    9.80    0.28
   4   3  10    9.27    0.27
   5  -3  10    0.91    0.08
  -5  -3 -10    1.00    0.09
  -5   3 -10    0.87    0.08
   5   3  10    1.00    0.09
  -6  -3 -10   12.00    0.34
   6  -3  10   12.00    0.33
  -6   3 -10   11.81    0.33
   6   3  10   11.63    0.31
   7  -3  10    0.40    0.07
  -7  -3 -10    0.67    0.08
  -7   3 -10    0.46    0.07
   8  -3  10    9.21    0.28
  -8  -3 -10    9.22    0.29
  -8   3 -10    9.63    0.29
   9  -3  10    3.26    0.16
  -9  -3 -10    3.18    0.16
  -9   3 -10    3.09    0.16
 -10  -3 -10    5.14    0.21
  10  -3  10    5.33    0.21
 -10   3 -10    5.11    0.21
 -11  -3 -10    0.11    0.06
  11  -3  10    0.16    0.06
 -11   3 -10    0.17    0.06
  12  -3  10    2.49    0.15
 -12  -3 -10    2.54    0.16
 -12   3 -10    2.42    0.15
 -13  -3 -10   12.54    0.40
 -13   3 -10   13.52    0.39
  16   4 -10    2.78    0.21
  15  -4 -10    0.10    0.08
 -15   4  10    0.18    0.07
 -15   4  10   -0.04    0.08
  15   4 -10    0.24    0.09
  14  -4 -10    8.51    0.32
 -14  -4  10    8.62    0.31
 -14   4  10    8.52    0.30
 -14   4  10    8.93    0.33
  14   4 -10    8.68    0.30
 -13  -4  10   -0.02    0.06
  13  -4 -10   -0.04    0.06
 -13   4  10   -0.11    0.07
  13   4 -10    0.08    0.07
 -13   4  10    0.09    0.06
 -12  -4  10    3.96    0.19
  12  -4 -10    4.04    0.20
 -12   4  10    3.73    0.21
  12   4 -10    3.90    0.18
 -12   4  10    3.69    0.17
  11  -4 -10    4.98    0.21
 -11  -4  10    4.90    0.21
 -11   4  10    4.91    0.20
 -11   4  10    5.15    0.23
  11   4 -10    5.00    0.21
 -10  -4  10   12.81    0.38
  10  -4 -10   13.31    0.39
 -10   4  10   12.95    0.40
 -10   4  10   12.56    0.36
  -9  -4  10   17.57    0.47
   9  -4 -10   17.59    0.47
  -9   4  10   17.45    0.44
  -9   4  10   16.83    0.48
  -8  -4  10    0.67    0.09
   8  -4 -10    0.94    0.10
  -8   4  10    0.57    0.09
  -8   4  10    0.94    0.08
  -7  -4  10   -0.04    0.05
   7  -4 -10    0.04    0.05
  -7   4  10    0.03    0.06
  -7   4  10    0.00    0.03
   6  -4 -10    1.27    0.11
  -6  -4  10    1.35    0.09
  -6  -4  10    1.20    0.10
  -6   4  10    1.24    0.08
  -6   4  10    1.48    0.13
  -5  -4  10    0.17    0.05
   5  -4 -10    0.17    0.06
  -5  -4  10    0.16    0.06
  -5   4  10    0.14    0.07
   4  -4 -10   22.84    0.55
  -4  -4  10   22.44    0.55
  -4  -4  10   22.92    0.53
  -4   4  10   22.18    0.56
   3  -4 -10    0.11    0.05
  -3  -4  10    0.04    0.05
  -3   4  10   -0.03    0.06
  -2  -4  10    0.60    0.07
   2  -4 -10    0.55    0.07
   2   4 -10    0.62    0.07
  -2   4  10    0.61    0.08
  -1  -4  10   12.13    0.33
   1  -4 -10   12.06    0.33
  -1   4  10   12.07    0.34
   1   4 -10   11.64    0.32
   0  -4 -10    2.18    0.13
   0  -4  10    2.03    0.12
   0   4 -10    1.95    0.11
   0   4  10    1.90    0.13
   1  -4  10    1.01    0.09
  -1  -4 -10    1.04    0.10
  -1   4 -10    1.04    0.09
   1   4  10    1.08    0.10
   2  -4  10   16.01    0.41
  -2  -4 -10   15.94    0.42
  -2   4 -10   15.44    0.41
   2   4  10   15.91    0.41
   3  -4  10   49.90    1.09
  -3  -4 -10   49.14    1.10
  -3   4 -10   49.22    1.09
   3   4  10   49.68    1.08
  -4  -4 -10    0.08    0.05
   4  -4  10    0.03    0.05
  -4   4 -10    0.03    0.05
   4   4  10   -0.01    0.04
  -5  -4 -10   37.79    0.86
   5  -4  10   37.98    0.86
   5   4  10   36.94    0.83
  -5   4 -10   37.34    0.86
   6  -4  10    2.54    0.14
  -6  -4 -10    2.27    0.14
  -6   4 -10    2.61    0.14
   7  -4  10    3.84    0.17
  -7  -4 -10    3.99    0.18
  -7   4 -10    3.91    0.18
   8  -4  10    5.99    0.22
  -8  -4 -10    5.99    0.23
  -8   4 -10    5.93    0.23
   9  -4  10    2.10    0.14
  -9  -4 -10    1.95    0.14
  -9   4 -10    1.91    0.13
  10  -4  10    0.91    0.11
 -10  -4 -10    1.19    0.12
 -10   4 -10    0.94    0.10
  11  -4  10    3.22    0.18
 -11  -4 -10    2.91    0.17
 -11   4 -10    3.00    0.17
 -12  -4 -10   -0.01    0.07
  12  -4  10    0.14    0.07
 -12   4 -10    0.03    0.06
  13  -4  10    0.31    0.09
 -13   4 -10    0.42    0.09
  14  -4  10    0.02    0.08
  14  -5 -10    2.72    0.18
 -14   5  10    2.71    0.17
 -14   5  10    2.87    0.23
  13  -5 -10    1.41    0.14
 -13  -5  10    1.44    0.15
 -13   5  10    1.34    0.15
 -13   5  10    1.64    0.13
  12  -5 -10    0.94    0.11
 -12  -5  10    0.72    0.11
 -12   5  10    0.94    0.10
 -12   5  10    0.96    0.13
 -11  -5  10    0.36    0.09
  11  -5 -10    0.25    0.08
 -11   5  10    0.33    0.07
 -11   5  10    0.31    0.10
 -10  -5  10    6.72    0.26
  10  -5 -10    7.02    0.26
 -10   5  10    7.00    0.24
 -10   5  10    7.15    0.28
   9  -5 -10    0.19    0.07
  -9  -5  10    0.16    0.07
  -9   5  10    0.15    0.05
  -9   5  10    0.12    0.07
  -8  -5  10    1.36    0.12
   8  -5 -10    1.39    0.12
  -8   5  10    1.37    0.13
   7  -5 -10    1.51    0.12
  -7  -5  10    1.20    0.11
  -7   5  10    1.43    0.13
   6  -5 -10    6.69    0.24
  -6  -5  10    7.70    0.25
  -6   5  10    6.90    0.26
  -5  -5  10    0.02    0.06
  -5  -5  10   -0.03    0.04
   5  -5 -10    0.00    0.05
  -5   5  10   -0.06    0.06
   4  -5 -10    0.10    0.05
  -4  -5  10    0.07    0.06
  -4   5  10    0.10    0.07
  -3  -5  10    2.93    0.15
   3  -5 -10    3.14    0.15
   3   5 -10    3.24    0.14
  -3   5  10    2.93    0.16
   2  -5 -10    2.23    0.13
  -2  -5  10    1.97    0.13
  -2   5  10    1.94    0.13
   2   5 -10    2.06    0.11
   1  -5 -10    0.03    0.05
  -1  -5  10    0.03    0.05
  -1   5  10    0.04    0.06
   1   5 -10    0.06    0.04
   0  -5 -10    4.76    0.19
   0  -5  10    4.54    0.19
   0   5  10    4.33    0.18
   0   5 -10    4.59    0.17
  -1  -5 -10   -0.02    0.05
   1  -5  10    0.04    0.06
   1   5  10   -0.02    0.05
  -1   5 -10   -0.02    0.04
  -2  -5 -10    4.81    0.19
   2  -5  10    4.81    0.19
   2   5  10    4.74    0.18
  -2   5 -10    4.57    0.18
  -3  -5 -10    0.28    0.07
   3  -5  10    0.24    0.07
   3   5  10    0.39    0.07
  -3   5 -10    0.20    0.06
  -4  -5 -10    2.45    0.14
   4  -5  10    2.62    0.15
  -4   5 -10    2.46    0.14
   5  -5  10    0.20    0.07
  -5  -5 -10    0.29    0.07
  -5   5 -10    0.31    0.07
  -6  -5 -10    0.01    0.05
   6  -5  10    0.12    0.06
  -6   5 -10    0.01    0.05
  -7  -5 -10    0.29    0.07
   7  -5  10    0.33    0.08
  -7   5 -10    0.36    0.07
   8  -5  10    0.08    0.07
  -8  -5 -10   -0.07    0.05
  -8   5 -10    0.01    0.06
  -9  -5 -10    0.72    0.10
   9  -5  10    0.67    0.10
  -9   5 -10    0.60    0.09
 -10  -5 -10    0.16    0.07
  10  -5  10    0.20    0.08
 -10   5 -10    0.20    0.07
 -11  -5 -10    0.09    0.07
  11  -5  10   -0.02    0.07
 -11   5 -10    0.02    0.06
  12  -5  10    0.17    0.08
  13  -6 -10    0.00    0.10
 -12  -6  10    1.33    0.17
  12  -6 -10    1.43    0.14
 -12   6  10    1.48    0.18
 -11  -6  10    1.33    0.15
  11  -6 -10    1.52    0.14
 -11   6  10    1.29    0.15
 -10  -6  10   24.26    0.65
  10  -6 -10   24.60    0.64
 -10   6  10   25.23    0.67
   9  -6 -10    0.52    0.09
  -9  -6  10    0.72    0.11
  -9   6  10    0.64    0.11
  -8  -6  10    3.93    0.20
   8  -6 -10    4.02    0.19
  -8   6  10    3.77    0.21
  -7  -6  10    0.21    0.08
   7  -6 -10    0.41    0.08
  -7   6  10    0.38    0.09
   6  -6 -10    0.42    0.08
  -6  -6  10    0.47    0.09
  -6   6  10    0.22    0.08
  -5  -6  10    5.65    0.23
   5  -6 -10    5.71    0.22
  -5   6  10    6.08    0.25
  -4  -6  10    0.38    0.08
   4  -6 -10    0.47    0.08
   4   6 -10    0.41    0.07
  -4   6  10    0.40    0.09
   3  -6 -10    0.28    0.07
  -3  -6  10    0.36    0.08
  -3   6  10    0.23    0.07
   3   6 -10    0.30    0.06
   2  -6 -10    0.35    0.07
  -2  -6  10    0.27    0.07
   2   6 -10    0.40    0.06
  -2   6  10    0.30    0.08
  -1  -6  10    1.63    0.13
   1  -6 -10    1.78    0.12
   1   6 -10    1.76    0.11
  -1   6  10    1.68    0.13
   0  -6  10    0.28    0.08
   0  -6 -10    0.26    0.07
   0   6 -10    0.31    0.06
   0   6  10    0.28    0.07
  -1  -6 -10    0.00    0.05
   1  -6  10    0.05    0.06
  -1   6 -10    0.06    0.05
   1   6  10    0.03    0.06
   2  -6  10    3.10    0.17
  -2  -6 -10    3.20    0.16
   2   6  10    3.16    0.16
  -2   6 -10    3.29    0.16
  -3  -6 -10   22.68    0.58
   3  -6  10   21.85    0.58
  -3   6 -10   22.93    0.57
   4  -6  10   12.05    0.38
  -4  -6 -10   12.07    0.36
  -4   6 -10   12.15    0.36
  -5  -6 -10    3.87    0.19
   5  -6  10    3.57    0.20
  -5   6 -10    4.18    0.19
   6  -6  10    3.26    0.18
  -6  -6 -10    3.23    0.17
  -6   6 -10    2.81    0.17
   7  -6  10    0.27    0.08
  -7  -6 -10    0.27    0.07
  -7   6 -10    0.20    0.07
   8  -6  10    0.40    0.09
  -8  -6 -10    0.43    0.09
  -8   6 -10    0.40    0.09
   9  -6  10   11.12    0.37
  -9  -6 -10   10.75    0.36
  -9   6 -10   11.06    0.36
 -10  -6 -10    0.45    0.15
  10  -6  10    0.57    0.11
  11  -7 -10    0.25    0.08
  10  -7 -10    0.01    0.06
   9  -7 -10    0.47    0.09
  -9  -7  10    0.62    0.11
  -9   7  10    0.58    0.11
   8  -7 -10    0.43    0.09
  -8  -7  10    0.38    0.10
  -8   7  10    0.27    0.10
  -7  -7  10    6.87    0.28
   7  -7 -10    6.86    0.26
  -7   7  10    7.14    0.30
   6  -7 -10   10.15    0.33
  -6  -7  10    9.81    0.34
  -6   7  10    9.85    0.35
   5  -7 -10    2.98    0.17
  -5  -7  10    2.87    0.18
  -5   7  10    2.86    0.18
  -4  -7  10    2.02    0.16
   4  -7 -10    2.07    0.14
  -4   7  10    2.05    0.16
  -3  -7  10    0.26    0.08
   3  -7 -10    0.17    0.07
  -3   7  10    0.16    0.07
   2  -7 -10    1.38    0.12
  -2  -7  10    1.23    0.12
  -2   7  10    1.30    0.13
   2   7 -10    1.34    0.11
   1  -7 -10    2.86    0.16
  -1  -7  10    2.63    0.17
   1   7 -10    2.88    0.15
  -1   7  10    2.62    0.16
   0  -7 -10    7.09    0.26
   0  -7  10    7.55    0.28
   0   7  10    7.13    0.26
   0   7 -10    7.41    0.25
   1  -7  10    6.57    0.26
  -1  -7 -10    6.42    0.25
  -1   7 -10    6.81    0.24
  -2  -7 -10    4.43    0.20
   2  -7  10    4.75    0.22
  -2   7 -10    4.54    0.20
  -3  -7 -10    1.40    0.12
   3  -7  10    1.48    0.14
  -3   7 -10    1.57    0.13
  -4  -7 -10    0.58    0.09
   4  -7  10    0.32    0.09
  -4   7 -10    0.45    0.08
   5  -7  10    0.16    0.08
  -5  -7 -10    0.16    0.07
  -5   7 -10    0.29    0.08
  -6  -7 -10    2.08    0.15
   6  -7  10    1.51    0.15
  -6   7 -10    1.65    0.14
   7  -7  10    6.50    0.28
  -7  -7 -10    5.69    0.25
  -7   7 -10    5.96    0.25
   8  -7  10    8.10    0.33
   8  -8 -10   -0.07    0.08
   7  -8 -10    0.12    0.07
   6  -8 -10    0.15    0.07
  -6   8  10    0.09    0.09
   5  -8 -10    0.33    0.08
  -5  -8  10    0.44    0.10
  -5   8  10    0.40    0.10
  -4  -8  10    0.13    0.09
   4  -8 -10    0.18    0.07
  -4   8  10    0.10    0.08
   3  -8 -10    0.86    0.11
  -3  -8  10    1.00    0.13
  -3   8  10    0.92    0.12
   2  -8 -10    0.11    0.07
  -2  -8  10    0.06    0.08
  -2   8  10    0.03    0.07
   1  -8 -10    2.05    0.15
  -1  -8  10    2.22    0.18
   0  -8 -10    3.28    0.18
   0  -8  10    2.87    0.19
   0   8 -10    3.08    0.17
  -1  -8 -10    0.17    0.07
   1  -8  10    0.29    0.09
  -1   8 -10    0.27    0.07
   2  -8  10    0.30    0.10
  -2  -8 -10    0.20    0.08
  -2   8 -10    0.29    0.07
   3  -8  10    0.85    0.13
  -3  -8 -10    0.74    0.11
  -3   8 -10    0.91    0.11
   4  -8  10    2.55    0.22
  -4  -8 -10    2.02    0.15
  -4   8 -10    2.15    0.16
  -5  -8 -10    0.49    0.11
 -16   0  11   -0.03    0.05
  16   0 -11    0.08    0.08
 -15   0  11    0.01    0.05
  15   0 -11    0.16    0.08
  14   0 -11    0.03    0.07
 -14   0  11   -0.02    0.04
 -13   0  11    0.03    0.05
  13   0 -11   -0.03    0.06
  12   0 -11   -0.04    0.06
 -12   0  11   -0.01    0.04
 -12   0  11   -0.03    0.06
  11   0 -11    0.03    0.06
 -11   0  11   -0.01    0.04
 -11   0  11   -0.08    0.06
  10   0 -11   -0.06    0.05
 -10   0  11   -0.02    0.03
 -10   0  11   -0.02    0.06
  -9   0  11   -0.01    0.03
   9   0 -11   -0.08    0.05
  -9   0  11    0.07    0.06
  -8   0  11    0.02    0.06
  -8   0  11   -0.01    0.03
   8   0 -11   -0.07    0.05
  -7   0  11    0.01    0.03
   7   0 -11    0.05    0.05
  -7   0  11    0.15    0.07
  -6   0  11    0.04    0.03
  -6   0  11   -0.08    0.06
   6   0 -11   -0.03    0.05
  -5   0  11   -0.01    0.02
   5   0 -11    0.04    0.04
  -5   0  11   -0.06    0.05
   4   0 -11    0.03    0.04
  -4   0  11   -0.01    0.02
  -4   0  11    0.01    0.05
  -3   0  11    0.04    0.05
   3   0 -11    0.05    0.04
  -3   0  11    0.00    0.02
  -2   0  11    0.01    0.02
   2   0 -11   -0.01    0.04
  -2   0  11    0.00    0.02
  -1   0  11    0.00    0.01
   1   0 -11    0.04    0.03
   0   0  11    0.00    0.01
   0   0  11    0.01    0.03
   0   0 -11   -0.02    0.03
   1   0  11    0.02    0.02
  -1   0 -11    0.01    0.03
   1   0  11    0.01    0.04
   2   0  11   -0.02    0.04
  -2   0 -11    0.00    0.03
  -3   0 -11   -0.06    0.03
   3   0  11    0.03    0.04
  -4   0 -11   -0.04    0.04
   4   0  11   -0.03    0.04
   5   0  11   -0.01    0.04
  -5   0 -11    0.01    0.04
   6   0  11   -0.01    0.04
  -6   0 -11   -0.10    0.03
   7   0  11    0.02    0.04
  -7   0 -11   -0.05    0.04
   8   0  11   -0.02    0.04
  -8   0 -11   -0.01    0.04
   9   0  11    0.09    0.04
  -9   0 -11    0.02    0.04
 -10   0 -11    0.04    0.05
  10   0  11    0.06    0.04
 -11   0 -11    0.05    0.05
 -12   0 -11    0.03    0.05
 -13   0 -11    0.00    0.06
 -14   0 -11   -0.01    0.05
  16  -1 -11    0.58    0.11
 -16  -1  11    0.50    0.09
  16   1 -11    0.43    0.10
 -16   1  11    0.46    0.09
  15  -1 -11    7.56    0.29
 -15  -1  11    7.62    0.28
  15   1 -11    7.46    0.29
 -15   1  11    7.80    0.28
  14  -1 -11    0.07    0.07
 -14  -1  11    0.20    0.06
 -14   1  11    0.11    0.05
  14   1 -11    0.20    0.08
 -13  -1  11    6.27    0.23
  13  -1 -11    6.49    0.25
 -13   1  11    6.59    0.24
  13   1 -11    5.85    0.24
 -13   1  11    6.09    0.23
 -12  -1  11    4.87    0.19
  12  -1 -11    5.03    0.22
 -12   1  11    4.97    0.19
  12   1 -11    4.55    0.20
 -12   1  11    4.79    0.21
 -11  -1  11   14.95    0.46
 -11  -1  11   14.46    0.39
  11  -1 -11   14.60    0.41
  11   1 -11   14.23    0.40
 -11   1  11   14.41    0.40
 -11   1  11   14.47    0.39
  10  -1 -11    0.02    0.06
 -10  -1  11    0.00    0.05
 -10  -1  11    0.01    0.04
 -10   1  11   -0.03    0.06
 -10   1  11    0.06    0.04
  10   1 -11   -0.04    0.05
  -9  -1  11    2.04    0.11
  -9  -1  11    1.78    0.12
   9  -1 -11    2.00    0.13
   9   1 -11    2.09    0.12
  -9   1  11    1.91    0.13
  -9   1  11    2.02    0.10
  -8  -1  11    3.54    0.14
   8  -1 -11    3.79    0.16
  -8  -1  11    3.37    0.16
  -8   1  11    3.34    0.16
  -8   1  11    3.26    0.13
   8   1 -11    3.31    0.15
   7  -1 -11    4.93    0.18
  -7  -1  11    4.51    0.16
  -7  -1  11    4.81    0.19
  -7   1  11    4.75    0.19
   7   1 -11    4.85    0.17
  -7   1  11    4.80    0.15
  -6  -1  11    8.92    0.27
   6  -1 -11    8.81    0.26
  -6  -1  11    8.68    0.24
  -6   1  11    8.54    0.22
  -6   1  11    8.67    0.27
   6   1 -11    8.36    0.24
  -5  -1  11    2.42    0.13
   5  -1 -11    2.53    0.12
  -5  -1  11    2.59    0.11
  -5   1  11    2.45    0.09
  -5   1  11    2.44    0.14
   5   1 -11    2.26    0.11
   4  -1 -11   35.87    0.80
  -4  -1  11   36.52    0.80
  -4  -1  11   36.18    0.77
  -4   1  11   35.52    0.75
   4   1 -11   35.52    0.78
  -4   1  11   35.02    0.81
   3  -1 -11    1.19    0.09
  -3  -1  11    1.22    0.07
  -3  -1  11    1.14    0.09
   3   1 -11    1.25    0.08
  -3   1  11    1.20    0.05
  -2  -1  11   22.33    0.49
   2  -1 -11   22.48    0.52
  -2  -1  11   21.83    0.52
   2   1 -11   22.03    0.50
  -2   1  11   22.17    0.46
   1  -1 -11   21.10    0.50
  -1  -1  11   20.08    0.50
  -1  -1  11   21.51    0.46
  -1   1  11   21.60    0.51
   1   1 -11   21.61    0.48
   0  -1 -11   12.94    0.34
   0  -1  11   13.42    0.31
   0   1  11   13.70    0.35
   0   1 -11   13.61    0.32
   1  -1  11    7.96    0.20
  -1  -1 -11    7.69    0.23
   1   1  11    7.82    0.24
  -1   1 -11    7.71    0.20
   2  -1  11   49.33    1.04
   2  -1  11   51.15    1.08
  -2  -1 -11   48.71    1.07
  -2   1 -11   49.38    1.05
   2   1  11   49.54    1.08
   3  -1  11    2.32    0.09
   3  -1  11    2.25    0.11
  -3  -1 -11    2.24    0.11
   3   1  11    2.40    0.12
  -3   1 -11    2.23    0.09
   4  -1  11    0.04    0.03
  -4  -1 -11    0.03    0.04
   4   1  11    0.05    0.04
  -4   1 -11    0.02    0.03
   5  -1  11    1.04    0.07
  -5  -1 -11    1.09    0.09
   5   1  11    0.99    0.09
  -5   1 -11    1.19    0.08
  -5   1 -11    1.17    0.09
  -6  -1 -11   45.04    0.97
   6  -1  11   43.88    0.94
   6   1  11   43.49    0.96
  -6   1 -11   43.89    0.95
  -6   1 -11   43.38    0.97
  -7  -1 -11    3.08    0.14
   7  -1  11    3.14    0.17
  -7   1 -11    2.89    0.12
  -7   1 -11    2.77    0.13
   7   1  11    3.10    0.13
  -8  -1 -11    2.42    0.13
  -8   1 -11    2.23    0.12
  -8   1 -11    2.56    0.12
   8   1  11    2.42    0.12
  -9  -1 -11    6.95    0.23
   9   1  11    6.77    0.22
  -9   1 -11    6.89    0.23
  -9   1 -11    6.88    0.22
 -10  -1 -11    0.84    0.09
 -10   1 -11    0.59    0.07
 -10   1 -11    0.68    0.08
 -11  -1 -11    0.19    0.06
 -11   1 -11    0.12    0.05
 -12  -1 -11    5.11    0.21
 -13  -1 -11   11.22    0.35
 -14  -1 -11    4.32    0.20
 -16  -2  11    1.72    0.14
  16  -2 -11    1.33    0.18
  16   2 -11    1.58    0.15
 -16   2  11    1.82    0.14
 -15  -2  11   -0.02    0.05
  15  -2 -11   -0.01    0.07
 -15   2  11   -0.02    0.05
  15   2 -11   -0.09    0.06
 -14  -2  11    2.22    0.14
  14  -2 -11    2.29    0.17
  14   2 -11    2.25    0.16
 -14   2  11    1.98    0.14
 -14   2  11    2.10    0.16
 -13  -2  11    0.44    0.07
  13  -2 -11    0.52    0.09
  13   2 -11    0.45    0.09
 -13   2  11    0.37    0.07
 -13   2  11    0.42    0.09
  12  -2 -11   10.58    0.34
 -12  -2  11   10.63    0.33
  12   2 -11   10.28    0.33
 -12   2  11   10.97    0.32
 -12   2  11   10.64    0.34
 -11  -2  11    5.57    0.21
  11  -2 -11    5.56    0.22
 -11   2  11    5.40    0.20
  11   2 -11    5.57    0.21
 -11   2  11    5.76    0.23
  10  -2 -11    7.26    0.26
 -10  -2  11    7.42    0.24
 -10   2  11    7.44    0.23
  10   2 -11    7.69    0.24
 -10   2  11    7.44    0.26
  -9  -2  11    7.18    0.23
   9  -2 -11    7.17    0.25
  -9  -2  11    7.50    0.23
  -9   2  11    7.06    0.25
  -9   2  11    7.11    0.22
   9   2 -11    7.34    0.23
  -8  -2  11    5.52    0.19
   8  -2 -11    5.41    0.20
  -8  -2  11    5.23    0.19
   8   2 -11    5.18    0.18
  -8   2  11    5.43    0.21
  -8   2  11    5.45    0.17
  -7  -2  11    2.37    0.13
   7  -2 -11    2.25    0.13
  -7  -2  11    2.54    0.12
   7   2 -11    2.39    0.12
  -7   2  11    2.40    0.15
  -7   2  11    2.36    0.10
  -6  -2  11    0.43    0.07
  -6  -2  11    0.36    0.06
   6  -2 -11    0.39    0.06
  -6   2  11    0.49    0.08
   6   2 -11    0.34    0.06
  -6   2  11    0.43    0.05
  -5  -2  11   10.77    0.30
   5  -2 -11   11.02    0.30
  -5  -2  11   10.75    0.29
   5   2 -11   10.39    0.27
  -5   2  11   10.48    0.26
  -5   2  11   10.62    0.31
  -4  -2  11   12.74    0.32
  -4  -2  11   12.78    0.33
   4  -2 -11   12.86    0.34
  -4   2  11   12.40    0.29
   4   2 -11   12.53    0.31
  -3  -2  11   18.77    0.45
   3  -2 -11   18.17    0.45
  -3  -2  11   18.33    0.43
   3   2 -11   18.77    0.42
   2  -2 -11   32.07    0.73
  -2  -2  11   31.72    0.72
  -2  -2  11   32.26    0.70
  -2   2  11   31.56    0.73
   2   2 -11   32.46    0.69
  -1  -2  11    0.82    0.08
  -1  -2  11    0.82    0.07
   1  -2 -11    0.69    0.07
  -1   2  11    0.97    0.09
   1   2 -11    0.53    0.05
   0  -2  11   -0.01    0.04
   0  -2 -11    0.05    0.05
   0  -2  11   -0.05    0.03
   0   2 -11    0.00    0.01
   0   2  11    0.04    0.05
  -1  -2 -11    4.86    0.17
   1  -2  11    4.73    0.15
   1   2  11    4.59    0.18
   2  -2  11    2.02    0.10
  -2  -2 -11    2.07    0.11
   2   2  11    2.14    0.12
   3  -2  11    9.21    0.25
  -3  -2 -11    9.19    0.27
  -3   2 -11    9.41    0.27
   3   2  11    9.51    0.27
   4  -2  11    1.29    0.09
  -4  -2 -11    1.19    0.10
   4   2  11    1.20    0.10
  -4   2 -11    1.45    0.10
   5  -2  11   42.10    0.90
  -5  -2 -11   41.03    0.92
   5   2  11   40.36    0.91
  -5   2 -11   41.75    0.92
   6  -2  11    0.28    0.05
  -6  -2 -11    0.30    0.06
  -6   2 -11    0.34    0.06
   6   2  11    0.39    0.06
  -7  -2 -11    9.06    0.28
   7  -2  11    8.68    0.26
  -7   2 -11    9.10    0.27
   7   2  11    8.86    0.26
   8  -2  11    6.47    0.21
  -8  -2 -11    6.52    0.23
  -8   2 -11    6.45    0.22
   9  -2  11    6.00    0.21
  -9  -2 -11    6.18    0.22
  -9   2 -11    5.84    0.22
 -10  -2 -11   16.66    0.45
 -10   2 -11   17.12    0.45
 -11  -2 -11   13.90    0.41
 -11   2 -11   14.71    0.40
 -12  -2 -11   19.77    0.54
 -12   2 -11   20.42    0.52
 -13  -2 -11    0.43    0.09
 -14  -2 -11    0.00    0.07
 -16   3  11    0.04    0.06
  16   3 -11    0.09    0.08
 -15  -3  11    0.07    0.06
  15  -3 -11    0.02    0.07
 -15   3  11   -0.02    0.08
 -15   3  11   -0.01    0.05
  15   3 -11    0.04    0.07
 -14  -3  11    0.18    0.07
  14  -3 -11    0.22    0.09
 -14   3  11    0.09    0.09
 -14   3  11    0.20    0.07
  14   3 -11    0.22    0.08
  13  -3 -11    5.38    0.24
 -13  -3  11    5.21    0.22
 -13   3  11    5.53    0.24
  13   3 -11    5.58    0.22
 -13   3  11    5.66    0.22
  12  -3 -11    5.72    0.24
 -12  -3  11    5.64    0.22
  12   3 -11    5.61    0.22
 -12   3  11    5.66    0.21
 -12   3  11    5.43    0.24
  11  -3 -11    0.54    0.09
 -11  -3  11    0.30    0.07
 -11   3  11    0.45    0.09
 -11   3  11    0.42    0.07
  11   3 -11    0.48    0.08
 -10  -3  11    2.93    0.15
  10  -3 -11    2.70    0.16
 -10   3  11    2.75    0.13
 -10   3  11    2.74    0.17
  10   3 -11    2.93    0.14
  -9  -3  11    0.06    0.05
   9  -3 -11    0.02    0.06
   9   3 -11    0.00    0.05
  -9   3  11    0.00    0.07
  -9   3  11    0.10    0.04
   8  -3 -11    0.46    0.07
  -8  -3  11    0.71    0.08
  -8  -3  11    0.61    0.07
  -8   3  11    0.65    0.07
  -8   3  11    0.53    0.09
   8   3 -11    0.52    0.06
  -7  -3  11    0.14    0.05
   7  -3 -11    0.11    0.05
  -7  -3  11    0.07    0.05
  -7   3  11    0.12    0.07
   7   3 -11    0.09    0.04
  -7   3  11    0.14    0.04
  -6  -3  11    1.17    0.10
   6  -3 -11    1.19    0.10
  -6  -3  11    1.12    0.09
   6   3 -11    1.15    0.08
  -6   3  11    1.21    0.11
  -6   3  11    1.03    0.07
  -5  -3  11    0.40    0.06
   5  -3 -11    0.38    0.07
  -5  -3  11    0.40    0.06
  -5   3  11    0.45    0.08
   5   3 -11    0.49    0.07
   4  -3 -11    6.91    0.23
  -4  -3  11    6.68    0.21
  -4  -3  11    6.56    0.21
  -4   3  11    7.02    0.24
   3  -3 -11    0.02    0.05
  -3  -3  11    0.16    0.05
  -3  -3  11    0.07    0.05
  -3   3  11    0.11    0.07
   2  -3 -11   18.49    0.45
  -2  -3  11   17.28    0.44
  -2  -3  11   17.56    0.43
  -2   3  11   18.03    0.46
   1  -3 -11   20.51    0.50
  -1  -3  11   20.28    0.48
  -1   3  11   20.05    0.50
   0  -3 -11    9.82    0.28
   0  -3  11    9.32    0.26
   0   3 -11    9.63    0.27
   0   3  11    9.30    0.28
   1  -3  11   19.14    0.46
  -1  -3 -11   19.34    0.48
   1   3  11   18.45    0.47
  -1   3 -11   19.34    0.47
   2  -3  11    2.26    0.12
  -2  -3 -11    2.46    0.13
   2   3  11    2.35    0.13
  -2   3 -11    2.24    0.12
  -3  -3 -11    3.93    0.16
   3  -3  11    3.95    0.16
  -3   3 -11    3.92    0.16
   3   3  11    4.02    0.17
  -4  -3 -11    6.58    0.22
   4  -3  11    6.32    0.21
  -4   3 -11    6.77    0.22
   4   3  11    6.25    0.21
  -5  -3 -11    1.09    0.10
   5  -3  11    0.98    0.09
  -5   3 -11    0.82    0.08
   5   3  11    0.94    0.09
  -6  -3 -11    0.20    0.06
   6  -3  11    0.20    0.05
  -6   3 -11    0.15    0.05
   6   3  11    0.18    0.05
   7  -3  11    0.03    0.05
  -7  -3 -11    0.01    0.05
  -7   3 -11    0.02    0.05
  -8  -3 -11    0.70    0.09
   8  -3  11    0.89    0.09
  -8   3 -11    0.79    0.09
   9  -3  11    0.12    0.06
  -9  -3 -11    0.23    0.07
  -9   3 -11    0.17    0.06
  10  -3  11    2.63    0.15
 -10  -3 -11    2.62    0.16
 -10   3 -11    2.65    0.15
 -11  -3 -11    0.65    0.09
  11  -3  11    0.69    0.13
 -11   3 -11    0.58    0.09
 -12  -3 -11    2.71    0.17
 -12   3 -11    2.86    0.17
 -13  -3 -11    0.95    0.12
 -13   3 -11    1.03    0.11
 -15   4  11    3.52    0.19
 -15   4  11    3.50    0.22
  14  -4 -11    0.08    0.08
 -14  -4  11    0.03    0.07
 -14   4  11    0.05    0.09
 -14   4  11    0.14    0.06
 -13  -4  11    0.16    0.07
  13  -4 -11    0.11    0.08
 -13   4  11    0.03    0.05
 -13   4  11    0.04    0.08
  12  -4 -11    0.95    0.12
 -12  -4  11    0.92    0.11
 -12   4  11    0.89    0.12
 -12   4  11    0.83    0.10
  11  -4 -11    2.38    0.16
 -11  -4  11    2.20    0.15
 -11   4  11    2.12    0.16
 -11   4  11    2.09    0.13
  10  -4 -11    5.83    0.23
 -10  -4  11    5.48    0.22
 -10   4  11    6.01    0.21
 -10   4  11    5.83    0.25
   9  -4 -11    7.64    0.27
  -9  -4  11    7.33    0.26
  -9   4  11    7.34    0.24
  -9   4  11    7.81    0.28
   8  -4 -11   -0.02    0.05
  -8  -4  11    0.00    0.06
  -8   4  11   -0.02    0.06
  -8   4  11    0.02    0.06
  -7  -4  11    1.03    0.10
   7  -4 -11    1.05    0.10
  -7   4  11    1.15    0.12
  -6  -4  11    1.92    0.12
   6  -4 -11    1.89    0.13
  -6  -4  11    2.22    0.12
  -6   4  11    1.96    0.14
  -5  -4  11    1.37    0.10
  -5  -4  11    1.34    0.11
   5  -4 -11    1.38    0.11
  -5   4  11    1.43    0.12
  -4  -4  11    1.97    0.12
  -4  -4  11    1.90    0.11
   4  -4 -11    1.76    0.12
  -4   4  11    1.82    0.13
   3  -4 -11   12.69    0.35
  -3  -4  11   12.43    0.34
  -3  -4  11   11.92    0.33
  -3   4  11   12.25    0.35
   2  -4 -11   17.51    0.45
  -2  -4  11   16.89    0.44
   2   4 -11   17.15    0.43
  -2   4  11   18.16    0.46
   1  -4 -11    0.96    0.09
  -1  -4  11    0.87    0.08
   1   4 -11    1.12    0.09
  -1   4  11    1.24    0.11
   0  -4  11    0.06    0.05
   0  -4 -11    0.09    0.06
   0   4 -11    0.06    0.05
   0   4  11    0.02    0.06
  -1  -4 -11    5.62    0.21
   1  -4  11    5.61    0.20
  -1   4 -11    5.81    0.20
   1   4  11    5.85    0.21
  -2  -4 -11    0.81    0.09
   2  -4  11    1.06    0.09
   2   4  11    1.16    0.10
  -2   4 -11    1.10    0.10
  -3  -4 -11    0.14    0.06
   3  -4  11    0.16    0.06
   3   4  11    0.20    0.06
  -3   4 -11    0.22    0.06
  -4  -4 -11   16.70    0.45
   4  -4  11   17.35    0.44
   4   4  11   16.72    0.43
  -4   4 -11   17.22    0.45
   5  -4  11    9.86    0.30
  -5  -4 -11    9.88    0.31
   5   4  11    9.71    0.32
  -5   4 -11    9.91    0.30
   6  -4  11   -0.03    0.05
  -6  -4 -11    0.00    0.05
  -6   4 -11    0.02    0.05
   7  -4  11    0.27    0.07
  -7  -4 -11    0.36    0.07
  -7   4 -11    0.28    0.07
  -8  -4 -11    0.24    0.07
   8  -4  11    0.23    0.07
  -8   4 -11    0.25    0.07
   9  -4  11   10.70    0.33
  -9  -4 -11   10.83    0.34
  -9   4 -11   10.19    0.33
  10  -4  11    0.94    0.10
 -10  -4 -11    0.86    0.11
 -10   4 -11    1.15    0.11
 -11  -4 -11    9.42    0.32
  11  -4  11    9.17    0.32
 -11   4 -11    9.08    0.31
  12  -4  11    0.64    0.11
 -12  -4 -11    0.79    0.11
 -12   4 -11    0.65    0.10
 -13  -5  11    7.64    0.29
  13  -5 -11    7.58    0.30
 -13   5  11    7.03    0.31
  12  -5 -11    2.08    0.16
 -12  -5  11    1.82    0.16
 -12   5  11    1.98    0.18
 -11  -5  11    0.06    0.07
  11  -5 -11    0.01    0.07
 -11   5  11   -0.05    0.08
  10  -5 -11    0.01    0.06
 -10  -5  11    0.00    0.06
 -10   5  11    0.05    0.08
  -9  -5  11    0.71    0.10
   9  -5 -11    0.57    0.09
  -9   5  11    0.49    0.10
  -8  -5  11    2.06    0.15
   8  -5 -11    2.34    0.15
  -8   5  11    1.85    0.15
   7  -5 -11   -0.01    0.06
  -7  -5  11    0.03    0.06
  -7   5  11    0.00    0.06
   6  -5 -11    1.36    0.12
  -6  -5  11    1.09    0.11
  -6   5  11    1.52    0.14
  -5  -5  11    2.35    0.14
  -5  -5  11    2.32    0.12
   5  -5 -11    2.27    0.14
  -5   5  11    2.13    0.15
  -4  -5  11    0.16    0.07
  -4  -5  11    0.19    0.05
   4  -5 -11    0.16    0.06
  -4   5  11    0.14    0.07
  -3  -5  11    2.98    0.15
   3  -5 -11    3.00    0.16
  -3   5  11    3.10    0.17
  -2  -5  11    0.92    0.10
   2  -5 -11    0.85    0.10
   2   5 -11    0.73    0.08
  -2   5  11    0.74    0.10
   1  -5 -11    1.44    0.12
  -1  -5  11    1.46    0.12
   1   5 -11    1.55    0.11
  -1   5  11    1.58    0.12
   0  -5 -11   30.57    0.73
   0  -5  11   31.02    0.73
   0   5  11   30.75    0.73
   0   5 -11   31.02    0.72
  -1  -5 -11   10.22    0.31
   1  -5  11    9.57    0.30
   1   5  11    9.64    0.30
  -1   5 -11    9.99    0.30
   2  -5  11   23.36    0.57
  -2  -5 -11   22.14    0.57
   2   5  11   22.07    0.55
  -2   5 -11   23.08    0.56
   3  -5  11    4.70    0.20
  -3  -5 -11    4.70    0.19
   3   5  11    4.26    0.18
  -3   5 -11    4.31    0.19
   4  -5  11    0.24    0.07
  -4  -5 -11    0.20    0.06
  -4   5 -11    0.18    0.06
   5  -5  11    3.41    0.17
  -5  -5 -11    3.35    0.17
  -5   5 -11    3.12    0.16
   6  -5  11    4.64    0.20
  -6  -5 -11    4.70    0.20
  -6   5 -11    4.67    0.20
  -7  -5 -11    0.04    0.06
   7  -5  11    0.15    0.07
  -7   5 -11    0.12    0.06
  -8  -5 -11    1.38    0.13
   8  -5  11    1.78    0.14
  -8   5 -11    1.64    0.14
   9  -5  11    2.87    0.17
  -9  -5 -11    2.71    0.17
  -9   5 -11    3.07    0.18
 -10  -5 -11   -0.03    0.06
  10  -5  11    0.10    0.07
 -10   5 -11   -0.02    0.06
  11  -5  11    0.44    0.09
 -11   5 -11    0.25    0.09
  12  -5  11    0.50    0.10
  12  -6 -11    1.24    0.14
 -11  -6  11    2.40    0.18
  11  -6 -11    2.14    0.16
 -11   6  11    2.47    0.19
 -10  -6  11    2.66    0.18
  10  -6 -11    2.29    0.16
 -10   6  11    2.32    0.19
  -9  -6  11    9.51    0.34
   9  -6 -11   10.41    0.34
  -9   6  11    9.47    0.35
  -8  -6  11    6.58    0.26
   8  -6 -11    6.41    0.25
  -8   6  11    6.42    0.27
  -7  -6  11    3.16    0.18
   7  -6 -11    2.99    0.17
  -7   6  11    3.03    0.19
  -6  -6  11    7.16    0.26
   6  -6 -11    6.61    0.26
  -6   6  11    7.08    0.28
   5  -6 -11    1.50    0.13
  -5  -6  11    1.65    0.14
  -5   6  11    1.31    0.13
   4  -6 -11    5.03    0.21
  -4  -6  11    4.73    0.21
  -4   6  11    5.16    0.23
  -3  -6  11    4.43    0.20
   3  -6 -11    4.41    0.20
   3   6 -11    4.25    0.17
  -3   6  11    4.25    0.20
  -2  -6  11    0.15    0.07
   2  -6 -11    0.20    0.07
  -2   6  11    0.14    0.07
   2   6 -11    0.17    0.06
  -1  -6  11    0.04    0.06
   1  -6 -11    0.07    0.06
   1   6 -11   -0.01    0.05
  -1   6  11   -0.01    0.06
   0  -6  11    0.02    0.06
   0  -6 -11    0.06    0.06
   0   6 -11   -0.03    0.05
   0   6  11    0.07    0.06
  -1  -6 -11    0.21    0.07
   1  -6  11    0.25    0.08
   1   6  11    0.27    0.07
  -1   6 -11    0.32    0.07
  -2  -6 -11    1.69    0.13
   2  -6  11    1.91    0.15
  -2   6 -11    1.62    0.12
   2   6  11    1.71    0.15
   3  -6  11    3.55    0.18
  -3  -6 -11    3.25    0.17
  -3   6 -11    3.82    0.18
   4  -6  11   -0.01    0.06
  -4  -6 -11    0.00    0.06
  -4   6 -11    0.06    0.06
  -5  -6 -11    7.36    0.27
   5  -6  11    7.24    0.28
  -5   6 -11    7.44    0.27
   6  -6  11    6.37    0.26
  -6  -6 -11    6.07    0.25
  -6   6 -11    6.27    0.25
  -7  -6 -11    0.95    0.11
   7  -6  11    1.19    0.13
  -7   6 -11    1.06    0.11
  -8  -6 -11    1.95    0.16
   8  -6  11    1.84    0.16
  -8   6 -11    2.01    0.15
   9  -6  11    9.08    0.34
  -9  -6 -11    9.69    0.37
  -9   6 -11    9.99    0.38
  10  -6  11    3.39    0.20
  10  -7 -11    0.32    0.08
  -9  -7  11    0.30    0.11
   9  -7 -11    0.14    0.07
   8  -7 -11    0.09    0.07
  -8  -7  11   -0.04    0.08
  -8   7  11   -0.05    0.08
  -7  -7  11    0.17    0.08
   7  -7 -11    0.14    0.07
  -7   7  11    0.12    0.09
  -6  -7  11    0.06    0.08
   6  -7 -11    0.04    0.06
  -6   7  11   -0.04    0.07
  -5  -7  11    0.12    0.08
   5  -7 -11    0.04    0.06
  -5   7  11    0.04    0.07
   4  -7 -11    2.69    0.16
  -4  -7  11    2.66    0.17
  -4   7  11    2.40    0.17
  -3  -7  11    1.44    0.14
   3  -7 -11    1.41    0.13
  -3   7  11    1.63    0.15
  -2  -7  11    0.28    0.09
   2  -7 -11    0.14    0.07
   2   7 -11    0.28    0.07
  -2   7  11    0.12    0.08
  -1  -7  11    0.51    0.10
   1  -7 -11    0.51    0.09
  -1   7  11    0.52    0.10
   1   7 -11    0.52    0.08
   0  -7  11   10.39    0.34
   0  -7 -11    9.96    0.33
   0   7  11    9.84    0.33
   0   7 -11    9.96    0.31
   1  -7  11    0.02    0.07
  -1  -7 -11   -0.03    0.06
  -1   7 -11    0.04    0.06
  -2  -7 -11    0.06    0.06
   2  -7  11    0.03    0.07
  -2   7 -11    0.05    0.06
  -3  -7 -11   -0.06    0.05
   3  -7  11    0.07    0.07
  -3   7 -11   -0.01    0.06
  -4  -7 -11    3.45    0.19
   4  -7  11    3.35    0.20
  -4   7 -11    3.12    0.18
  -5  -7 -11    0.04    0.07
   5  -7  11   -0.02    0.07
  -5   7 -11   -0.01    0.06
   6  -7  11    0.87    0.13
  -6  -7 -11    0.79    0.11
  -6   7 -11    0.74    0.11
   7  -7  11    2.51    0.19
   7  -8 -11    1.77    0.16
   6  -8 -11    0.05    0.07
   5  -8 -11    4.18    0.21
  -5   8  11    4.12    0.23
   4  -8 -11    5.91    0.25
  -4  -8  11    6.55    0.32
  -4   8  11    6.33    0.28
  -3  -8  11    3.27    0.21
   3  -8 -11    3.08    0.18
  -3   8  11    3.21    0.20
  -2  -8  11    0.21    0.10
   2  -8 -11    0.33    0.09
  -2   8  11    0.19    0.08
  -1  -8  11    0.13    0.08
   1  -8 -11    0.03    0.06
   0  -8  11    7.00    0.28
   0  -8 -11    6.12    0.25
   0   8 -11    6.48    0.25
   1  -8  11    0.39    0.10
  -1   8 -11    0.46    0.09
  -2  -8 -11    0.12    0.07
   2  -8  11    0.14    0.09
  -2   8 -11    0.19    0.07
  -3  -8 -11    0.09    0.07
  -3   8 -11   -0.09    0.05
  16   0 -12    2.17    0.19
 -16   0  12    2.22    0.15
  15   0 -12    3.17    0.19
 -15   0  12    2.64    0.16
  14   0 -12    0.14    0.08
 -14   0  12    0.02    0.05
  13   0 -12    0.10    0.07
 -13   0  12   -0.02    0.04
  12   0 -12    0.22    0.07
 -12   0  12    0.24    0.06
 -12   0  12    0.21    0.08
 -11   0  12    0.48    0.09
 -11   0  12    0.45    0.07
  11   0 -12    0.38    0.08
  10   0 -12    0.05    0.06
 -10   0  12    0.07    0.04
 -10   0  12    0.13    0.07
   9   0 -12    0.49    0.08
  -9   0  12    0.43    0.06
  -9   0  12    0.39    0.08
   8   0 -12    0.55    0.08
  -8   0  12    0.65    0.09
  -8   0  12    0.70    0.07
   7   0 -12   51.75    1.14
  -7   0  12   53.08    1.16
  -7   0  12   52.48    1.12
  -6   0  12   50.24    1.05
  -6   0  12   49.11    1.09
   6   0 -12   48.61    1.07
  -5   0  12   32.77    0.71
  -5   0  12   32.94    0.76
   5   0 -12   32.91    0.74
  -4   0  12   43.51    0.98
  -4   0  12   44.19    0.92
   4   0 -12   43.43    0.95
  -3   0  12    9.30    0.28
   3   0 -12    9.09    0.25
  -3   0  12    9.31    0.22
  -2   0  12   13.83    0.31
   2   0 -12   13.91    0.35
   0   0  12    3.43    0.15
   0   0 -12    3.97    0.14
  -1   0 -12   23.10    0.53
   1   0  12   23.25    0.55
   2   0  12    0.08    0.05
  -2   0 -12    0.08    0.04
  -3   0 -12    0.10    0.04
   3   0  12    0.16    0.05
  -4   0 -12    2.06    0.11
   4   0  12    2.13    0.12
  -5   0 -12   11.49    0.30
   5   0  12   11.33    0.31
  -6   0 -12    0.15    0.05
   6   0  12    0.07    0.04
  -7   0 -12    6.61    0.21
   7   0  12    6.62    0.22
   8   0  12    0.65    0.07
  -8   0 -12    0.76    0.08
  -9   0 -12    5.22    0.19
   9   0  12    5.41    0.20
 -10   0 -12   16.88    0.44
  10   0  12   16.21    0.43
 -11   0 -12   30.31    0.72
 -12   0 -12   19.16    0.50
 -13   0 -12    2.45    0.15
  16  -1 -12    0.00    0.13
 -16  -1  12   -0.06    0.05
  16   1 -12   -0.04    0.08
 -16   1  12   -0.04    0.05
 -15  -1  12    0.12    0.06
  15  -1 -12    0.16    0.09
 -15   1  12    0.02    0.05
  15   1 -12    0.07    0.08
  14  -1 -12    0.00    0.08
 -14  -1  12    0.01    0.05
  14   1 -12    0.05    0.07
 -14   1  12    0.02    0.05
  13  -1 -12   11.64    0.37
 -13  -1  12   11.91    0.35
  13   1 -12   11.38    0.36
 -13   1  12   11.47    0.34
 -13   1  12   11.25    0.36
 -12  -1  12    3.43    0.16
  12  -1 -12    3.26    0.18
  12   1 -12    3.47    0.18
 -12   1  12    3.44    0.18
 -12   1  12    3.31    0.16
  11  -1 -12    3.70    0.18
 -11  -1  12    3.48    0.20
 -11  -1  12    3.75    0.16
 -11   1  12    3.75    0.19
 -11   1  12    3.87    0.16
  11   1 -12    3.66    0.17
 -10  -1  12   11.10    0.31
  10  -1 -12   10.59    0.33
 -10  -1  12   11.35    0.32
  10   1 -12   11.06    0.32
 -10   1  12   11.00    0.31
 -10   1  12   10.75    0.33
  -9  -1  12    3.09    0.15
  -9  -1  12    3.22    0.14
   9  -1 -12    3.26    0.16
   9   1 -12    3.26    0.16
  -9   1  12    3.15    0.17
  -9   1  12    3.11    0.13
  -8  -1  12    0.91    0.08
  -8  -1  12    0.87    0.09
   8  -1 -12    0.81    0.09
   8   1 -12    0.92    0.09
  -8   1  12    0.97    0.07
  -8   1  12    0.71    0.09
  -7  -1  12    9.62    0.26
   7  -1 -12    9.47    0.28
  -7  -1  12   10.02    0.29
   7   1 -12    9.04    0.27
  -7   1  12    9.29    0.25
  -7   1  12    9.49    0.29
   6  -1 -12   25.39    0.61
  -6  -1  12   26.09    0.59
  -6  -1  12   26.33    0.62
   6   1 -12   25.26    0.59
  -6   1  12   26.45    0.63
  -6   1  12   25.96    0.57
  -5  -1  12   13.25    0.36
   5  -1 -12   14.17    0.36
  -5  -1  12   13.38    0.33
  -5   1  12   13.20    0.31
   5   1 -12   14.08    0.35
  -5   1  12   13.52    0.37
  -4  -1  12    0.22    0.04
   4  -1 -12    0.20    0.06
  -4  -1  12    0.22    0.06
  -4   1  12    0.21    0.04
  -4   1  12    0.08    0.07
   4   1 -12    0.19    0.05
   3  -1 -12    3.31    0.14
  -3  -1  12    2.98    0.14
  -3  -1  12    3.27    0.11
   3   1 -12    2.96    0.12
   2  -1 -12    1.58    0.10
  -2  -1  12    1.68    0.08
  -2  -1  12    1.43    0.10
   2   1 -12    1.61    0.09
   1  -1 -12    1.50    0.10
  -1  -1  12    1.01    0.09
  -1  -1  12    1.37    0.07
  -1   1  12    1.36    0.11
   1   1 -12    1.37    0.08
   0  -1 -12   14.57    0.37
   0  -1  12   14.65    0.33
   0   1  12   14.36    0.38
   0   1 -12   14.30    0.35
  -1  -1 -12    1.09    0.09
   1  -1  12    1.15    0.06
   1  -1  12    0.75    0.08
   1   1  12    1.18    0.10
  -1   1 -12    1.19    0.07
  -2  -1 -12    1.70    0.10
   2  -1  12    1.75    0.10
   2  -1  12    1.93    0.09
   2   1  12    1.78    0.11
  -2   1 -12    1.75    0.09
   3  -1  12    3.43    0.15
  -3  -1 -12    3.48    0.14
  -3   1 -12    3.34    0.12
   3   1  12    3.54    0.15
  -4  -1 -12    2.87    0.13
   4  -1  12    3.06    0.14
   4   1  12    3.12    0.14
  -4   1 -12    3.01    0.12
  -5  -1 -12    5.71    0.20
   5  -1  12    6.44    0.21
   5   1  12    6.16    0.21
  -5   1 -12    6.02    0.18
  -6  -1 -12   21.19    0.52
   6   1  12   21.04    0.51
  -6   1 -12   21.20    0.49
  -7  -1 -12    5.73    0.21
   7   1  12    6.05    0.20
  -7   1 -12    5.96    0.19
  -8  -1 -12    4.84    0.19
   8   1  12    4.85    0.18
  -8   1 -12    5.13    0.18
  -8   1 -12    4.89    0.19
  -9  -1 -12    2.69    0.14
  -9   1 -12    2.30    0.13
   9   1  12    2.51    0.13
 -10  -1 -12    0.18    0.06
 -10   1 -12    0.12    0.06
 -11  -1 -12    0.05    0.06
 -12  -1 -12    0.49    0.08
 -13  -1 -12    0.53    0.09
 -14  -1 -12    0.16    0.07
 -16  -2  12    0.47    0.11
  16   2 -12    0.65    0.11
 -16   2  12    0.44    0.09
  15  -2 -12    0.05    0.08
 -15  -2  12    0.16    0.06
  15   2 -12    0.12    0.08
 -15   2  12    0.09    0.06
  14  -2 -12    1.21    0.13
 -14  -2  12    1.45    0.13
 -14   2  12    1.53    0.14
  14   2 -12    1.60    0.14
 -14   2  12    1.69    0.13
  13  -2 -12    0.25    0.08
 -13  -2  12    0.16    0.06
 -13   2  12    0.22    0.06
  13   2 -12    0.22    0.08
 -13   2  12    0.14    0.08
 -12  -2  12    0.37    0.07
  12  -2 -12    0.38    0.08
 -12   2  12    0.38    0.09
 -12   2  12    0.36    0.07
  12   2 -12    0.41    0.08
  11  -2 -12   -0.04    0.06
 -11  -2  12    0.10    0.05
 -11   2  12    0.07    0.07
 -11   2  12    0.15    0.05
  11   2 -12    0.06    0.06
 -10  -2  12    0.81    0.08
  10  -2 -12    1.11    0.11
 -10   2  12    0.91    0.11
 -10   2  12    1.05    0.08
  10   2 -12    0.88    0.09
  -9  -2  12    1.01    0.09
   9  -2 -12    1.08    0.10
  -9  -2  12    1.09    0.10
   9   2 -12    1.33    0.11
  -9   2  12    1.04    0.11
  -9   2  12    1.08    0.08
  -8  -2  12    5.03    0.19
  -8  -2  12    4.85    0.18
   8  -2 -12    5.30    0.20
  -8   2  12    5.16    0.21
   8   2 -12    4.95    0.18
  -8   2  12    4.83    0.16
  -7  -2  12    0.19    0.05
   7  -2 -12    0.20    0.06
  -7  -2  12    0.25    0.06
  -7   2  12    0.27    0.07
   7   2 -12    0.22    0.05
  -7   2  12    0.26    0.04
  -6  -2  12    3.86    0.15
  -6  -2  12    3.64    0.16
   6  -2 -12    3.84    0.17
   6   2 -12    3.61    0.14
  -6   2  12    3.79    0.17
   5  -2 -12    0.00    0.05
  -5  -2  12   -0.07    0.05
  -5  -2  12    0.04    0.04
  -5   2  12   -0.02    0.06
   5   2 -12    0.03    0.04
   4  -2 -12   14.36    0.37
  -4  -2  12   13.60    0.37
  -4  -2  12   13.60    0.35
   4   2 -12   13.58    0.34
  -4   2  12   14.51    0.39
   3  -2 -12   15.60    0.41
  -3  -2  12   16.08    0.41
  -3  -2  12   15.40    0.38
   3   2 -12   15.86    0.37
  -3   2  12   16.48    0.42
   2  -2 -12    1.54    0.11
  -2  -2  12    1.59    0.09
  -2  -2  12    1.50    0.11
  -2   2  12    1.49    0.12
   2   2 -12    1.53    0.08
  -1  -2  12    0.26    0.05
  -1  -2  12    0.20    0.05
   1  -2 -12    0.26    0.06
  -1   2  12    0.24    0.07
   1   2 -12    0.21    0.04
   0  -2  12    5.39    0.19
   0  -2 -12    5.39    0.19
   0  -2  12    5.39    0.17
   0   2 -12    5.86    0.18
   0   2  12    5.46    0.21
   1  -2  12    7.63    0.24
   1  -2  12    7.30    0.21
  -1  -2 -12    7.24    0.23
   1   2  12    7.55    0.25
  -2  -2 -12    9.11    0.27
   2  -2  12    9.25    0.24
   2   2  12    9.08    0.28
  -3  -2 -12    0.08    0.05
   3  -2  12    0.06    0.04
   3   2  12    0.06    0.05
  -3   2 -12    0.07    0.05
  -4  -2 -12   48.02    1.07
   4  -2  12   48.91    1.04
  -4   2 -12   48.59    1.07
   4   2  12   47.81    1.07
   5  -2  12    0.99    0.08
  -5  -2 -12    0.78    0.08
  -5   2 -12    0.89    0.09
   5   2  12    0.99    0.09
   6  -2  12    9.60    0.33
  -6  -2 -12   10.44    0.30
  -6   2 -12   10.15    0.30
   6   2  12   10.02    0.29
  -7  -2 -12    0.10    0.06
   7   2  12    0.19    0.05
  -7   2 -12    0.11    0.05
  -8  -2 -12    0.06    0.05
  -8   2 -12    0.05    0.05
  -9  -2 -12    0.82    0.10
  -9   2 -12    0.75    0.09
 -10  -2 -12    6.22    0.24
 -10   2 -12    6.61    0.23
 -11  -2 -12    3.77    0.18
 -11   2 -12    3.92    0.18
 -12  -2 -12    0.05    0.06
 -12   2 -12    0.11    0.06
 -16   3  12    0.32    0.08
  16   3 -12    0.44    0.15
 -15  -3  12    8.06    0.30
  15  -3 -12    7.56    0.43
 -15   3  12    8.12    0.29
  15   3 -12    8.17    0.30
 -15   3  12    7.91    0.32
 -14  -3  12    8.28    0.30
  14  -3 -12    8.42    0.31
 -14   3  12    8.13    0.29
  14   3 -12    8.72    0.30
 -14   3  12    7.64    0.31
 -13  -3  12    4.45    0.21
  13  -3 -12    4.87    0.23
  13   3 -12    4.88    0.21
 -13   3  12    4.85    0.23
 -13   3  12    4.62    0.20
  12  -3 -12    1.97    0.15
 -12  -3  12    1.77    0.13
 -12   3  12    2.06    0.12
 -12   3  12    1.97    0.17
  12   3 -12    2.01    0.14
  11  -3 -12    0.47    0.09
 -11  -3  12    0.13    0.06
 -11   3  12    0.32    0.09
  11   3 -12    0.31    0.07
 -11   3  12    0.33    0.06
 -10  -3  12    0.43    0.07
  10  -3 -12    0.41    0.08
 -10   3  12    0.44    0.07
 -10   3  12    0.43    0.09
  10   3 -12    0.57    0.08
   9  -3 -12    2.16    0.14
  -9  -3  12    2.24    0.13
  -9   3  12    2.13    0.16
   9   3 -12    2.24    0.13
   8  -3 -12   21.99    0.56
  -8  -3  12   22.37    0.54
  -8  -3  12   21.85    0.55
  -8   3  12   22.67    0.58
   8   3 -12   21.92    0.53
  -7  -3  12    3.87    0.16
   7  -3 -12    4.01    0.17
  -7  -3  12    3.74    0.16
  -7   3  12    4.17    0.19
  -6  -3  12    0.99    0.09
  -6  -3  12    0.95    0.09
   6  -3 -12    0.97    0.10
  -6   3  12    1.03    0.11
  -5  -3  12    0.31    0.06
   5  -3 -12    0.41    0.07
  -5  -3  12    0.37    0.06
  -5   3  12    0.43    0.08
  -4  -3  12    1.93    0.11
  -4  -3  12    1.95    0.12
   4  -3 -12    1.97    0.12
  -4   3  12    1.84    0.14
  -3  -3  12   11.35    0.30
   3  -3 -12   11.33    0.32
  -3  -3  12   11.56    0.31
  -3   3  12   10.96    0.33
   2  -3 -12    0.07    0.05
  -2  -3  12    0.03    0.05
  -2  -3  12    0.10    0.05
  -2   3  12    0.02    0.06
   1  -3 -12    2.17    0.13
  -1  -3  12    2.22    0.12
  -1  -3  12    2.23    0.12
  -1   3  12    2.41    0.14
   0  -3  12    5.57    0.18
   0  -3 -12    5.84    0.21
   0   3  12    5.53    0.21
  -1  -3 -12    4.90    0.19
   1  -3  12    4.93    0.17
  -1   3 -12    4.83    0.18
   1   3  12    4.70    0.19
   2  -3  12   37.49    0.82
  -2  -3 -12   37.43    0.85
   2   3  12   36.67    0.84
  -2   3 -12   36.66    0.84
  -3  -3 -12    0.76    0.09
   3  -3  12    0.95    0.08
  -3   3 -12    0.82    0.08
   3   3  12    0.89    0.09
   4  -3  12   14.43    0.38
  -4  -3 -12   14.79    0.40
  -4   3 -12   14.98    0.40
   4   3  12   14.36    0.39
  -5  -3 -12   12.50    0.35
   5  -3  12   12.42    0.33
  -5   3 -12   12.02    0.34
   5   3  12   11.43    0.34
  -6  -3 -12    6.31    0.23
   6  -3  12    6.63    0.22
   6   3  12    5.88    0.21
  -6   3 -12    6.18    0.22
   7  -3  12    9.84    0.29
  -7  -3 -12    9.47    0.30
  -7   3 -12    9.56    0.30
   8  -3  12   10.51    0.34
  -8  -3 -12   11.44    0.34
  -8   3 -12   10.96    0.33
  -9  -3 -12    1.60    0.13
  -9   3 -12    1.81    0.13
 -10  -3 -12    6.77    0.26
 -10   3 -12    6.53    0.25
 -11  -3 -12    0.01    0.06
 -11   3 -12    0.01    0.06
 -12  -3 -12   -0.01    0.06
 -12   3 -12    0.08    0.06
 -13   3 -12    0.25    0.08
 -14  -4  12    0.05    0.07
  14  -4 -12    0.15    0.09
 -14   4  12    0.12    0.09
 -13  -4  12    2.93    0.18
  13  -4 -12    3.16    0.20
 -13   4  12    3.13    0.20
 -12  -4  12    0.08    0.07
  12  -4 -12    0.25    0.09
 -12   4  12    0.14    0.09
  11  -4 -12    0.14    0.07
 -11  -4  12    0.19    0.07
 -11   4  12    0.06    0.08
 -10  -4  12    0.18    0.07
  10  -4 -12    0.08    0.07
 -10   4  12    0.10    0.07
  -9  -4  12   11.82    0.36
   9  -4 -12   11.67    0.36
  -9   4  12   11.99    0.38
   8  -4 -12    0.95    0.10
  -8  -4  12    0.87    0.10
  -8   4  12    0.81    0.11
  -7  -4  12    0.25    0.07
   7  -4 -12    0.21    0.07
  -7   4  12    0.12    0.07
  -6  -4  12    2.08    0.13
   6  -4 -12    2.22    0.14
  -6  -4  12    2.20    0.12
  -6   4  12    1.81    0.15
  -5  -4  12    0.22    0.06
  -5  -4  12    0.33    0.06
   5  -4 -12    0.39    0.08
  -5   4  12    0.29    0.07
  -4  -4  12   11.59    0.32
   4  -4 -12   11.39    0.34
  -4  -4  12   11.51    0.33
  -4   4  12   11.55    0.35
   3  -4 -12   23.71    0.59
  -3  -4  12   23.67    0.57
  -3  -4  12   24.18    0.57
  -3   4  12   23.63    0.60
  -2  -4  12    6.94    0.22
   2  -4 -12    6.73    0.24
  -2  -4  12    6.43    0.22
  -2   4  12    6.57    0.24
   1  -4 -12    3.62    0.17
  -1  -4  12    3.64    0.16
  -1   4  12    3.74    0.17
   1   4 -12    3.50    0.15
   0  -4  12    1.54    0.11
   0  -4 -12    1.50    0.12
   0   4  12    1.53    0.12
   0   4 -12    1.39    0.11
  -1  -4 -12    5.85    0.22
   1  -4  12    6.01    0.21
  -1   4 -12    5.81    0.21
   1   4  12    5.87    0.22
   2  -4  12    0.01    0.05
  -2  -4 -12   -0.02    0.05
  -2   4 -12    0.00    0.05
   2   4  12    0.02    0.05
  -3  -4 -12   11.70    0.34
   3  -4  12   11.06    0.32
   3   4  12   10.98    0.32
  -3   4 -12   11.20    0.33
  -4  -4 -12    0.07    0.06
   4  -4  12    0.01    0.05
   4   4  12    0.01    0.05
  -4   4 -12    0.08    0.05
   5  -4  12    0.28    0.07
  -5  -4 -12    0.23    0.07
  -5   4 -12    0.16    0.06
   6  -4  12    1.69    0.13
  -6  -4 -12    1.81    0.13
  -6   4 -12    1.87    0.13
   7  -4  12    0.24    0.07
  -7  -4 -12    0.30    0.08
  -7   4 -12    0.34    0.08
   8  -4  12    0.60    0.09
  -8  -4 -12    0.94    0.11
  -8   4 -12    0.66    0.09
   9  -4  12    8.67    0.29
  -9  -4 -12    8.58    0.30
  -9   4 -12    8.07    0.29
 -10  -4 -12    9.78    0.33
 -10   4 -12    9.79    0.33
 -11  -4 -12    0.28    0.08
 -11   4 -12    0.30    0.08
 -12   4 -12    7.86    0.33
 -13  -5  12    0.02    0.11
  13  -5 -12    0.04    0.08
 -12  -5  12    0.05    0.07
  12  -5 -12    0.21    0.08
 -12   5  12   -0.06    0.08
 -11  -5  12    3.49    0.19
  11  -5 -12    3.61    0.20
 -11   5  12    3.16    0.21
 -10  -5  12    0.08    0.07
  10  -5 -12    0.05    0.07
 -10   5  12    0.05    0.08
   9  -5 -12    3.72    0.19
  -9  -5  12    3.79    0.19
  -9   5  12    3.58    0.21
   8  -5 -12    5.31    0.23
  -8  -5  12    5.52    0.23
  -8   5  12    5.36    0.24
  -7  -5  12    2.14    0.15
   7  -5 -12    2.27    0.15
  -7   5  12    2.00    0.16
   6  -5 -12    0.22    0.07
  -6  -5  12    0.13    0.07
  -6   5  12    0.14    0.07
   5  -5 -12    1.78    0.13
  -5  -5  12    1.84    0.12
  -5  -5  12    1.84    0.13
  -5   5  12    1.77    0.15
   4  -5 -12    0.44    0.08
  -4  -5  12    0.48    0.08
  -4  -5  12    0.59    0.07
  -4   5  12    0.47    0.09
   3  -5 -12    7.67    0.27
  -3  -5  12    7.87    0.25
  -3  -5  12    7.83    0.26
  -3   5  12    7.61    0.27
   2  -5 -12    0.60    0.09
  -2  -5  12    0.56    0.09
  -2   5  12    0.54    0.09
   2   5 -12    0.47    0.07
   1  -5 -12    0.32    0.08
  -1  -5  12    0.24    0.07
   1   5 -12    0.25    0.06
  -1   5  12    0.25    0.07
   0  -5 -12    0.12    0.06
   0  -5  12    0.32    0.07
   0   5 -12    0.19    0.06
   0   5  12    0.22    0.07
  -1  -5 -12    1.01    0.10
   1  -5  12    0.74    0.09
  -1   5 -12    0.82    0.09
   1   5  12    0.73    0.09
   2  -5  12    1.05    0.10
  -2  -5 -12    0.91    0.10
  -2   5 -12    0.89    0.09
   2   5  12    0.91    0.10
   3  -5  12    0.01    0.06
  -3  -5 -12    0.16    0.06
   3   5  12    0.17    0.06
  -3   5 -12    0.07    0.06
   4  -5  12    0.00    0.06
  -4  -5 -12   -0.01    0.05
  -4   5 -12    0.06    0.06
  -5  -5 -12    0.83    0.10
   5  -5  12    0.93    0.10
  -5   5 -12    1.03    0.11
  -6  -5 -12    0.85    0.10
   6  -5  12    1.05    0.11
  -6   5 -12    0.88    0.10
  -7  -5 -12    0.22    0.08
   7  -5  12    0.16    0.07
  -7   5 -12    0.20    0.07
   8  -5  12    0.89    0.11
  -8  -5 -12    0.62    0.10
  -8   5 -12    0.64    0.09
   9  -5  12    0.04    0.07
  -9  -5 -12    0.11    0.07
  -9   5 -12    0.01    0.06
 -10  -5 -12    2.06    0.19
  10  -5  12    1.96    0.16
 -10   5 -12    1.72    0.15
  11  -6 -12    0.08    0.07
 -11  -6  12   -0.05    0.09
 -10  -6  12   -0.02    0.07
  10  -6 -12    0.03    0.07
 -10   6  12   -0.06    0.08
   9  -6 -12    0.76    0.11
  -9  -6  12    0.81    0.12
  -9   6  12    0.72    0.12
  -8  -6  12    0.10    0.08
   8  -6 -12    0.21    0.08
  -8   6  12    0.11    0.09
  -7  -6  12    0.96    0.12
   7  -6 -12    0.94    0.11
  -7   6  12    1.03    0.13
   6  -6 -12    2.74    0.17
  -6  -6  12    2.73    0.17
  -6   6  12    2.76    0.18
  -5  -6  12    5.96    0.24
   5  -6 -12    5.85    0.24
  -5   6  12    5.91    0.25
   4  -6 -12    0.15    0.07
  -4  -6  12    0.24    0.08
  -4   6  12    0.27    0.09
   3  -6 -12   32.68    0.79
  -3  -6  12   32.44    0.78
  -3   6  12   32.49    0.80
   2  -6 -12    0.07    0.06
  -2  -6  12   -0.07    0.07
  -2   6  12    0.16    0.07
   2   6 -12    0.07    0.05
   1  -6 -12    3.15    0.17
  -1  -6  12    3.11    0.17
   1   6 -12    3.27    0.16
  -1   6  12    3.20    0.18
   0  -6 -12    0.25    0.07
   0  -6  12    0.28    0.08
   0   6 -12    0.25    0.07
   0   6  12    0.22    0.08
  -1  -6 -12    2.34    0.15
   1  -6  12    2.55    0.16
  -1   6 -12    2.30    0.14
   1   6  12    2.28    0.15
   2  -6  12    4.26    0.20
  -2  -6 -12    3.92    0.19
  -2   6 -12    4.21    0.19
  -3  -6 -12    2.13    0.15
   3  -6  12    2.40    0.16
  -3   6 -12    2.24    0.15
   4  -6  12    0.22    0.08
  -4  -6 -12    0.13    0.07
  -4   6 -12    0.06    0.06
  -5  -6 -12    0.03    0.06
   5  -6  12    0.09    0.07
  -5   6 -12    0.07    0.06
   6  -6  12    2.66    0.17
  -6  -6 -12    2.56    0.16
  -6   6 -12    2.61    0.17
  -7  -6 -12    0.05    0.07
   7  -6  12    0.08    0.08
  -7   6 -12   -0.02    0.06
   8  -6  12    1.22    0.13
  -8  -6 -12    1.18    0.13
  -8   6 -12    0.91    0.13
   9  -6  12    0.55    0.10
   9  -7 -12    0.30    0.09
  -8  -7  12    3.93    0.23
   8  -7 -12    4.13    0.21
  -8   7  12    3.93    0.29
   7  -7 -12    8.16    0.30
  -7  -7  12    8.59    0.32
  -7   7  12    8.35    0.33
  -6  -7  12    1.88    0.16
   6  -7 -12    1.79    0.15
  -6   7  12    1.67    0.16
  -5  -7  12    0.05    0.08
   5  -7 -12    0.14    0.07
  -5   7  12    0.25    0.09
  -4  -7  12    6.87    0.28
   4  -7 -12    6.78    0.27
  -4   7  12    7.33    0.29
   3  -7 -12    1.15    0.12
  -3  -7  12    0.74    0.11
  -3   7  12    1.01    0.12
   2  -7 -12    1.11    0.12
  -2  -7  12    1.19    0.13
  -2   7  12    1.20    0.13
   2   7 -12    1.28    0.11
   1  -7 -12    2.42    0.16
  -1  -7  12    2.48    0.17
  -1   7  12    2.25    0.17
   1   7 -12    2.53    0.15
   0  -7  12    7.00    0.28
   0  -7 -12    7.30    0.28
   0   7  12    7.26    0.28
   0   7 -12    7.33    0.26
   1  -7  12    1.60    0.15
  -1  -7 -12    1.93    0.15
  -1   7 -12    1.74    0.14
   2  -7  12    1.01    0.13
  -2  -7 -12    0.98    0.11
  -2   7 -12    0.82    0.10
   3  -7  12    1.73    0.15
  -3  -7 -12    1.54    0.14
  -3   7 -12    1.55    0.14
  -4  -7 -12    1.52    0.14
   4  -7  12    1.26    0.14
  -4   7 -12    1.21    0.12
   5  -7  12    0.07    0.08
  -5  -7 -12    0.04    0.07
  -5   7 -12    0.03    0.07
   6  -7  12   12.73    0.41
   7  -7  12    2.41    0.27
   5  -8 -12    0.06    0.08
   4  -8 -12    0.38    0.09
  -4   8  12    0.47    0.11
   3  -8 -12    0.91    0.12
  -3   8  12    0.65    0.12
  -2  -8  12    2.90    0.29
   2  -8 -12    2.39    0.17
  -2   8  12    2.25    0.18
  -1  -8  12    0.79    0.15
   1  -8 -12    0.67    0.11
   0  -8  12    0.95    0.19
   0  -8 -12    1.06    0.12
   0   8 -12    1.01    0.11
  -1  -8 -12    0.19    0.09
  -1   8 -12    0.29    0.08
  -2   8 -12    1.97    0.18
 -16   0  13   -0.01    0.05
 -15   0  13   -0.04    0.05
  15   0 -13    0.02    0.08
 -14   0  13    0.03    0.05
  14   0 -13    0.04    0.08
 -13   0  13   -0.05    0.04
  13   0 -13   -0.10    0.07
 -12   0  13    0.00    0.04
  12   0 -13   -0.03    0.06
 -12   0  13   -0.12    0.06
 -11   0  13   -0.03    0.07
 -11   0  13   -0.03    0.03
  11   0 -13   -0.02    0.06
 -10   0  13   -0.10    0.06
  10   0 -13    0.06    0.06
 -10   0  13   -0.03    0.03
  -9   0  13   -0.03    0.03
  -9   0  13    0.02    0.06
   9   0 -13    0.02    0.06
  -8   0  13    0.02    0.07
  -8   0  13    0.03    0.03
   8   0 -13    0.05    0.05
  -7   0  13   -0.01    0.06
  -7   0  13    0.01    0.03
   7   0 -13    0.09    0.05
   6   0 -13   -0.01    0.05
  -6   0  13    0.01    0.06
  -6   0  13   -0.01    0.03
  -5   0  13   -0.02    0.02
  -5   0  13   -0.01    0.06
   5   0 -13    0.03    0.05
   4   0 -13    0.08    0.05
  -4   0  13   -0.02    0.06
   3   0 -13    0.01    0.04
  -3   0  13   -0.06    0.06
   2   0 -13    0.08    0.04
  -2   0  13   -0.04    0.05
  -1   0  13   -0.05    0.05
   1   0 -13    0.02    0.04
   0   0 -13   -0.04    0.04
   0   0  13   -0.05    0.05
   1   0  13    0.01    0.05
  -1   0 -13    0.04    0.04
   2   0  13    0.06    0.05
  -2   0 -13    0.03    0.04
   3   0  13   -0.07    0.04
  -3   0 -13   -0.04    0.03
  -4   0 -13    0.04    0.04
   4   0  13    0.06    0.05
  -5   0 -13   -0.05    0.04
   5   0  13    0.04    0.04
  -6   0 -13   -0.06    0.04
   6   0  13    0.02    0.04
  -7   0 -13    0.02    0.04
   7   0  13    0.03    0.05
   8   0  13    0.01    0.04
  -8   0 -13   -0.02    0.04
  -9   0 -13    0.02    0.05
   9   0  13    0.00    0.04
  10   0  13    0.02    0.04
 -10   0 -13    0.04    0.05
 -11   0 -13    0.02    0.05
 -16  -1  13    0.29    0.08
 -16   1  13    0.29    0.08
 -15  -1  13    1.16    0.12
  15  -1 -13    1.10    0.13
  15   1 -13    1.03    0.13
 -15   1  13    1.18    0.12
 -14  -1  13    1.71    0.13
  14  -1 -13    1.46    0.14
  14   1 -13    1.46    0.14
 -14   1  13    1.64    0.13
 -13  -1  13    2.95    0.16
  13  -1 -13    3.14    0.19
 -13   1  13    3.12    0.19
  13   1 -13    3.09    0.18
 -13   1  13    3.11    0.15
 -12  -1  13    1.41    0.11
  12  -1 -13    1.28    0.12
 -12   1  13    1.28    0.13
 -12   1  13    1.51    0.11
  12   1 -13    1.54    0.13
 -11  -1  13    3.08    0.18
 -11  -1  13    3.26    0.15
  11  -1 -13    3.44    0.18
 -11   1  13    3.30    0.18
 -11   1  13    3.46    0.15
  11   1 -13    3.05    0.17
  10  -1 -13    0.32    0.08
 -10  -1  13    0.38    0.07
 -10  -1  13    0.45    0.08
  10   1 -13    0.45    0.08
 -10   1  13    0.38    0.09
 -10   1  13    0.52    0.07
   9  -1 -13    1.03    0.10
  -9  -1  13    0.99    0.10
  -9  -1  13    1.07    0.09
  -9   1  13    1.05    0.08
   9   1 -13    1.08    0.10
  -9   1  13    0.98    0.11
  -8  -1  13   27.98    0.67
   8  -1 -13   28.46    0.67
  -8  -1  13   28.19    0.65
  -8   1  13   28.02    0.68
  -8   1  13   27.87    0.64
   8   1 -13   28.53    0.66
   7  -1 -13    6.79    0.23
  -7  -1  13    7.01    0.24
  -7  -1  13    7.02    0.21
  -7   1  13    6.64    0.24
   7   1 -13    6.86    0.22
  -7   1  13    6.77    0.22
  -6  -1  13   13.62    0.34
   6  -1 -13   13.67    0.37
  -6  -1  13   13.67    0.38
  -6   1  13   13.78    0.38
   6   1 -13   13.85    0.36
  -5  -1  13    3.29    0.12
   5  -1 -13    3.27    0.15
  -5  -1  13    3.41    0.16
  -5   1  13    3.61    0.17
   5   1 -13    3.40    0.14
  -4  -1  13    1.96    0.09
   4  -1 -13    1.77    0.11
  -4  -1  13    1.85    0.13
   4   1 -13    1.91    0.10
  -4   1  13    2.00    0.14
   3  -1 -13   14.28    0.38
  -3  -1  13   14.54    0.39
  -3  -1  13   15.01    0.35
  -3   1  13   15.26    0.41
   3   1 -13   14.29    0.36
   2  -1 -13    5.31    0.19
  -2  -1  13    5.59    0.20
  -2  -1  13    5.28    0.15
  -2   1  13    5.50    0.21
   2   1 -13    5.32    0.17
  -1  -1  13    2.72    0.14
   1  -1 -13    2.60    0.13
  -1   1  13    2.82    0.15
   1   1 -13    2.66    0.11
   0  -1 -13    2.33    0.12
   0  -1  13    2.49    0.13
   0   1 -13    2.43    0.11
   0   1  13    2.12    0.14
  -1  -1 -13    0.21    0.05
   1  -1  13    0.10    0.05
  -1   1 -13    0.09    0.04
   1   1  13    0.11    0.06
  -2  -1 -13    1.40    0.10
   2  -1  13    1.38    0.11
  -2   1 -13    1.36    0.08
   2   1  13    1.39    0.11
  -3  -1 -13    0.52    0.06
   3  -1  13    0.44    0.07
  -3   1 -13    0.41    0.05
   3   1  13    0.63    0.08
   4  -1  13    6.11    0.21
  -4  -1 -13    6.18    0.20
   4   1  13    6.06    0.21
  -4   1 -13    5.92    0.18
  -5  -1 -13    3.16    0.14
   5  -1  13    2.96    0.15
   5   1  13    3.21    0.15
  -5   1 -13    2.99    0.12
   6  -1  13   11.25    0.33
  -6  -1 -13   11.63    0.33
  -6   1 -13   12.30    0.37
   6   1  13   11.17    0.33
  -7  -1 -13    2.07    0.12
   7  -1  13    2.05    0.13
   7   1  13    2.02    0.12
   8  -1  13   18.30    0.48
  -8  -1 -13   19.32    0.48
   8   1  13   18.23    0.47
  -9  -1 -13    9.28    0.29
   9  -1  13    9.37    0.29
 -10  -1 -13    0.04    0.06
  10  -1  13    0.02    0.05
  11  -1  13    1.23    0.11
 -11  -1 -13    1.23    0.11
 -12  -1 -13    0.86    0.10
 -13  -1 -13    8.38    0.30
 -16   2  13    2.51    0.16
 -15  -2  13    3.45    0.18
  15  -2 -13    3.53    0.23
 -15   2  13    3.52    0.18
  15   2 -13    3.30    0.20
 -14  -2  13    0.00    0.05
  14  -2 -13    0.11    0.08
 -14   2  13   -0.07    0.08
 -14   2  13    0.04    0.05
  14   2 -13    0.18    0.08
 -13  -2  13    4.74    0.20
  13  -2 -13    4.91    0.23
  13   2 -13    4.51    0.21
 -13   2  13    4.60    0.23
 -13   2  13    4.83    0.20
  12  -2 -13    6.13    0.25
 -12  -2  13    6.09    0.23
  12   2 -13    5.78    0.23
 -12   2  13    5.84    0.25
 -12   2  13    5.48    0.21
 -11  -2  13   16.05    0.44
  11  -2 -13   16.67    0.47
 -11   2  13   16.52    0.45
  11   2 -13   16.52    0.45
 -11   2  13   17.17    0.47
 -10  -2  13    0.97    0.10
  10  -2 -13    1.00    0.11
 -10   2  13    1.03    0.12
  10   2 -13    1.10    0.10
  -9  -2  13    0.15    0.07
   9  -2 -13    0.05    0.06
  -9  -2  13    0.10    0.05
  -9   2  13    0.10    0.08
   9   2 -13    0.03    0.06
  -8  -2  13    0.03    0.06
   8  -2 -13    0.01    0.05
  -8  -2  13    0.04    0.04
  -8   2  13    0.04    0.07
   8   2 -13    0.00    0.05
  -7  -2  13    3.23    0.16
  -7  -2  13    3.40    0.14
   7  -2 -13    3.37    0.16
  -7   2  13    3.84    0.18
   7   2 -13    3.61    0.15
   6  -2 -13    2.35    0.13
  -6  -2  13    2.41    0.12
  -6  -2  13    2.37    0.14
  -6   2  13    2.38    0.15
   6   2 -13    2.30    0.11
  -5  -2  13    8.27    0.26
   5  -2 -13    8.21    0.26
  -5  -2  13    8.23    0.24
  -5   2  13    8.63    0.28
   5   2 -13    8.17    0.23
   4  -2 -13   16.35    0.42
  -4  -2  13   16.09    0.39
  -4  -2  13   15.98    0.42
  -4   2  13   16.71    0.44
   4   2 -13   15.66    0.38
  -3  -2  13    8.33    0.23
   3  -2 -13    8.23    0.26
  -3  -2  13    8.21    0.26
  -3   2  13    8.45    0.28
   3   2 -13    8.31    0.22
   2  -2 -13    3.95    0.16
  -2  -2  13    3.70    0.14
  -2  -2  13    3.80    0.16
  -2   2  13    3.94    0.18
  -1  -2  13    8.85    0.24
   1  -2 -13    8.88    0.27
  -1  -2  13    8.86    0.27
  -1   2  13    8.90    0.29
   0  -2  13    0.01    0.05
   0  -2  13   -0.02    0.04
   0  -2 -13   -0.02    0.05
   0   2  13   -0.01    0.06
  -1  -2 -13   11.10    0.32
   1  -2  13   11.29    0.29
   1  -2  13   11.75    0.33
   1   2  13   11.59    0.34
  -2  -2 -13   24.64    0.58
   2  -2  13   24.81    0.62
   2  -2  13   23.07    0.58
   2   2  13   23.52    0.59
   3  -2  13   30.41    0.73
  -3  -2 -13   31.94    0.73
   3   2  13   30.97    0.73
  -4  -2 -13    3.06    0.15
   4   2  13    3.11    0.15
  -5  -2 -13    2.93    0.15
   5   2  13    3.23    0.16
  -5   2 -13    3.32    0.15
  -6  -2 -13   -0.01    0.04
   6   2  13    0.04    0.05
  -6   2 -13   -0.01    0.05
  -7  -2 -13    0.04    0.05
   7   2  13    0.01    0.05
  -7   2 -13   -0.02    0.05
  -8  -2 -13   -0.06    0.05
  -8   2 -13   -0.05    0.04
  -9  -2 -13    8.59    0.28
  -9   2 -13    8.11    0.28
 -10  -2 -13    3.65    0.18
 -10   2 -13    3.74    0.18
 -11  -2 -13    0.50    0.09
 -11   2 -13    0.47    0.08
 -12  -2 -13    2.38    0.16
 -12   2 -13    2.45    0.16
 -15  -3  13    0.67    0.16
 -15   3  13    0.76    0.13
  15   3 -13    0.76    0.11
 -14  -3  13   -0.03    0.06
  14  -3 -13   -0.08    0.07
  14   3 -13    0.00    0.07
 -14   3  13    0.01    0.08
  13  -3 -13    0.18    0.08
 -13  -3  13    0.15    0.06
 -13   3  13    0.17    0.09
  13   3 -13    0.20    0.08
  12  -3 -13    0.14    0.08
 -12  -3  13    0.17    0.06
  12   3 -13    0.40    0.08
 -12   3  13    0.18    0.09
  11  -3 -13    2.61    0.17
 -11  -3  13    2.65    0.15
 -11   3  13    2.29    0.18
  11   3 -13    2.75    0.19
  10  -3 -13    0.60    0.10
 -10  -3  13    0.46    0.08
 -10   3  13    0.60    0.11
  -9  -3  13    4.34    0.18
   9  -3 -13    4.44    0.20
  -9   3  13    4.64    0.22
  -8  -3  13    3.53    0.16
   8  -3 -13    3.77    0.18
  -8  -3  13    3.26    0.15
  -8   3  13    3.31    0.19
  -7  -3  13    0.06    0.05
  -7  -3  13    0.16    0.06
   7  -3 -13    0.08    0.06
  -7   3  13    0.08    0.07
   6  -3 -13    4.92    0.20
  -6  -3  13    4.74    0.18
  -6  -3  13    4.73    0.19
  -6   3  13    4.83    0.21
  -5  -3  13    3.77    0.16
   5  -3 -13    3.76    0.17
  -5  -3  13    3.91    0.17
  -5   3  13    3.82    0.18
   4  -3 -13    0.94    0.10
  -4  -3  13    0.90    0.08
  -4  -3  13    0.97    0.09
  -4   3  13    1.01    0.11
   3  -3 -13    0.02    0.05
  -3  -3  13    0.02    0.05
  -3  -3  13    0.00    0.04
  -3   3  13   -0.02    0.05
   2  -3 -13    2.65    0.14
  -2  -3  13    2.83    0.13
  -2  -3  13    3.01    0.14
  -2   3  13    2.86    0.16
  -1  -3  13    2.14    0.11
   1  -3 -13    2.16    0.13
  -1  -3  13    2.12    0.12
  -1   3  13    2.25    0.14
   0  -3  13    2.19    0.13
   0  -3  13    2.13    0.11
   0  -3 -13    1.87    0.13
   0   3  13    1.98    0.13
   1  -3  13    0.71    0.07
  -1  -3 -13    0.91    0.09
   1   3  13    0.78    0.09
  -2  -3 -13    0.13    0.06
   2  -3  13    0.16    0.05
   2   3  13    0.14    0.06
  -2   3 -13    0.11    0.05
   3  -3  13   11.17    0.30
  -3  -3 -13   11.08    0.33
  -3   3 -13   11.28    0.33
   3   3  13   10.67    0.33
  -4  -3 -13    0.13    0.06
   4  -3  13    0.21    0.06
  -4   3 -13    0.22    0.06
   4   3  13    0.28    0.07
  -5  -3 -13    0.65    0.09
  -5   3 -13    0.50    0.08
   5   3  13    0.66    0.09
  -6  -3 -13   26.26    0.64
   6   3  13   24.58    0.62
  -6   3 -13   26.37    0.64
  -7  -3 -13   -0.04    0.05
  -7   3 -13    0.07    0.06
  -8  -3 -13    0.25    0.07
  -8   3 -13    0.17    0.06
  -9  -3 -13    0.27    0.08
  -9   3 -13    0.37    0.07
 -10  -3 -13    5.72    0.24
 -10   3 -13    5.60    0.23
 -11  -3 -13    0.08    0.07
 -11   3 -13    0.33    0.08
 -12   3 -13    1.58    0.14
 -14   4  13    2.50    0.23
 -13  -4  13    2.26    0.16
  13  -4 -13    2.73    0.18
 -13   4  13    2.29    0.19
 -12  -4  13    0.27    0.08
  12  -4 -13    0.46    0.10
 -12   4  13    0.25    0.10
 -11  -4  13    1.29    0.12
  11  -4 -13    1.49    0.14
 -11   4  13    1.48    0.15
  10  -4 -13    0.09    0.07
 -10  -4  13    0.06    0.06
 -10   4  13    0.04    0.08
  -9  -4  13    1.80    0.13
   9  -4 -13    2.05    0.15
  -9   4  13    2.16    0.16
   8  -4 -13    0.73    0.10
  -8  -4  13    0.57    0.08
  -8   4  13    0.62    0.10
   7  -4 -13    0.42    0.08
  -7  -4  13    0.52    0.08
  -7   4  13    0.48    0.09
   6  -4 -13    7.13    0.26
  -6  -4  13    7.01    0.25
  -6  -4  13    7.57    0.25
  -6   4  13    7.94    0.28
   5  -4 -13    4.19    0.18
  -5  -4  13    4.09    0.17
  -5  -4  13    3.93    0.17
  -5   4  13    3.88    0.20
   4  -4 -13    3.42    0.17
  -4  -4  13    3.31    0.15
  -4  -4  13    3.50    0.16
  -4   4  13    3.51    0.18
   3  -4 -13    0.20    0.07
  -3  -4  13    0.24    0.06
  -3  -4  13    0.34    0.07
  -3   4  13    0.31    0.08
  -2  -4  13    0.03    0.05
  -2  -4  13    0.03    0.05
   2  -4 -13    0.01    0.05
  -2   4  13   -0.04    0.06
  -1  -4  13    0.01    0.05
  -1  -4  13    0.01    0.05
   1  -4 -13    0.07    0.06
  -1   4  13    0.02    0.06
   0  -4 -13    1.86    0.13
   0  -4  13    1.91    0.12
   0   4 -13    2.07    0.13
   0   4  13    1.85    0.13
  -1  -4 -13    0.40    0.07
   1  -4  13    0.47    0.07
  -1   4 -13    0.40    0.07
   1   4  13    0.38    0.07
   2  -4  13    3.67    0.16
  -2  -4 -13    3.60    0.17
  -2   4 -13    3.73    0.17
   2   4  13    3.66    0.17
  -3  -4 -13    6.47    0.24
   3  -4  13    6.35    0.22
  -3   4 -13    6.45    0.23
   3   4  13    5.91    0.23
  -4  -4 -13    4.46    0.19
   4  -4  13    4.35    0.18
   4   4  13    4.12    0.18
  -4   4 -13    4.34    0.19
  -5  -4 -13    0.13    0.06
   5  -4  13    0.13    0.06
  -5   4 -13    0.13    0.06
   6  -4  13    0.51    0.08
  -6  -4 -13    0.53    0.09
  -6   4 -13    0.42    0.08
  -7  -4 -13    0.98    0.11
  -7   4 -13    0.99    0.11
  -8  -4 -13    3.13    0.18
  -8   4 -13    2.73    0.17
  -9  -4 -13    3.40    0.19
  -9   4 -13    3.03    0.18
 -10  -4 -13    2.83    0.18
 -10   4 -13    3.02    0.18
 -11   4 -13    0.22    0.08
  12  -5 -13    8.52    0.33
 -12  -5  13    8.72    0.32
 -12   5  13    9.34    0.39
  11  -5 -13    0.06    0.07
 -11  -5  13   -0.03    0.06
 -11   5  13    0.00    0.08
 -10  -5  13   -0.08    0.06
  10  -5 -13   -0.13    0.06
 -10   5  13    0.04    0.08
   9  -5 -13   16.48    0.48
  -9  -5  13   16.85    0.47
  -9   5  13   16.16    0.49
  -8  -5  13    7.74    0.28
   8  -5 -13    7.41    0.28
  -8   5  13    7.77    0.30
   7  -5 -13    7.97    0.28
  -7  -5  13    7.69    0.27
  -7   5  13    7.17    0.29
  -6  -5  13   20.51    0.53
   6  -5 -13   20.01    0.53
  -6   5  13   19.25    0.55
  -5  -5  13    0.28    0.06
   5  -5 -13    0.16    0.07
  -5  -5  13    0.19    0.07
  -5   5  13    0.09    0.08
  -4  -5  13    0.48    0.08
  -4  -5  13    0.44    0.07
   4  -5 -13    0.39    0.08
  -4   5  13    0.46    0.09
  -3  -5  13    3.96    0.17
   3  -5 -13    3.83    0.19
  -3  -5  13    3.54    0.17
  -3   5  13    3.72    0.19
  -2  -5  13    0.69    0.09
   2  -5 -13    0.81    0.10
  -2  -5  13    0.96    0.09
  -2   5  13    0.74    0.10
  -1  -5  13    5.09    0.21
   1  -5 -13    5.17    0.22
   1   5 -13    5.02    0.20
  -1   5  13    5.04    0.22
   0  -5 -13    0.54    0.09
   0  -5  13    0.69    0.09
   0   5 -13    0.70    0.09
   0   5  13    0.60    0.09
  -1  -5 -13    5.59    0.22
   1  -5  13    5.71    0.22
   1   5  13    5.42    0.22
  -1   5 -13    5.47    0.22
  -2  -5 -13    0.30    0.07
   2  -5  13    0.41    0.08
   2   5  13    0.27    0.07
  -2   5 -13    0.31    0.07
  -3  -5 -13    0.93    0.10
   3  -5  13    0.93    0.10
  -3   5 -13    0.88    0.10
   3   5  13    0.93    0.10
  -4  -5 -13    5.35    0.22
   4  -5  13    5.16    0.21
  -4   5 -13    5.13    0.22
  -5  -5 -13    0.84    0.10
   5  -5  13    1.06    0.11
  -5   5 -13    0.86    0.10
  -6  -5 -13   16.96    0.48
   6  -5  13   16.67    0.47
  -6   5 -13   17.67    0.48
  -7  -5 -13   17.99    0.51
   7  -5  13   17.61    0.49
  -7   5 -13   18.17    0.50
   8  -5  13    2.82    0.21
  -8  -5 -13    3.05    0.18
  -8   5 -13    2.96    0.18
  -9  -5 -13    5.97    0.26
  -9   5 -13    5.87    0.25
 -10  -6  13    0.13    0.08
  10  -6 -13    0.17    0.08
 -10   6  13    0.07    0.14
  -9  -6  13    2.95    0.19
   9  -6 -13    2.69    0.18
  -9   6  13    2.60    0.20
  -8  -6  13    0.50    0.10
   8  -6 -13    0.81    0.11
  -8   6  13    0.66    0.12
   7  -6 -13    1.96    0.15
  -7  -6  13    1.79    0.15
  -7   6  13    1.67    0.16
   6  -6 -13    0.08    0.07
  -6  -6  13    0.08    0.07
  -6   6  13    0.06    0.08
  -5  -6  13    1.02    0.12
   5  -6 -13    0.86    0.11
  -5   6  13    0.82    0.12
  -4  -6  13    2.48    0.17
   4  -6 -13    2.58    0.16
  -4   6  13    2.47    0.17
  -3  -6  13   11.43    0.34
   3  -6 -13   10.61    0.35
  -3  -6  13   11.08    0.35
  -3   6  13   11.48    0.37
   2  -6 -13    1.26    0.13
  -2  -6  13    1.28    0.12
  -2   6  13    1.22    0.13
  -1  -6  13    0.04    0.06
   1  -6 -13   -0.04    0.05
   1   6 -13   -0.04    0.05
  -1   6  13    0.01    0.07
   0  -6 -13    0.09    0.07
   0  -6  13    0.17    0.07
   0   6  13    0.10    0.07
   0   6 -13    0.23    0.07
  -1  -6 -13    2.44    0.16
   1  -6  13    2.88    0.17
   1   6  13    2.60    0.16
  -1   6 -13    2.62    0.15
  -2  -6 -13    0.10    0.07
   2  -6  13    0.25    0.08
  -2   6 -13    0.20    0.07
  -3  -6 -13    0.70    0.10
   3  -6  13    0.77    0.10
  -3   6 -13    0.76    0.10
  -4  -6 -13    0.80    0.10
   4  -6  13    0.84    0.11
  -4   6 -13    0.77    0.10
  -5  -6 -13    1.75    0.15
   5  -6  13    1.89    0.15
  -5   6 -13    1.56    0.14
   6  -6  13    1.74    0.15
  -6  -6 -13    1.63    0.15
  -6   6 -13    1.87    0.15
   7  -6  13    1.00    0.12
  -7  -6 -13    0.74    0.11
  -7   6 -13    0.87    0.13
   8  -6  13    1.79    0.16
   8  -7 -13    0.24    0.13
  -7  -7  13    1.97    0.17
   7  -7 -13    2.26    0.17
  -7   7  13    1.93    0.22
  -6  -7  13   -0.04    0.07
   6  -7 -13    0.05    0.07
  -6   7  13   -0.04    0.07
  -5  -7  13    1.55    0.15
   5  -7 -13    1.48    0.14
  -5   7  13    1.55    0.16
  -4  -7  13    2.01    0.17
   4  -7 -13    1.79    0.15
  -4   7  13    2.08    0.18
  -3  -7  13    0.82    0.12
   3  -7 -13    0.88    0.11
  -3   7  13    0.86    0.13
   2  -7 -13    5.79    0.25
  -2  -7  13    6.09    0.26
   2   7 -13    6.42    0.24
  -2   7  13    5.76    0.26
   1  -7 -13    0.82    0.11
  -1  -7  13    0.69    0.11
  -1   7  13    0.76    0.12
   1   7 -13    0.81    0.10
   0  -7  13    2.72    0.18
   0  -7 -13    3.20    0.18
   0   7 -13    2.70    0.17
  -1  -7 -13    0.10    0.07
   1  -7  13    0.03    0.08
  -1   7 -13    0.09    0.06
   2  -7  13    0.87    0.12
  -2   7 -13    0.92    0.11
  -3  -7 -13    0.88    0.12
   3  -7  13    0.87    0.12
  -3   7 -13    0.92    0.11
   4  -7  13    1.31    0.14
  -4  -7 -13    1.29    0.16
  -4   7 -13    0.87    0.11
   5  -7  13    1.23    0.14
   6  -7  13    0.16    0.10
  -3   8  13    7.36    0.33
  -2   8  13    4.92    0.34
   0   8 -13    5.42    0.23
 -16   0  14    4.68    0.22
  15   0 -14    2.82    0.19
 -15   0  14    2.96    0.17
 -14   0  14    1.45    0.12
  14   0 -14    1.27    0.14
  13   0 -14    6.85    0.27
 -13   0  14    6.78    0.24
 -12   0  14   11.25    0.33
 -12   0  14   11.20    0.35
  12   0 -14   11.54    0.36
  11   0 -14    5.98    0.23
 -11   0  14    5.49    0.23
 -11   0  14    5.55    0.20
  10   0 -14    1.43    0.12
 -10   0  14    1.36    0.12
 -10   0  14    1.67    0.10
  -9   0  14   40.84    0.93
   9   0 -14   39.79    0.92
  -9   0  14   39.39    0.89
  -8   0  14    0.36    0.07
  -8   0  14    0.44    0.09
   8   0 -14    0.44    0.08
  -7   0  14    0.31    0.08
   7   0 -14    0.32    0.07
  -6   0  14   28.03    0.68
   6   0 -14   27.72    0.66
   5   0 -14    9.93    0.28
  -5   0  14    9.89    0.31
   4   0 -14    0.47    0.07
  -4   0  14    0.49    0.09
   3   0 -14   21.49    0.52
  -3   0  14   21.84    0.55
  -2   0  14   -0.03    0.06
   2   0 -14    0.04    0.04
  -1   0  14    2.10    0.13
   1   0 -14    1.89    0.11
   0   0  14   14.52    0.39
   0   0 -14   14.35    0.37
   1   0  14   26.15    0.63
  -1   0 -14   26.16    0.60
   2   0  14   33.99    0.79
  -2   0 -14   34.31    0.77
   3   0  14   53.23    1.20
  -3   0 -14   56.19    1.18
   4   0  14    9.02    0.28
  -4   0 -14    9.28    0.27
   5   0  14    2.17    0.13
  -5   0 -14    2.05    0.11
   6   0  14    2.01    0.13
  -6   0 -14    2.03    0.12
  -7   0 -14    1.03    0.09
   7   0  14    0.92    0.09
  -8   0 -14    1.17    0.10
   8   0  14    1.20    0.11
   9   0  14    6.15    0.23
  -9   0 -14    6.22    0.22
  10   0  14   17.29    0.58
 -16   1  14    0.68    0.12
  15  -1 -14    2.96    0.22
 -15  -1  14    2.62    0.16
 -15   1  14    2.45    0.18
  15   1 -14    2.59    0.19
  14  -1 -14    0.07    0.08
 -14  -1  14   -0.01    0.05
  14   1 -14    0.06    0.08
 -14   1  14    0.00    0.05
 -13  -1  14    1.56    0.12
  13  -1 -14    1.81    0.16
 -13   1  14    1.65    0.15
 -13   1  14    2.01    0.16
  13   1 -14    1.73    0.15
  12  -1 -14    0.29    0.08
 -12  -1  14    0.25    0.06
  12   1 -14    0.22    0.08
 -12   1  14    0.28    0.09
  11  -1 -14    2.51    0.16
 -11  -1  14    2.35    0.13
 -11  -1  14    2.49    0.17
  11   1 -14    2.64    0.16
 -11   1  14    2.47    0.17
 -10  -1  14    4.76    0.20
  10  -1 -14    4.03    0.19
 -10  -1  14    4.14    0.17
 -10   1  14    4.32    0.21
  10   1 -14    4.42    0.19
  -9  -1  14    9.83    0.31
  -9  -1  14    9.75    0.28
   9  -1 -14    9.45    0.31
  -9   1  14    9.79    0.32
   9   1 -14    9.72    0.30
   8  -1 -14    8.83    0.28
  -8  -1  14    8.50    0.28
  -8  -1  14    8.50    0.25
   8   1 -14    9.21    0.28
  -8   1  14    8.93    0.30
  -7  -1  14    3.36    0.18
  -7  -1  14    3.63    0.14
   7  -1 -14    3.69    0.17
   7   1 -14    3.79    0.16
  -7   1  14    3.63    0.18
  -6  -1  14    6.37    0.19
   6  -1 -14    6.52    0.22
  -6  -1  14    6.57    0.24
   6   1 -14    5.98    0.21
  -6   1  14    6.08    0.24
   5  -1 -14   -0.01    0.05
  -5  -1  14    0.03    0.06
  -5  -1  14   -0.01    0.04
  -5   1  14    0.03    0.07
   5   1 -14    0.00    0.04
   4  -1 -14    1.40    0.11
  -4  -1  14    1.39    0.12
  -4   1  14    1.37    0.12
   4   1 -14    1.49    0.10
   3  -1 -14    4.32    0.17
  -3  -1  14    4.10    0.18
   3   1 -14    4.17    0.15
  -3   1  14    4.33    0.19
   2  -1 -14   14.05    0.38
  -2  -1  14   14.82    0.40
  -2   1  14   14.96    0.41
   2   1 -14   14.73    0.36
   1  -1 -14   22.85    0.55
  -1  -1  14   23.39    0.57
   1   1 -14   22.76    0.53
  -1   1  14   22.25    0.57
   0  -1 -14    3.12    0.14
   0  -1  14    3.14    0.15
   0   1  14    3.31    0.16
   0   1 -14    3.13    0.13
   1  -1  14    0.13    0.05
  -1  -1 -14    0.08    0.05
  -1   1 -14    0.07    0.04
   1   1  14    0.13    0.06
  -2  -1 -14    2.12    0.12
   2  -1  14    2.09    0.13
   2   1  14    2.08    0.13
  -2   1 -14    2.10    0.10
   3  -1  14    4.02    0.17
  -3  -1 -14    4.09    0.16
   3   1  14    3.92    0.17
  -3   1 -14    4.06    0.15
  -4  -1 -14   -0.03    0.04
   4  -1  14    0.03    0.05
   4   1  14   -0.02    0.04
  -5  -1 -14    2.34    0.13
   5  -1  14    2.20    0.13
   5   1  14    2.41    0.13
   6  -1  14    5.41    0.21
  -6  -1 -14    5.74    0.21
   6   1  14    5.86    0.22
  -7  -1 -14    4.95    0.19
   7  -1  14    4.83    0.20
   7   1  14    5.17    0.20
  -8  -1 -14   10.04    0.31
   8  -1  14    9.91    0.31
   8   1  14   10.03    0.31
  -9  -1 -14    0.40    0.08
   9  -1  14    0.42    0.07
  10  -1  14   10.13    0.32
 -10  -1 -14   10.88    0.33
  11  -1  14    1.44    0.12
 -11  -1 -14    1.26    0.12
 -12  -1 -14    0.17    0.07
 -13  -1 -14    0.25    0.09
 -15  -2  14    0.90    0.11
  15   2 -14    0.89    0.12
 -14  -2  14    0.94    0.11
  14  -2 -14    1.07    0.13
  14   2 -14    0.94    0.12
 -14   2  14    1.20    0.14
  13  -2 -14    0.15    0.08
 -13  -2  14    0.11    0.06
  13   2 -14    0.12    0.08
 -13   2  14    0.06    0.09
 -12  -2  14    3.06    0.16
  12  -2 -14    2.95    0.18
  12   2 -14    3.28    0.18
 -12   2  14    3.13    0.20
 -11  -2  14    9.20    0.30
  11  -2 -14   10.11    0.33
  11   2 -14    9.66    0.31
 -11   2  14    9.19    0.33
  10  -2 -14    1.74    0.14
 -10  -2  14    1.68    0.12
  10   2 -14    1.86    0.13
 -10   2  14    1.69    0.15
  -9  -2  14    4.29    0.19
   9  -2 -14    4.15    0.19
  -9  -2  14    4.01    0.17
  -9   2  14    4.24    0.21
   9   2 -14    4.07    0.17
   8  -2 -14    4.72    0.21
  -8  -2  14    4.86    0.18
  -8  -2  14    5.54    0.22
  -8   2  14    5.13    0.22
   8   2 -14    5.10    0.19
  -7  -2  14    5.32    0.21
  -7  -2  14    5.08    0.18
   7  -2 -14    5.37    0.21
   7   2 -14    5.27    0.19
  -7   2  14    5.48    0.23
  -6  -2  14    1.01    0.10
   6  -2 -14    1.18    0.11
  -6  -2  14    1.04    0.08
   6   2 -14    1.20    0.09
  -6   2  14    1.05    0.11
  -5  -2  14    3.02    0.13
   5  -2 -14    2.96    0.15
  -5  -2  14    3.13    0.16
   5   2 -14    3.15    0.13
  -5   2  14    2.93    0.17
   4  -2 -14    0.07    0.06
  -4  -2  14    0.04    0.05
  -4  -2  14   -0.02    0.04
  -4   2  14   -0.04    0.06
  -3  -2  14    0.14    0.06
  -3  -2  14    0.17    0.04
   3  -2 -14    0.18    0.06
  -3   2  14    0.12    0.07
  -2  -2  14    5.86    0.20
   2  -2 -14    5.40    0.20
  -2  -2  14    5.80    0.21
  -2   2  14    5.78    0.22
  -1  -2  14    2.81    0.14
   1  -2 -14    2.98    0.15
  -1   2  14    2.95    0.16
   0  -2 -14    0.13    0.06
   0  -2  14    0.28    0.07
   0   2  14    0.32    0.08
  -1  -2 -14   42.99    0.97
   1  -2  14   43.36    0.97
   1   2  14   43.18    0.99
   2  -2  14    6.53    0.23
  -2  -2 -14    6.13    0.22
   2   2  14    6.02    0.23
   3  -2  14    2.78    0.15
  -3  -2 -14    2.80    0.14
   3   2  14    3.14    0.16
   4  -2  14    0.33    0.07
  -4  -2 -14    0.41    0.07
   4   2  14    0.51    0.08
   5  -2  14    0.69    0.09
  -5  -2 -14    0.67    0.09
   5   2  14    0.84    0.09
  -6  -2 -14    4.88    0.20
   6   2  14    4.76    0.20
  -7  -2 -14    0.34    0.07
   7   2  14    0.35    0.07
  -8  -2 -14   -0.03    0.05
  -9  -2 -14    0.44    0.08
  -9   2 -14    0.48    0.08
 -10  -2 -14    0.00    0.06
 -11  -2 -14    0.31    0.08
 -12  -2 -14    1.34    0.13
 -14  -3  14    4.01    0.20
 -14   3  14    3.55    0.22
  13  -3 -14    0.02    0.07
 -13  -3  14    0.00    0.06
 -13   3  14   -0.13    0.08
  12  -3 -14    0.73    0.11
 -12  -3  14    0.74    0.10
 -12   3  14    0.65    0.11
  11  -3 -14    0.30    0.09
 -11  -3  14    0.31    0.07
 -11   3  14    0.17    0.09
  10  -3 -14    0.45    0.09
 -10  -3  14    0.32    0.07
 -10   3  14    0.57    0.11
  -9  -3  14    0.83    0.09
   9  -3 -14    1.11    0.12
  -9   3  14    0.97    0.12
  -8  -3  14    4.42    0.18
  -8  -3  14    4.05    0.19
   8  -3 -14    4.20    0.20
  -8   3  14    4.40    0.21
   7  -3 -14   26.88    0.67
  -7  -3  14   27.27    0.65
  -7  -3  14   26.65    0.64
  -7   3  14   27.06    0.68
   6  -3 -14   15.59    0.43
  -6  -3  14   14.79    0.40
  -6  -3  14   15.77    0.42
  -6   3  14   15.76    0.44
   5  -3 -14    0.04    0.06
  -5  -3  14   -0.01    0.05
  -5  -3  14    0.05    0.05
  -5   3  14    0.06    0.07
  -4  -3  14    0.17    0.06
  -4  -3  14    0.13    0.05
   4  -3 -14    0.09    0.06
  -4   3  14    0.14    0.08
  -3  -3  14    8.66    0.27
  -3  -3  14    8.18    0.24
   3  -3 -14    8.04    0.27
  -3   3  14    8.39    0.29
  -2  -3  14    5.99    0.22
   2  -3 -14    6.29    0.23
  -2  -3  14    6.21    0.20
  -2   3  14    6.28    0.24
   1  -3 -14    9.45    0.29
  -1  -3  14    8.98    0.28
  -1  -3  14    8.97    0.26
  -1   3  14    8.98    0.30
   0  -3 -14   10.91    0.32
   0  -3  14   10.55    0.32
   0  -3  14   10.44    0.29
   0   3  14   10.13    0.32
  -1  -3 -14   29.88    0.71
   1  -3  14   30.55    0.73
   1  -3  14   29.46    0.71
   1   3  14   28.97    0.71
  -2  -3 -14    1.17    0.11
   2   3  14    1.37    0.12
  -3  -3 -14    4.94    0.20
   3   3  14    4.99    0.21
  -4  -3 -14    0.37    0.07
  -4   3 -14    0.38    0.07
   4   3  14    0.30    0.07
  -5  -3 -14    0.40    0.08
  -5   3 -14    0.34    0.07
   5   3  14    0.36    0.07
  -6  -3 -14   20.87    0.54
  -6   3 -14   20.22    0.53
   6   3  14   20.15    0.59
  -7  -3 -14    6.60    0.25
  -7   3 -14    6.82    0.25
  -8  -3 -14    0.94    0.11
  -8   3 -14    0.86    0.10
  -9  -3 -14    0.06    0.07
  -9   3 -14    0.01    0.06
 -10  -3 -14    0.27    0.08
 -10   3 -14    0.14    0.07
 -11  -3 -14    0.81    0.11
 -11   3 -14    0.93    0.11
 -13  -4  14   -0.05    0.06
 -13   4  14   -0.09    0.08
  12  -4 -14    4.87    0.24
 -12  -4  14    4.33    0.21
 -12   4  14    4.34    0.25
  11  -4 -14   18.37    0.52
 -11  -4  14   17.91    0.50
 -11   4  14   17.81    0.53
  10  -4 -14    7.22    0.28
 -10  -4  14    6.97    0.26
 -10   4  14    7.30    0.30
   9  -4 -14    0.90    0.12
  -9  -4  14    0.97    0.11
  -9   4  14    1.00    0.13
  -8  -4  14    0.14    0.07
   8  -4 -14    0.00    0.06
  -8   4  14    0.10    0.08
   7  -4 -14    1.53    0.13
  -7  -4  14    1.51    0.12
  -7   4  14    1.35    0.14
  -6  -4  14    2.57    0.15
  -6  -4  14    2.72    0.15
   6  -4 -14    2.46    0.15
  -6   4  14    2.60    0.17
   5  -4 -14    0.35    0.08
  -5  -4  14    0.39    0.07
  -5  -4  14    0.33    0.07
  -5   4  14    0.21    0.08
  -4  -4  14    0.87    0.09
   4  -4 -14    0.91    0.10
  -4  -4  14    1.00    0.10
  -4   4  14    0.96    0.12
  -3  -4  14    0.98    0.09
   3  -4 -14    0.89    0.10
  -3  -4  14    0.79    0.09
  -3   4  14    0.83    0.10
   2  -4 -14    1.22    0.11
  -2  -4  14    1.43    0.12
  -2  -4  14    1.28    0.11
  -2   4  14    1.57    0.13
   1  -4 -14    4.95    0.21
  -1  -4  14    4.76    0.20
  -1  -4  14    4.62    0.18
  -1   4  14    5.01    0.21
   0  -4  14    1.61    0.12
   0  -4  14    1.68    0.12
   0  -4 -14    1.29    0.11
   0   4  14    1.61    0.14
   1  -4  14   13.50    0.37
  -1  -4 -14   13.43    0.39
   1   4  14   13.91    0.40
  -2  -4 -14    0.71    0.10
   2  -4  14    0.39    0.07
  -2   4 -14    0.72    0.09
   2   4  14    0.48    0.08
   3  -4  14   28.92    0.70
  -3  -4 -14   29.71    0.72
   3   4  14   30.11    0.72
  -3   4 -14   29.51    0.72
  -4  -4 -14    4.63    0.21
  -4   4 -14    5.07    0.21
   4   4  14    4.54    0.20
  -5  -4 -14    3.64    0.18
  -5   4 -14    3.57    0.18
  -6  -4 -14    0.09    0.07
  -6   4 -14   -0.03    0.06
  -7  -4 -14    0.36    0.09
  -7   4 -14    0.33    0.08
  -8  -4 -14    6.51    0.26
  -8   4 -14    6.37    0.26
  -9  -4 -14    2.90    0.18
  -9   4 -14    2.72    0.17
 -10   4 -14    1.81    0.17
 -12  -5  14    0.82    0.14
 -11  -5  14    3.28    0.19
  11  -5 -14    3.06    0.19
 -11   5  14    2.91    0.21
  10  -5 -14    0.24    0.09
 -10  -5  14    0.50    0.10
 -10   5  14    0.22    0.09
   9  -5 -14    2.93    0.18
  -9  -5  14    3.25    0.19
  -9   5  14    3.14    0.21
  -8  -5  14    0.01    0.07
   8  -5 -14    0.00    0.06
  -8   5  14   -0.04    0.07
  -7  -5  14    0.67    0.10
   7  -5 -14    0.64    0.10
  -7   5  14    1.04    0.13
  -6  -5  14    0.25    0.08
   6  -5 -14    0.36    0.08
  -6   5  14    0.33    0.10
  -5  -5  14    0.81    0.10
  -5  -5  14    0.90    0.09
   5  -5 -14    0.71    0.10
  -5   5  14    0.87    0.12
  -4  -5  14    4.46    0.19
  -4  -5  14    4.48    0.19
   4  -5 -14    4.44    0.21
  -4   5  14    4.60    0.22
   3  -5 -14    1.28    0.12
  -3  -5  14    1.05    0.11
  -3  -5  14    1.15    0.10
  -3   5  14    1.17    0.13
  -2  -5  14    0.13    0.06
  -2  -5  14   -0.06    0.06
   2  -5 -14    0.09    0.06
  -2   5  14    0.05    0.07
  -1  -5  14    0.12    0.07
   1  -5 -14    0.15    0.07
  -1   5  14    0.05    0.07
   0  -5  14    0.24    0.07
   0  -5 -14    0.24    0.07
   0   5 -14    0.09    0.06
   0   5  14    0.26    0.08
  -1  -5 -14    0.36    0.08
   1  -5  14    0.41    0.08
  -1   5 -14    0.37    0.08
   1   5  14    0.46    0.09
   2  -5  14    0.77    0.10
  -2  -5 -14    0.79    0.10
  -2   5 -14    0.60    0.09
   2   5  14    0.67    0.10
   3  -5  14    0.18    0.07
  -3  -5 -14    0.15    0.07
  -3   5 -14    0.29    0.07
   3   5  14    0.13    0.08
   4  -5  14    0.20    0.07
  -4  -5 -14    0.15    0.07
  -4   5 -14    0.25    0.07
  -5  -5 -14   -0.08    0.06
   5  -5  14    0.02    0.07
  -5   5 -14    0.00    0.06
  -6  -5 -14    0.11    0.07
  -6   5 -14    0.01    0.07
  -7  -5 -14    0.22    0.08
  -7   5 -14    0.19    0.08
  -8  -5 -14    1.19    0.13
  -8   5 -14    0.97    0.12
  -9  -6  14    3.02    0.20
   9  -6 -14    3.06    0.19
  -8  -6  14    0.02    0.08
   8  -6 -14   -0.07    0.06
  -8   6  14   -0.02    0.08
  -7  -6  14    6.41    0.26
   7  -6 -14    6.39    0.27
  -7   6  14    6.29    0.28
   6  -6 -14    0.01    0.07
  -6  -6  14    0.07    0.08
  -6   6  14   -0.07    0.08
   5  -6 -14    0.02    0.07
  -5  -6  14    0.01    0.07
  -5   6  14   -0.12    0.07
   4  -6 -14   -0.03    0.06
  -4  -6  14    0.01    0.07
  -4   6  14    0.02    0.07
   3  -6 -14    2.62    0.17
  -3  -6  14    2.47    0.16
  -3  -6  14    2.61    0.16
  -3   6  14    2.62    0.18
  -2  -6  14    2.36    0.15
   2  -6 -14    2.04    0.15
  -2  -6  14    1.69    0.14
  -2   6  14    1.98    0.16
   1  -6 -14    0.70    0.10
  -1  -6  14    0.71    0.10
  -1   6  14    0.62    0.11
   0  -6  14    3.19    0.18
   0  -6 -14    3.08    0.18
   0   6  14    3.41    0.19
   0   6 -14    3.46    0.18
  -1  -6 -14    6.11    0.25
   1  -6  14    5.92    0.24
  -1   6 -14    6.26    0.24
   1   6  14    5.63    0.25
   2  -6  14    2.92    0.18
  -2  -6 -14    2.80    0.17
  -2   6 -14    3.12    0.17
   3  -6  14    9.05    0.31
  -3  -6 -14    9.63    0.33
  -3   6 -14    9.27    0.32
  -4  -6 -14    7.81    0.29
   4  -6  14    7.53    0.29
  -4   6 -14    7.79    0.29
  -5  -6 -14    0.07    0.07
   5  -6  14    0.08    0.07
  -5   6 -14    0.11    0.07
  -6  -6 -14    0.13    0.12
   6  -6  14    0.10    0.09
  -6   6 -14    0.09    0.11
   6  -7 -14    6.93    0.35
  -6  -7  14    6.55    0.29
   5  -7 -14    3.67    0.21
  -5  -7  14    3.54    0.20
  -5   7  14    3.45    0.22
   4  -7 -14   -0.06    0.07
  -4  -7  14    0.02    0.08
  -4   7  14   -0.02    0.08
  -3  -7  14    0.40    0.10
   3  -7 -14    0.40    0.09
  -3   7  14    0.16    0.09
   2  -7 -14    5.13    0.24
  -2  -7  14    4.95    0.24
  -2   7  14    5.27    0.25
  -1  -7  14   10.84    0.37
   1  -7 -14   11.73    0.38
  -1   7  14   10.64    0.37
   1   7 -14   10.70    0.34
   0  -7  14    6.68    0.28
   0  -7 -14    6.88    0.28
   0   7 -14    6.73    0.26
  -1  -7 -14    0.03    0.07
   1  -7  14    0.08    0.08
  -1   7 -14   -0.02    0.06
   2  -7  14    0.98    0.12
  -2  -7 -14    1.04    0.14
  -2   7 -14    0.99    0.12
   3  -7  14    0.23    0.09
   4  -7  14    0.15    0.09
   5  -7  14    2.04    0.22
  14   0 -15    0.18    0.09
  13   0 -15    0.02    0.08
  12   0 -15   -0.19    0.06
 -12   0  15   -0.06    0.08
 -11   0  15   -0.15    0.06
  11   0 -15    0.01    0.07
  10   0 -15    0.04    0.07
 -10   0  15    0.04    0.07
   9   0 -15   -0.03    0.06
  -9   0  15   -0.05    0.07
  -8   0  15   -0.02    0.07
   8   0 -15    0.02    0.06
  -7   0  15   -0.07    0.06
   7   0 -15    0.11    0.06
   6   0 -15    0.00    0.05
  -6   0  15    0.00    0.07
  -5   0  15    0.06    0.07
   5   0 -15   -0.08    0.04
   4   0 -15    0.00    0.05
  -4   0  15   -0.08    0.06
  -3   0  15    0.02    0.06
   3   0 -15   -0.06    0.04
  -2   0  15   -0.05    0.05
   2   0 -15   -0.02    0.04
   1   0 -15    0.01    0.04
  -1   0  15    0.04    0.06
   0   0 -15    0.06    0.05
   0   0  15   -0.02    0.05
  -1   0 -15    0.04    0.04
   1   0  15    0.04    0.05
   2   0  15    0.02    0.05
  -2   0 -15    0.02    0.04
   3   0  15    0.05    0.05
  -3   0 -15    0.01    0.04
  -4   0 -15   -0.01    0.04
   4   0  15    0.04    0.05
  -5   0 -15    0.01    0.04
   5   0  15    0.00    0.05
   6   0  15    0.03    0.05
  -6   0 -15   -0.01    0.04
  -7   0 -15    0.00    0.05
   7   0  15   -0.01    0.05
   8   0  15    0.01    0.05
   9   0  15    0.12    0.06
 -15  -1  15    6.66    0.26
  15   1 -15    6.63    0.34
  14  -1 -15    7.61    0.30
 -14  -1  15    7.70    0.28
  14   1 -15    7.72    0.30
  13  -1 -15    4.97    0.24
 -13  -1  15    4.90    0.21
 -13   1  15    4.57    0.24
  13   1 -15    4.85    0.23
  12  -1 -15    0.37    0.09
 -12  -1  15    0.56    0.08
 -12   1  15    0.42    0.10
  12   1 -15    0.40    0.09
 -11  -1  15   -0.03    0.04
 -11  -1  15   -0.03    0.08
  11  -1 -15   -0.03    0.07
  11   1 -15    0.04    0.07
 -11   1  15    0.04    0.08
  10  -1 -15    0.17    0.07
 -10  -1  15    0.16    0.08
 -10  -1  15    0.15    0.05
  10   1 -15    0.19    0.07
 -10   1  15    0.08    0.08
   9  -1 -15    3.35    0.17
  -9  -1  15    3.46    0.18
  -9   1  15    3.07    0.19
   9   1 -15    3.26    0.16
  -8  -1  15    0.36    0.09
   8  -1 -15    0.41    0.08
   8   1 -15    0.59    0.08
  -8   1  15    0.39    0.09
   7  -1 -15    1.79    0.13
  -7  -1  15    1.82    0.15
  -7   1  15    1.93    0.15
   7   1 -15    1.94    0.12
  -6  -1  15    7.83    0.27
   6  -1 -15    7.58    0.25
  -6   1  15    7.34    0.27
   6   1 -15    7.76    0.24
   5  -1 -15    0.25    0.06
  -5  -1  15    0.17    0.07
   5   1 -15    0.17    0.05
  -5   1  15    0.17    0.07
   4  -1 -15    0.70    0.09
  -4  -1  15    0.67    0.10
   4   1 -15    0.75    0.08
  -4   1  15    0.70    0.10
  -3  -1  15   -0.01    0.05
   3  -1 -15    0.00    0.05
   3   1 -15   -0.01    0.04
  -3   1  15    0.09    0.07
   2  -1 -15   22.87    0.55
  -2  -1  15   22.67    0.57
  -2   1  15   21.81    0.57
   2   1 -15   22.25    0.53
  -1  -1  15   38.68    0.88
   1  -1 -15   37.59    0.85
  -1   1  15   36.36    0.87
   1   1 -15   37.66    0.83
   0  -1 -15   28.51    0.66
   0  -1  15   27.50    0.67
   0   1  15   27.22    0.67
   0   1 -15   27.18    0.62
   1  -1  15    1.86    0.13
  -1  -1 -15    2.12    0.12
   1   1  15    1.81    0.14
  -2  -1 -15    0.20    0.06
   2  -1  15    0.16    0.06
   2   1  15    0.15    0.06
   3  -1  15    0.72    0.09
  -3  -1 -15    0.75    0.08
   3   1  15    0.60    0.09
   4  -1  15   25.78    0.64
  -4  -1 -15   25.90    0.62
   4   1  15   26.12    0.64
   5  -1  15    0.57    0.08
  -5  -1 -15    0.37    0.07
   5   1  15    0.49    0.08
   6  -1  15    0.63    0.08
  -6  -1 -15    0.52    0.08
   6   1  15    0.65    0.09
   7  -1  15    0.03    0.05
  -7  -1 -15    0.10    0.06
   7   1  15    0.07    0.05
  -8  -1 -15    1.01    0.10
   8  -1  15    1.04    0.10
   8   1  15    0.64    0.09
  -9  -1 -15    0.07    0.06
   9  -1  15    0.09    0.06
 -10  -1 -15    0.11    0.07
  10  -1  15    0.31    0.07
 -11  -1 -15    1.15    0.12
 -12  -1 -15    1.83    0.20
 -15  -2  15    0.23    0.08
  15   2 -15    0.36    0.11
 -14  -2  15    0.58    0.09
  14   2 -15    0.52    0.10
 -14   2  15    0.59    0.12
  13  -2 -15    0.23    0.09
 -13  -2  15    0.29    0.07
 -13   2  15    0.18    0.10
  13   2 -15    0.44    0.10
 -12  -2  15    2.05    0.14
  12  -2 -15    2.09    0.17
 -12   2  15    2.15    0.18
  12   2 -15    2.18    0.16
  11  -2 -15    8.33    0.30
 -11  -2  15    8.10    0.27
 -11   2  15    8.21    0.31
  11   2 -15    8.81    0.29
 -10  -2  15    9.98    0.31
  10  -2 -15   10.48    0.34
  10   2 -15   10.17    0.32
 -10   2  15   10.84    0.35
   9  -2 -15    3.85    0.19
  -9  -2  15    3.63    0.16
  -9  -2  15    3.88    0.19
  -9   2  15    3.87    0.21
   9   2 -15    3.94    0.17
  -8  -2  15    0.91    0.09
   8  -2 -15    0.88    0.10
  -8  -2  15    0.79    0.10
   8   2 -15    1.02    0.10
  -8   2  15    0.87    0.11
   7  -2 -15    3.62    0.18
  -7  -2  15    3.38    0.18
  -7  -2  15    3.53    0.15
  -7   2  15    3.67    0.20
   6  -2 -15    6.33    0.24
  -6  -2  15    6.51    0.25
  -6  -2  15    6.23    0.24
  -6   2  15    6.30    0.25
  -5  -2  15   12.43    0.36
   5  -2 -15   11.61    0.35
  -5   2  15   12.30    0.37
  -4  -2  15   12.36    0.37
   4  -2 -15   13.08    0.37
  -4   2  15   12.74    0.38
  -3  -2  15    2.65    0.15
   3  -2 -15    2.48    0.14
  -3   2  15    2.15    0.15
   2  -2 -15    2.18    0.13
  -2  -2  15    2.10    0.13
  -2   2  15    2.25    0.15
   1  -2 -15    0.01    0.05
  -1  -2  15   -0.01    0.05
  -1   2  15    0.09    0.07
   0  -2  15    1.56    0.12
   0  -2 -15    1.37    0.12
   0   2  15    1.22    0.12
   1  -2  15    0.52    0.08
  -1  -2 -15    0.53    0.08
   1   2  15    0.54    0.09
  -2  -2 -15    0.32    0.07
   2  -2  15    0.44    0.07
   2   2  15    0.48    0.08
  -3  -2 -15   32.93    0.77
   3  -2  15   31.96    0.77
   3   2  15   32.88    0.78
   4  -2  15    0.31    0.07
  -4  -2 -15    0.33    0.07
   4   2  15    0.41    0.08
  -5  -2 -15    7.78    0.26
   5  -2  15    7.83    0.27
   5   2  15    7.75    0.27
  -6  -2 -15    0.27    0.07
   6  -2  15    0.28    0.07
   6   2  15    0.26    0.07
  -7  -2 -15    0.97    0.10
   7  -2  15    0.88    0.10
   7   2  15    0.89    0.10
   8  -2  15   13.07    0.39
  -8  -2 -15   12.66    0.38
   9  -2  15   23.60    0.61
  -9  -2 -15   23.75    0.61
  10  -2  15   18.35    0.51
 -10  -2 -15   19.28    0.52
  11  -2  15    0.04    0.06
 -11  -2 -15    0.06    0.07
 -14  -3  15    2.22    0.16
 -14   3  15    2.56    0.29
  13  -3 -15    0.02    0.08
 -13  -3  15    0.02    0.06
 -13   3  15   -0.13    0.08
  12  -3 -15    0.01    0.08
 -12  -3  15    0.04    0.06
 -12   3  15   -0.05    0.08
 -11  -3  15   -0.10    0.05
  11  -3 -15   -0.01    0.07
 -11   3  15    0.09    0.09
 -10  -3  15    0.53    0.08
  10  -3 -15    0.56    0.10
  -9  -3  15    0.19    0.06
   9  -3 -15    0.37    0.09
  -9   3  15    0.47    0.11
   8  -3 -15    0.90    0.11
  -8  -3  15    0.96    0.10
  -8  -3  15    0.78    0.09
  -8   3  15    0.77    0.12
  -7  -3  15    0.40    0.07
   7  -3 -15    0.40    0.08
  -7  -3  15    0.50    0.09
  -7   3  15    0.52    0.10
  -6  -3  15    2.87    0.16
  -6  -3  15    2.83    0.14
   6  -3 -15    2.55    0.16
  -6   3  15    2.92    0.18
  -5  -3  15    1.75    0.11
  -5  -3  15    1.70    0.14
   5  -3 -15    1.63    0.13
  -5   3  15    1.81    0.15
  -4  -3  15    7.20    0.25
   4  -3 -15    7.17    0.25
  -4  -3  15    6.89    0.22
  -4   3  15    6.95    0.27
   3  -3 -15    7.86    0.27
  -3  -3  15    7.74    0.30
  -3  -3  15    7.97    0.26
  -3   3  15    7.91    0.28
   2  -3 -15    1.95    0.13
  -2  -3  15    2.15    0.14
  -2   3  15    1.93    0.15
  -1  -3  15    6.49    0.23
   1  -3 -15    6.28    0.24
  -1   3  15    6.58    0.25
   0  -3 -15    0.76    0.09
   0  -3  15    1.00    0.10
   0   3  15    0.85    0.11
  -1  -3 -15    7.34    0.26
   1  -3  15    7.10    0.25
   1   3  15    7.31    0.26
   2  -3  15    1.45    0.12
  -2  -3 -15    1.72    0.13
   2   3  15    1.67    0.13
  -3  -3 -15    3.27    0.17
   3  -3  15    3.06    0.17
   3   3  15    3.12    0.17
  -4  -3 -15    2.49    0.15
   4   3  15    2.32    0.16
  -5  -3 -15    5.19    0.22
   5   3  15    5.27    0.22
  -6  -3 -15    2.56    0.17
  -6   3 -15    2.79    0.16
  -7  -3 -15    7.35    0.28
  -7   3 -15    7.75    0.28
  -8  -3 -15    2.53    0.16
  -8   3 -15    2.83    0.17
  -9  -3 -15    0.13    0.07
  -9   3 -15    0.27    0.08
 -10  -3 -15    1.71    0.15
 -10   3 -15    1.76    0.15
 -13  -4  15    0.11    0.08
 -12  -4  15    0.23    0.08
  12  -4 -15    0.16    0.14
 -12   4  15    0.29    0.11
  11  -4 -15    3.54    0.20
 -11  -4  15    3.50    0.18
 -11   4  15    3.31    0.21
  10  -4 -15    2.02    0.16
 -10  -4  15    1.92    0.15
 -10   4  15    1.83    0.17
   9  -4 -15    2.38    0.17
  -9  -4  15    2.43    0.15
  -9   4  15    2.41    0.19
   8  -4 -15    1.71    0.15
  -8  -4  15    1.74    0.14
  -8   4  15    1.39    0.15
  -7  -4  15    2.45    0.15
   7  -4 -15    2.52    0.16
  -7   4  15    2.55    0.18
  -6  -4  15    7.52    0.26
  -6  -4  15    7.96    0.27
   6  -4 -15    8.05    0.28
  -6   4  15    7.25    0.29
  -5  -4  15    6.61    0.24
  -5  -4  15    6.56    0.23
   5  -4 -15    6.20    0.25
  -5   4  15    6.61    0.27
   4  -4 -15    5.17    0.22
  -4  -4  15    4.65    0.19
  -4  -4  15    4.86    0.20
  -4   4  15    4.50    0.22
  -3  -4  15    0.81    0.09
  -3  -4  15    1.05    0.10
   3  -4 -15    0.75    0.10
  -3   4  15    1.04    0.12
   2  -4 -15   -0.02    0.05
  -2  -4  15   -0.03    0.05
  -2  -4  15    0.04    0.05
  -2   4  15    0.03    0.07
  -1  -4  15    0.01    0.05
   1  -4 -15    0.05    0.06
  -1  -4  15    0.02    0.05
  -1   4  15    0.07    0.07
   0  -4 -15    3.62    0.18
   0  -4  15    3.78    0.18
   0   4  15    3.40    0.19
  -1  -4 -15    0.23    0.07
   1  -4  15    0.26    0.07
   1   4  15    0.17    0.07
  -2  -4 -15   -0.11    0.05
   2   4  15   -0.01    0.06
  -3  -4 -15    2.52    0.15
  -3   4 -15    2.57    0.15
   3   4  15    2.47    0.15
  -4  -4 -15    7.36    0.27
   4   4  15    6.76    0.26
  -4   4 -15    7.19    0.26
  -5  -4 -15   11.99    0.37
  -5   4 -15   11.70    0.37
  -6  -4 -15    0.05    0.07
  -6   4 -15    0.01    0.06
  -7  -4 -15   30.96    0.76
  -7   4 -15   29.30    0.75
  -8  -4 -15    4.39    0.22
  -8   4 -15    5.05    0.23
  -9  -4 -15    2.93    0.28
  -9   4 -15    1.97    0.20
 -11  -5  15    0.20    0.08
 -10  -5  15    4.77    0.23
  10  -5 -15    4.99    0.24
 -10   5  15    5.74    0.27
   9  -5 -15    1.66    0.15
  -9  -5  15    1.40    0.14
  -9   5  15    1.51    0.16
   8  -5 -15    0.20    0.08
  -8  -5  15    0.16    0.08
  -8   5  15   -0.03    0.09
   7  -5 -15    1.72    0.15
  -7  -5  15    1.90    0.14
  -7   5  15    1.78    0.17
  -6  -5  15    1.22    0.12
   6  -5 -15    1.21    0.13
  -6   5  15    1.21    0.14
   5  -5 -15    0.33    0.08
  -5  -5  15    0.41    0.08
  -5  -5  15    0.38    0.08
  -5   5  15    0.29    0.10
  -4  -5  15    2.06    0.14
   4  -5 -15    1.73    0.15
  -4  -5  15    1.97    0.13
  -4   5  15    1.78    0.16
  -3  -5  15    0.66    0.09
  -3  -5  15    0.77    0.10
   3  -5 -15    0.47    0.09
  -3   5  15    0.53    0.10
   2  -5 -15    8.75    0.30
  -2  -5  15    8.30    0.28
  -2  -5  15    7.89    0.27
  -2   5  15    8.47    0.31
   1  -5 -15    3.58    0.19
  -1  -5  15    3.71    0.18
  -1  -5  15    3.73    0.18
  -1   5  15    3.88    0.20
   0  -5 -15   24.11    0.63
   0  -5  15   23.92    0.60
   0  -5  15   24.62    0.62
   0   5  15   23.99    0.63
   1  -5  15   12.39    0.36
  -1  -5 -15   12.00    0.38
   1   5  15   12.30    0.38
  -2  -5 -15    0.29    0.08
   2   5  15    0.13    0.08
  -2   5 -15    0.13    0.07
  -3  -5 -15    0.13    0.07
  -3   5 -15    0.32    0.08
  -4  -5 -15    0.68    0.10
  -4   5 -15    0.82    0.11
  -5  -5 -15    0.78    0.11
  -5   5 -15    0.77    0.10
  -6  -5 -15    2.79    0.18
  -6   5 -15    3.15    0.18
  -7  -5 -15    3.01    0.24
  -7   5 -15    2.88    0.28
  -9  -6  15    2.50    0.20
  -8  -6  15    0.00    0.07
   8  -6 -15    0.07    0.12
   7  -6 -15    0.74    0.12
  -7  -6  15    0.71    0.11
  -7   6  15    0.65    0.12
  -6  -6  15    2.26    0.17
   6  -6 -15    2.65    0.18
  -6   6  15    2.29    0.19
   5  -6 -15    9.20    0.33
  -5  -6  15    9.31    0.32
  -5   6  15    9.64    0.35
  -4  -6  15    3.25    0.18
   4  -6 -15    3.15    0.20
  -4   6  15    2.76    0.19
  -3  -6  15    0.01    0.06
   3  -6 -15    0.08    0.07
  -3  -6  15   -0.10    0.07
  -3   6  15   -0.14    0.07
  -2  -6  15    0.20    0.08
   2  -6 -15    0.32    0.08
  -2  -6  15    0.29    0.08
  -2   6  15    0.36    0.10
  -1  -6  15    0.13    0.08
   1  -6 -15    0.14    0.08
  -1  -6  15    0.37    0.08
  -1   6  15    0.15    0.09
   0  -6 -15    1.37    0.14
   0  -6  15    1.01    0.11
   0   6  15    1.24    0.14
   1  -6  15    0.91    0.11
  -1  -6 -15    0.97    0.12
   1   6  15    0.72    0.11
  -1   6 -15    1.00    0.11
  -2  -6 -15    0.98    0.12
   2  -6  15    0.98    0.12
  -2   6 -15    0.87    0.11
  -3  -6 -15    6.26    0.26
  -3   6 -15    6.48    0.26
  -4  -6 -15    8.92    0.33
  -4   6 -15    8.58    0.31
  -5  -7  15    9.28    0.39
  -4  -7  15   -0.03    0.08
  -4   7  15   -0.06    0.09
  -3  -7  15    2.97    0.20
  -3   7  15    2.98    0.21
  -2  -7  15    8.18    0.30
  -2   7  15    7.43    0.31
  -1  -7  15   -0.02    0.08
  -1   7  15   -0.07    0.08
   0  -7  15    0.22    0.09
   0   7 -15    0.36    0.09
   1  -7  15    0.01    0.07
  -1   7 -15    0.10    0.08
   2  -7  15    0.32    0.09
   3  -7  15    0.49    0.11
  14   0 -16    0.64    0.12
  13   0 -16    0.11    0.08
  12   0 -16    0.71    0.11
 -12   0  16    0.53    0.11
 -11   0  16    0.72    0.11
  11   0 -16    0.80    0.11
 -10   0  16    2.16    0.17
  10   0 -16    2.24    0.15
   9   0 -16   14.23    0.41
  -9   0  16   14.71    0.43
  -8   0  16   13.28    0.40
   8   0 -16   13.14    0.38
  -7   0  16    1.77    0.15
   7   0 -16    1.96    0.13
  -6   0  16    1.71    0.15
   6   0 -16    1.59    0.12
   5   0 -16   17.11    0.44
  -5   0  16   17.37    0.48
   4   0 -16   29.88    0.70
  -4   0  16   29.90    0.74
   3   0 -16    5.54    0.20
  -3   0  16    5.61    0.23
   2   0 -16    7.70    0.24
  -2   0  16    7.59    0.27
  -1   0  16    0.37    0.08
   1   0 -16    0.35    0.06
   0   0  16    0.66    0.09
   0   0 -16    0.54    0.07
   1   0  16   19.06    0.51
  -1   0 -16   19.27    0.47
   2   0  16    0.75    0.10
  -2   0 -16    0.67    0.07
   3   0  16    0.04    0.06
  -3   0 -16    0.14    0.05
   4   0  16    6.16    0.24
  -4   0 -16    6.21    0.21
  -5   0 -16    2.85    0.16
   5   0  16    2.72    0.15
   6   0  16    0.31    0.07
   7   0  16    9.20    0.30
   8   0  16    3.03    0.17
   9   0  16    4.20    0.19
  14   1 -16    0.31    0.10
  13  -1 -16    3.98    0.22
  13   1 -16    4.00    0.21
 -13   1  16    3.88    0.22
  12  -1 -16    0.18    0.08
 -12   1  16    0.03    0.09
  12   1 -16   -0.05    0.07
  11  -1 -16    0.19    0.08
 -11  -1  16    0.21    0.10
 -11   1  16    0.11    0.09
  11   1 -16    0.06    0.07
  10  -1 -16    2.60    0.17
 -10  -1  16    2.50    0.18
  10   1 -16    2.92    0.17
 -10   1  16    2.62    0.19
  -9  -1  16    0.05    0.08
   9  -1 -16    0.10    0.07
  -9   1  16    0.00    0.08
   9   1 -16   -0.02    0.06
  -8  -1  16   12.71    0.39
   8  -1 -16   12.69    0.38
  -8   1  16   12.68    0.39
   8   1 -16   13.25    0.37
  -7  -1  16    0.83    0.11
   7  -1 -16    1.01    0.11
   7   1 -16    0.84    0.09
  -7   1  16    0.80    0.11
  -6  -1  16    0.03    0.07
   6  -1 -16    0.00    0.06
   6   1 -16   -0.01    0.05
  -6   1  16    0.01    0.07
  -5  -1  16    0.43    0.08
   5  -1 -16    0.47    0.08
  -5   1  16    0.31    0.09
   5   1 -16    0.42    0.07
  -4  -1  16    1.13    0.12
   4  -1 -16    1.17    0.10
   4   1 -16    1.13    0.09
  -4   1  16    1.00    0.12
   3  -1 -16    4.04    0.18
  -3  -1  16    4.28    0.20
  -3   1  16    4.27    0.21
   3   1 -16    4.14    0.16
  -2  -1  16    0.10    0.07
   2  -1 -16    0.10    0.06
   2   1 -16    0.03    0.06
  -2   1  16    0.13    0.07
   1  -1 -16    0.63    0.08
  -1  -1  16    0.47    0.08
  -1   1  16    0.71    0.10
   0  -1 -16   11.56    0.33
   0  -1  16   11.32    0.35
   0   1  16   11.25    0.35
   1  -1  16    5.62    0.22
  -1  -1 -16    5.46    0.20
   1   1  16    5.45    0.23
   2  -1  16    1.77    0.13
  -2  -1 -16    1.52    0.12
   2   1  16    1.68    0.13
   3  -1  16    0.25    0.07
  -3  -1 -16    0.20    0.06
   3   1  16    0.35    0.08
  -4  -1 -16    8.48    0.27
   4  -1  16    7.93    0.28
   4   1  16    8.76    0.29
   5  -1  16    3.87    0.18
  -5  -1 -16    3.78    0.17
   5   1  16    3.91    0.19
   6  -1  16   11.98    0.36
  -6  -1 -16   12.08    0.35
   6   1  16   12.02    0.37
  -7  -1 -16    5.15    0.21
   7  -1  16    4.74    0.21
   7   1  16    5.06    0.21
  -8  -1 -16    0.22    0.07
   8  -1  16    0.27    0.07
   8   1  16    0.29    0.07
   9  -1  16    0.42    0.08
  -9  -1 -16    0.18    0.07
  10  -1  16    0.19    0.07
 -10  -1 -16    0.13    0.07
 -14   2  16    0.21    0.10
  13  -2 -16    0.41    0.10
 -13   2  16    0.33    0.11
  12  -2 -16    0.13    0.08
 -12   2  16   -0.08    0.09
  11  -2 -16    1.07    0.12
 -11   2  16    1.20    0.14
  10  -2 -16    0.17    0.08
 -10   2  16    0.03    0.09
   9  -2 -16   -0.10    0.06
  -9  -2  16    0.00    0.07
  -9   2  16    0.15    0.09
  -8  -2  16    0.04    0.07
   8  -2 -16    0.03    0.06
  -8   2  16    0.00    0.08
   7  -2 -16    0.06    0.06
  -7  -2  16    0.10    0.07
  -7   2  16   -0.05    0.08
   6  -2 -16    0.44    0.08
  -6  -2  16    0.55    0.09
  -6   2  16    0.47    0.10
   5  -2 -16    1.89    0.14
  -5  -2  16    2.27    0.15
  -5   2  16    2.06    0.16
  -4  -2  16    0.17    0.07
   4  -2 -16    0.29    0.07
  -4   2  16    0.23    0.08
  -3  -2  16    4.17    0.19
   3  -2 -16    4.43    0.19
  -3   2  16    4.42    0.21
   2  -2 -16    0.75    0.09
  -2  -2  16    0.99    0.11
  -2   2  16    0.55    0.10
  -1  -2  16    0.27    0.07
   1  -2 -16    0.35    0.07
  -1   2  16    0.38    0.09
   0  -2  16    0.71    0.09
   0  -2 -16    0.69    0.09
   0   2  16    0.60    0.09
   1  -2  16    0.33    0.07
  -1  -2 -16    0.54    0.08
   1   2  16    0.49    0.09
   2  -2  16    6.84    0.25
  -2  -2 -16    6.91    0.24
   2   2  16    7.02    0.27
  -3  -2 -16    1.53    0.12
   3  -2  16    1.75    0.13
   3   2  16    1.81    0.14
  -4  -2 -16    0.23    0.07
   4  -2  16    0.22    0.07
   4   2  16    0.33    0.08
  -5  -2 -16    1.09    0.11
   5  -2  16    1.01    0.11
   5   2  16    1.11    0.11
  -6  -2 -16    0.10    0.06
   6   2  16    0.21    0.07
   7  -2  16    0.33    0.08
  -7  -2 -16    0.31    0.08
   7   2  16    0.28    0.11
   8  -2  16    4.19    0.20
  -8  -2 -16    4.27    0.20
   9  -2  16    1.82    0.15
  -9  -2 -16    1.77    0.15
  10  -2  16    0.14    0.07
 -10  -2 -16    0.09    0.07
  11  -2  16    2.97    0.26
 -13  -3  16    1.84    0.14
 -13   3  16    1.95    0.27
  12  -3 -16   -0.01    0.07
 -12  -3  16   -0.03    0.05
 -12   3  16   -0.07    0.09
  11  -3 -16    0.04    0.07
 -11  -3  16    0.05    0.06
 -11   3  16   -0.04    0.08
 -10  -3  16    3.42    0.17
  10  -3 -16    3.45    0.20
 -10   3  16    3.67    0.22
   9  -3 -16    4.25    0.21
  -9  -3  16    4.20    0.18
  -9   3  16    3.94    0.22
   8  -3 -16    6.75    0.26
  -8  -3  16    6.54    0.33
  -8  -3  16    6.75    0.26
  -8   3  16    6.86    0.29
  -7  -3  16    2.33    0.15
   7  -3 -16    2.18    0.15
  -7   3  16    2.07    0.17
   6  -3 -16    0.15    0.07
  -6  -3  16    0.37    0.08
  -6   3  16    0.28    0.09
  -5  -3  16    0.05    0.06
   5  -3 -16    0.20    0.07
  -5   3  16    0.07    0.08
   4  -3 -16    1.58    0.13
  -4  -3  16    1.54    0.13
  -4   3  16    1.66    0.15
  -3  -3  16    1.49    0.13
   3  -3 -16    1.45    0.13
  -3   3  16    1.25    0.13
   2  -3 -16   11.79    0.35
  -2  -3  16   10.89    0.34
  -2   3  16   11.27    0.36
  -1  -3  16    0.45    0.08
   1  -3 -16    0.65    0.10
  -1   3  16    0.44    0.09
   0  -3  16    9.95    0.31
   0  -3 -16    9.65    0.31
   0   3  16    9.17    0.32
  -1  -3 -16    1.79    0.14
   1  -3  16    1.60    0.13
   1   3  16    1.67    0.14
  -2  -3 -16    0.10    0.07
   2  -3  16   -0.05    0.06
   2   3  16    0.27    0.08
  -3  -3 -16    0.50    0.09
   3  -3  16    0.47    0.08
   3   3  16    0.59    0.09
  -4  -3 -16    3.39    0.18
   4  -3  16    3.65    0.18
   4   3  16    3.24    0.19
   5  -3  16   19.05    0.52
  -5  -3 -16   19.36    0.52
   5   3  16   19.03    0.52
   6  -3  16   23.55    0.62
  -6  -3 -16   23.73    0.61
  -7  -3 -16    2.05    0.16
  -8  -3 -16    2.73    0.18
  -9  -3 -16    0.37    0.09
 -12  -4  16    1.81    0.15
 -11  -4  16    4.52    0.21
  11  -4 -16    4.15    0.28
 -11   4  16    3.90    0.24
  10  -4 -16    0.58    0.11
 -10  -4  16    0.69    0.10
 -10   4  16    0.65    0.13
  -9  -4  16    0.91    0.10
   9  -4 -16    0.68    0.11
  -9   4  16    1.15    0.14
   8  -4 -16    0.94    0.12
  -8  -4  16    0.91    0.10
  -8   4  16    1.14    0.14
  -7  -4  16    0.18    0.07
   7  -4 -16    0.06    0.07
  -7   4  16    0.07    0.09
  -6  -4  16    4.38    0.20
  -6  -4  16    3.64    0.18
   6  -4 -16    4.14    0.20
  -6   4  16    3.61    0.21
  -5  -4  16   13.72    0.46
   5  -4 -16   13.39    0.41
  -5  -4  16   13.71    0.40
  -5   4  16   13.48    0.43
  -4  -4  16    5.07    0.21
   4  -4 -16    4.79    0.22
  -4   4  16    4.59    0.23
   3  -4 -16   10.29    0.34
  -3  -4  16   10.02    0.32
  -3   4  16    9.97    0.34
   2  -4 -16    3.50    0.19
  -2  -4  16    3.61    0.18
  -2   4  16    3.61    0.20
   1  -4 -16    4.48    0.21
  -1  -4  16    4.21    0.19
  -1   4  16    4.09    0.21
   0  -4 -16    0.25    0.07
   0  -4  16    0.31    0.08
   0   4  16    0.13    0.07
   1  -4  16    3.84    0.19
  -1  -4 -16    3.91    0.19
   1   4  16    3.76    0.20
  -2  -4 -16    0.85    0.11
   2  -4  16    0.95    0.11
   2   4  16    0.86    0.11
   3  -4  16    2.51    0.16
  -3  -4 -16    2.70    0.16
   3   4  16    2.28    0.16
  -4  -4 -16    1.25    0.13
   4   4  16    1.22    0.13
  -5  -4 -16    0.27    0.09
  -6  -4 -16    0.28    0.09
  -6   4 -16    0.26    0.09
  -7  -4 -16    0.01    0.07
  -7   4 -16   -0.12    0.06
 -10  -5  16    0.40    0.09
   9  -5 -16    0.06    0.08
  -9  -5  16    0.03    0.07
  -9   5  16   -0.10    0.13
  -8  -5  16    0.15    0.08
   8  -5 -16    0.18    0.08
  -8   5  16    0.06    0.09
   7  -5 -16    0.32    0.09
  -7  -5  16    0.19    0.08
  -7   5  16    0.23    0.10
   6  -5 -16    1.22    0.13
  -6  -5  16    0.94    0.11
  -6   5  16    1.13    0.14
  -5  -5  16    2.44    0.16
  -5  -5  16    2.83    0.16
   5  -5 -16    2.74    0.18
  -5   5  16    2.68    0.19
  -4  -5  16    0.03    0.06
  -4  -5  16    0.13    0.07
   4  -5 -16    0.01    0.07
  -4   5  16    0.01    0.08
   3  -5 -16    1.13    0.13
  -3  -5  16    0.84    0.11
  -3  -5  16    0.94    0.11
  -3   5  16    0.81    0.12
  -2  -5  16    0.10    0.06
   2  -5 -16   -0.06    0.07
  -2   5  16    0.05    0.08
  -1  -5  16    0.23    0.07
   1  -5 -16    0.11    0.08
  -1   5  16    0.13    0.08
   0  -5 -16    2.39    0.16
   0  -5  16    2.37    0.16
   0   5  16    2.14    0.17
  -1  -5 -16    0.33    0.08
   1  -5  16    0.30    0.08
   1   5  16    0.26    0.09
  -2  -5 -16    0.20    0.08
   2   5  16    0.12    0.08
  -3  -5 -16    0.16    0.07
  -3   5 -16    0.15    0.08
  -4  -5 -16    0.60    0.11
  -4   5 -16    0.61    0.10
  -5  -5 -16    0.01    0.07
  -5   5 -16   -0.01    0.07
  -8  -6  16    0.38    0.10
  -7  -6  16    1.10    0.13
  -6  -6  16    0.02    0.08
  -6   6  16   -0.10    0.09
   5  -6 -16   15.97    0.48
  -5  -6  16   15.25    0.45
  -5   6  16   15.44    0.49
  -4  -6  16    0.68    0.11
   4  -6 -16    0.57    0.11
  -4   6  16    0.70    0.12
   3  -6 -16    7.64    0.30
  -3  -6  16    7.42    0.28
  -3  -6  16    7.02    0.28
  -3   6  16    7.65    0.31
  -2  -6  16    1.31    0.13
  -2  -6  16    1.18    0.13
   2  -6 -16    1.37    0.14
  -2   6  16    1.12    0.14
   1  -6 -16    0.03    0.07
  -1  -6  16    0.17    0.07
  -1  -6  16   -0.13    0.10
  -1   6  16    0.00    0.08
   0  -6  16    1.85    0.15
   0  -6 -16    1.66    0.15
   0   6  16    1.43    0.15
  -1  -6 -16    0.15    0.08
  -2  -6 -16    0.02    0.07
  -2   6 -16    0.07    0.07
  -3  -7  16    0.09    0.11
  -2  -7  16    1.05    0.13
  -2   7  16    0.91    0.16
  -1  -7  16    1.28    0.14
  -1   7  16    1.18    0.16
   0  -7  16    5.40    0.35
  13   0 -17    0.06    0.08
 -12   0  17   -0.02    0.09
  12   0 -17    0.01    0.08
  11   0 -17    0.09    0.08
 -11   0  17   -0.17    0.08
 -10   0  17   -0.05    0.08
   9   0 -17   -0.09    0.06
  -9   0  17    0.03    0.08
  -8   0  17    0.02    0.07
   8   0 -17    0.09    0.06
   7   0 -17   -0.06    0.05
  -7   0  17    0.04    0.08
   6   0 -17    0.03    0.06
  -6   0  17   -0.02    0.07
   5   0 -17   -0.01    0.05
  -5   0  17    0.06    0.07
   4   0 -17    0.08    0.06
  -4   0  17    0.02    0.07
  -3   0  17   -0.03    0.07
   3   0 -17   -0.03    0.05
   2   0 -17    0.02    0.05
  -2   0  17    0.02    0.06
  -1   0  17   -0.03    0.05
   1   0 -17   -0.07    0.04
   0   0 -17   -0.01    0.04
   0   0  17   -0.01    0.06
   1   0  17    0.08    0.06
  -1   0 -17   -0.02    0.04
   2   0  17   -0.02    0.05
  -2   0 -17    0.03    0.05
   3   0  17    0.04    0.06
   4   0  17    0.05    0.06
   5   0  17    0.06    0.06
   6   0  17    0.08    0.06
   7   0  17    0.05    0.06
   8   0  17    0.04    0.05
   9   0  17    0.12    0.06
  13  -1 -17    0.04    0.09
 -13   1  17    0.05    0.10
  13   1 -17    0.13    0.09
  12  -1 -17    0.08    0.08
  12   1 -17   -0.03    0.07
 -12   1  17    0.01    0.09
 -11  -1  17    0.07    0.13
  11  -1 -17    0.24    0.09
  11   1 -17    0.22    0.08
 -11   1  17    0.18    0.09
 -10  -1  17    8.16    0.31
  10  -1 -17    8.28    0.30
 -10   1  17    8.32    0.32
  10   1 -17    8.28    0.29
  -9  -1  17    0.10    0.09
   9  -1 -17    0.09    0.07
   9   1 -17    0.06    0.06
  -9   1  17    0.09    0.09
  -8  -1  17   11.01    0.36
   8  -1 -17   11.01    0.35
  -8   1  17   10.72    0.36
   8   1 -17   11.27    0.33
  -7  -1  17    6.35    0.26
   7  -1 -17    6.66    0.25
  -7   1  17    6.15    0.26
   7   1 -17    6.23    0.23
  -6  -1  17    1.08    0.12
   6  -1 -17    1.12    0.11
  -6   1  17    1.11    0.13
   6   1 -17    1.20    0.10
  -5  -1  17    1.19    0.12
   5  -1 -17    1.37    0.12
   5   1 -17    1.40    0.15
  -5   1  17    1.29    0.13
   4  -1 -17    0.05    0.06
  -4  -1  17    0.07    0.07
  -4   1  17    0.17    0.08
  -3  -1  17    0.24    0.08
   3  -1 -17    0.17    0.06
  -3   1  17    0.20    0.08
   2  -1 -17    2.73    0.15
  -2  -1  17    2.76    0.17
  -2   1  17    3.11    0.18
   1  -1 -17    0.58    0.08
  -1  -1  17    0.54    0.09
  -1   1  17    0.63    0.10
   0  -1  17    0.15    0.07
   0  -1 -17    0.15    0.06
   0   1  17    0.12    0.07
   1  -1  17    0.05    0.06
  -1  -1 -17    0.01    0.05
   1   1  17    0.00    0.06
  -2  -1 -17    0.07    0.05
   2  -1  17    0.07    0.06
   2   1  17    0.04    0.06
   3  -1  17   -0.01    0.05
  -3  -1 -17    0.01    0.05
   3   1  17    0.07    0.07
   4  -1  17    5.67    0.23
  -4  -1 -17    5.24    0.21
   4   1  17    5.57    0.23
  -5  -1 -17    9.59    0.30
   5  -1  17    8.88    0.31
   5   1  17    9.26    0.32
   6  -1  17   11.70    0.38
  -6  -1 -17   12.82    0.37
   6   1  17   12.75    0.38
  -7  -1 -17    3.77    0.18
   7  -1  17    3.49    0.18
   7   1  17    3.17    0.18
  -8  -1 -17    0.66    0.10
   8  -1  17    0.51    0.09
   8   1  17    0.65    0.12
   9  -1  17    0.25    0.07
  10  -1  17    1.94    0.15
 -13   2  17    3.67    0.24
  12  -2 -17    4.96    0.24
 -12   2  17    5.24    0.27
  11  -2 -17    0.96    0.12
 -11   2  17    1.36    0.15
  10  -2 -17    0.74    0.11
 -10   2  17    0.87    0.13
  -9  -2  17    4.93    0.23
   9  -2 -17    4.85    0.22
  -9   2  17    4.65    0.24
   8  -2 -17    0.05    0.07
  -8  -2  17    0.13    0.08
  -8   2  17   -0.04    0.08
   7  -2 -17    0.88    0.11
  -7  -2  17    0.97    0.12
  -7   2  17    0.72    0.11
   6  -2 -17    1.95    0.14
  -6  -2  17    1.76    0.15
  -6   2  17    1.89    0.16
  -5  -2  17    6.50    0.26
   5  -2 -17    6.64    0.25
  -5   2  17    6.70    0.27
  -4  -2  17    5.18    0.23
   4  -2 -17    5.44    0.22
  -4   2  17    5.32    0.24
   3  -2 -17    9.58    0.31
  -3  -2  17    9.40    0.32
  -3   2  17    9.73    0.33
  -2  -2  17    0.09    0.07
   2  -2 -17    0.14    0.07
  -2   2  17    0.25    0.08
   1  -2 -17    0.74    0.10
  -1  -2  17    0.78    0.10
  -1   2  17    0.89    0.11
   0  -2  17    3.10    0.17
   0  -2 -17    2.91    0.16
   0   2  17    2.70    0.17
   1  -2  17   12.72    0.38
  -1  -2 -17   13.02    0.37
   1   2  17   12.32    0.39
  -2  -2 -17    8.42    0.28
   2  -2  17    8.47    0.29
   2   2  17    8.26    0.30
   3  -2  17   10.20    0.33
  -3  -2 -17   10.31    0.32
   3   2  17   10.71    0.35
   4  -2  17    1.21    0.12
  -4  -2 -17    1.61    0.13
   4   2  17    1.57    0.14
   5  -2  17    0.29    0.08
  -5  -2 -17    0.41    0.08
   5   2  17    0.44    0.09
   6  -2  17    0.23    0.07
  -6  -2 -17    0.25    0.08
   6   2  17    0.22    0.07
  -7  -2 -17    0.55    0.09
   7  -2  17    0.52    0.09
  -8  -2 -17    0.03    0.06
   8  -2  17    0.08    0.06
   9  -2  17    0.57    0.09
  -9  -2 -17    0.57    0.10
  11  -3 -17    0.13    0.08
 -11   3  17    0.02    0.10
  10  -3 -17    0.16    0.08
 -10   3  17   -0.01    0.09
   9  -3 -17    0.04    0.07
  -9   3  17   -0.02    0.08
  -8  -3  17    5.42    0.24
   8  -3 -17    5.00    0.24
  -8   3  17    5.46    0.26
  -7  -3  17    0.06    0.07
   7  -3 -17    0.03    0.07
  -7   3  17   -0.07    0.08
  -6  -3  17    2.37    0.16
   6  -3 -17    2.35    0.16
  -6   3  17    1.95    0.17
  -5  -3  17    0.75    0.11
   5  -3 -17    0.57    0.09
  -5   3  17    0.61    0.11
  -4  -3  17    0.33    0.08
   4  -3 -17    0.06    0.07
  -4   3  17    0.05    0.07
  -3  -3  17    0.94    0.11
   3  -3 -17    0.94    0.11
  -3   3  17    0.99    0.13
  -2  -3  17    1.02    0.11
   2  -3 -17    1.04    0.11
  -2   3  17    1.14    0.13
   1  -3 -17    1.02    0.11
  -1  -3  17    1.14    0.11
  -1   3  17    1.07    0.12
   0  -3 -17    1.03    0.11
   0  -3  17    1.09    0.11
   0   3  17    1.02    0.12
   1  -3  17    2.35    0.15
  -1  -3 -17    1.72    0.14
   1   3  17    1.74    0.15
   2  -3  17    0.44    0.08
  -2  -3 -17    0.30    0.08
   2   3  17    0.29    0.08
  -3  -3 -17    2.63    0.16
   3  -3  17    2.67    0.17
   3   3  17    2.79    0.17
   4  -3  17    2.19    0.16
  -4  -3 -17    1.86    0.15
   4   3  17    2.02    0.16
  -5  -3 -17    0.62    0.10
   5  -3  17    0.48    0.09
   5   3  17    0.69    0.11
  -6  -3 -17    4.51    0.22
   6  -3  17    5.02    0.23
   7  -3  17    2.36    0.17
  -7  -3 -17    2.15    0.17
   8  -3  17    1.13    0.14
  -8  -3 -17    1.37    0.13
   9  -4 -17    0.32    0.10
  -9   4  17    0.32    0.11
   8  -4 -17    1.38    0.14
  -8   4  17    1.68    0.17
   7  -4 -17    0.47    0.09
  -7   4  17    0.33    0.10
  -6  -4  17    0.77    0.11
   6  -4 -17    0.69    0.11
  -6   4  17    0.81    0.13
   5  -4 -17    0.85    0.11
  -5  -4  17    1.31    0.13
  -5   4  17    0.94    0.13
  -4  -4  17    0.69    0.10
   4  -4 -17    0.77    0.11
  -4   4  17    0.73    0.12
   3  -4 -17    0.24    0.08
  -3  -4  17    0.30    0.08
  -3   4  17    0.11    0.08
   2  -4 -17    0.75    0.10
  -2  -4  17    0.86    0.10
  -2   4  17    0.62    0.11
  -1  -4  17   -0.01    0.06
   1  -4 -17    0.03    0.06
  -1   4  17    0.02    0.07
   0  -4 -17    0.68    0.10
   0  -4  17    0.66    0.10
   0   4  17    0.65    0.11
   1  -4  17    1.02    0.11
  -1  -4 -17    1.38    0.13
   1   4  17    1.07    0.13
   2  -4  17    0.37    0.09
  -2  -4 -17    0.23    0.08
   2   4  17    0.25    0.09
   3  -4  17    2.23    0.16
  -3  -4 -17    2.00    0.15
   3   4  17    1.85    0.15
   4  -4  17    6.10    0.25
  -4  -4 -17    5.57    0.25
   5  -4  17    3.22    0.19
  -5  -4 -17    2.89    0.18
  -6  -4 -17    0.09    0.07
   6  -4  17    0.09    0.07
 -10  -5  17    4.02    0.26
   7  -5 -17    0.18    0.09
  -7   5  17    0.11    0.10
   6  -5 -17    3.92    0.21
  -6   5  17    3.85    0.24
  -5  -5  17    0.87    0.11
   5  -5 -17    0.81    0.11
  -5   5  17    0.78    0.13
  -4  -5  17    0.97    0.11
   4  -5 -17    0.62    0.11
  -4   5  17    0.86    0.13
  -3  -5  17    7.37    0.27
   3  -5 -17    7.07    0.28
  -3   5  17    7.21    0.30
  -2  -5  17    0.47    0.09
   2  -5 -17    0.32    0.08
  -2   5  17    0.35    0.10
   1  -5 -17    0.52    0.09
  -1  -5  17    0.51    0.09
  -1   5  17    0.52    0.11
   0  -5 -17    0.65    0.10
   0  -5  17    0.91    0.11
   0   5  17    0.90    0.13
   1  -5  17    1.37    0.13
  -1  -5 -17    1.74    0.15
   1   5  17    1.63    0.16
   2  -5  17    0.90    0.12
  -2  -5 -17    0.82    0.11
   2   5  17    0.85    0.12
   3  -5  17    2.34    0.17
  -3  -5 -17    2.47    0.17
  -4  -5 -17    8.24    0.43
  -7  -6  17    1.06    0.17
  -4   6  17    0.61    0.16
  -3  -6  17    1.36    0.13
  -3   6  17    1.57    0.17
  -2  -6  17    1.92    0.15
  -2   6  17    1.65    0.17
  -1  -6  17    0.37    0.09
  -1   6  17    0.16    0.10
   0  -6  17    0.12    0.08
   0   6  17    0.00    0.08
  12   0 -18   -0.04    0.08
 -12   0  18   -0.21    0.08
 -11   0  18   14.17    0.45
  11   0 -18   14.43    0.43
  10   0 -18    1.40    0.14
 -10   0  18    1.25    0.14
   9   0 -18    1.17    0.12
  -9   0  18    1.08    0.14
  -8   0  18    2.65    0.19
   8   0 -18    2.65    0.16
   7   0 -18    1.33    0.12
  -7   0  18    1.66    0.15
   6   0 -18    2.57    0.15
  -6   0  18    2.73    0.19
  -5   0  18    0.00    0.07
   5   0 -18    0.06    0.06
   4   0 -18    0.74    0.09
  -4   0  18    0.72    0.11
   3   0 -18    1.92    0.13
  -3   0  18    1.72    0.15
   2   0 -18    6.01    0.21
  -2   0  18    5.83    0.25
  -1   0  18   11.71    0.38
   1   0 -18   12.27    0.34
   0   0  18    4.30    0.21
   0   0 -18    4.82    0.24
   1   0  18    7.35    0.28
   2   0  18   19.98    0.55
   3   0  18   10.89    0.36
   4   0  18   10.08    0.34
   5   0  18    1.12    0.12
   6   0  18    0.95    0.12
   7   0  18    1.86    0.15
   8   0  18    7.19    0.28
  13   1 -18    0.51    0.11
 -13   1  18    0.60    0.13
  12  -1 -18    2.42    0.18
 -12   1  18    2.61    0.20
  12   1 -18    2.64    0.19
  11  -1 -18    3.16    0.20
  11   1 -18    3.27    0.20
 -11   1  18    3.00    0.21
 -10  -1  18    0.95    0.13
  10  -1 -18    0.93    0.12
 -10   1  18    0.71    0.12
  10   1 -18    0.76    0.12
   9  -1 -18    0.52    0.10
  -9  -1  18    0.44    0.11
  -9   1  18    0.42    0.11
   8  -1 -18    5.19    0.23
  -8  -1  18    5.16    0.24
  -8   1  18    5.30    0.25
  -7  -1  18    2.18    0.17
   7  -1 -18    1.96    0.15
  -7   1  18    2.32    0.18
   6  -1 -18    0.84    0.10
  -6  -1  18    0.67    0.11
  -6   1  18    0.90    0.12
  -5  -1  18    1.18    0.13
   5  -1 -18    0.99    0.11
  -5   1  18    1.04    0.13
   4  -1 -18    3.14    0.17
  -4  -1  18    3.11    0.19
  -4   1  18    3.48    0.20
  -3  -1  18    8.20    0.30
   3  -1 -18    7.95    0.27
  -3   1  18    7.86    0.30
  -2  -1  18    0.03    0.07
   2  -1 -18    0.05    0.06
  -2   1  18   -0.01    0.07
   1  -1 -18    0.91    0.10
  -1  -1  18    0.80    0.11
  -1   1  18    0.72    0.11
   0  -1  18    0.15    0.07
   0  -1 -18    0.33    0.07
   0   1  18    0.21    0.08
   1  -1  18    0.34    0.08
  -1  -1 -18    0.20    0.07
   1   1  18    0.35    0.09
  -2  -1 -18    0.29    0.07
   2  -1  18    0.43    0.09
   2   1  18    0.37    0.09
   3  -1  18    0.24    0.07
  -3  -1 -18    0.31    0.07
   3   1  18    0.39    0.09
  -4  -1 -18    1.77    0.13
   4  -1  18    1.85    0.15
   4   1  18    1.84    0.15
   5  -1  18    0.31    0.08
  -5  -1 -18    0.22    0.07
   5   1  18    0.20    0.07
   6  -1  18    1.08    0.12
  -6  -1 -18    0.96    0.13
   6   1  18    1.21    0.13
   7  -1  18    2.62    0.17
   7   1  18    2.66    0.17
   8  -1  18    0.17    0.06
   9  -1  18    0.44    0.09
 -12   2  18    0.63    0.19
  11  -2 -18    0.12    0.08
 -11   2  18   -0.01    0.09
  10  -2 -18    0.71    0.11
 -10   2  18    0.45    0.12
   9  -2 -18    0.24    0.09
  -9  -2  18    0.21    0.09
  -9   2  18    0.18    0.10
   8  -2 -18    0.53    0.10
  -8  -2  18    0.59    0.11
  -8   2  18    0.37    0.10
  -7  -2  18    0.13    0.08
   7  -2 -18    0.08    0.07
  -7   2  18    0.00    0.08
  -6  -2  18    2.48    0.18
   6  -2 -18    2.73    0.17
  -6   2  18    2.73    0.19
  -5  -2  18    0.12    0.08
   5  -2 -18    0.15    0.07
  -5   2  18    0.11    0.08
   4  -2 -18    0.04    0.07
  -4  -2  18    0.06    0.07
  -4   2  18    0.03    0.08
   3  -2 -18    0.00    0.06
  -3  -2  18    0.04    0.07
  -3   2  18   -0.04    0.07
  -2  -2  18    0.10    0.07
   2  -2 -18    0.06    0.06
  -2   2  18    0.01    0.07
  -1  -2  18    8.77    0.31
   1  -2 -18    8.92    0.30
  -1   2  18    8.76    0.32
   0  -2 -18   -0.02    0.06
   0  -2  18    0.10    0.07
   0   2  18   -0.08    0.06
  -1  -2 -18    0.04    0.06
   1  -2  18    0.09    0.07
   1   2  18    0.07    0.07
  -2  -2 -18    8.42    0.29
   2  -2  18    8.57    0.30
   2   2  18    8.93    0.32
  -3  -2 -18    0.57    0.09
   3  -2  18    0.46    0.09
   3   2  18    0.53    0.10
  -4  -2 -18    0.10    0.06
   4  -2  18    0.03    0.06
   4   2  18    0.04    0.07
  -5  -2 -18    0.07    0.07
   5  -2  18    0.03    0.06
   5   2  18    0.05    0.07
   6  -2  18    0.41    0.09
  -6  -2 -18    0.50    0.09
   6   2  18    0.45    0.09
  -7  -2 -18    0.16    0.07
   7  -2  18    0.40    0.09
   8  -2  18    0.29    0.12
  -8  -2 -18    0.34    0.08
  10  -3 -18    0.64    0.12
 -10   3  18    0.54    0.13
   9  -3 -18    7.49    0.30
  -9   3  18    8.08    0.33
  -8  -3  18    8.44    0.31
   8  -3 -18    7.55    0.30
  -8   3  18    8.37    0.33
   7  -3 -18    1.30    0.13
  -7  -3  18    1.92    0.16
  -7   3  18    1.62    0.16
  -6  -3  18    1.95    0.16
   6  -3 -18    1.99    0.16
  -6   3  18    1.56    0.16
  -5  -3  18    1.99    0.16
   5  -3 -18    1.85    0.16
  -5   3  18    1.95    0.18
  -4  -3  18    4.39    0.22
   4  -3 -18    4.27    0.21
  -4   3  18    3.95    0.22
  -3  -3  18    3.73    0.20
   3  -3 -18    3.47    0.19
  -3   3  18    3.72    0.21
  -2  -3  18    3.23    0.19
   2  -3 -18    3.20    0.19
  -2   3  18    3.06    0.19
  -1  -3  18   15.12    0.44
   1  -3 -18   15.22    0.44
  -1   3  18   15.35    0.46
   0  -3  18    0.06    0.07
   0  -3 -18   -0.04    0.06
   0   3  18    0.03    0.07
   1  -3  18    0.20    0.08
  -1  -3 -18    0.08    0.07
   1   3  18    0.17    0.08
   2  -3  18    1.73    0.15
  -2  -3 -18    1.51    0.13
   2   3  18    1.90    0.16
   3  -3  18    0.95    0.11
  -3  -3 -18    0.66    0.10
   3   3  18    0.66    0.11
  -4  -3 -18    2.96    0.17
   4  -3  18    2.92    0.19
   4   3  18    2.79    0.19
   5  -3  18    3.95    0.21
  -5  -3 -18    3.95    0.20
   5   3  18    3.35    0.21
   6  -3  18    1.42    0.14
  -6  -3 -18    1.02    0.12
  -7  -3 -18    1.28    0.15
   8  -4 -18    0.56    0.11
  -8   4  18    0.69    0.15
   7  -4 -18    0.03    0.08
  -7   4  18   -0.07    0.08
  -6  -4  18    0.27    0.08
   6  -4 -18    0.25    0.09
  -6   4  18    0.14    0.10
   5  -4 -18   -0.06    0.07
  -5  -4  18    0.10    0.08
  -5   4  18    0.01    0.09
   4  -4 -18    0.17    0.08
  -4  -4  18    0.04    0.07
  -4   4  18    0.11    0.09
  -3  -4  18    2.06    0.16
   3  -4 -18    1.90    0.16
  -3   4  18    1.85    0.17
   2  -4 -18    0.81    0.11
  -2  -4  18    0.92    0.11
  -2   4  18    0.95    0.13
   1  -4 -18    0.55    0.10
  -1  -4  18    0.77    0.10
  -1   4  18    0.82    0.12
   0  -4  18    1.07    0.12
   0  -4 -18    0.94    0.12
   0   4  18    0.86    0.12
  -1  -4 -18   14.20    0.43
   1  -4  18   14.21    0.43
   1   4  18   14.09    0.44
   2  -4  18    3.97    0.21
  -2  -4 -18    3.80    0.20
   2   4  18    3.57    0.21
  -3  -4 -18    2.23    0.17
   3  -4  18    2.43    0.18
   3   4  18    2.69    0.18
  -4  -4 -18    1.77    0.16
   4  -4  18    1.76    0.16
  -5  -5  18    0.06    0.08
   5  -5 -18    0.11    0.12
  -5   5  18    0.14    0.10
  -4  -5  18   -0.04    0.06
   4  -5 -18    0.03    0.07
  -4   5  18   -0.11    0.08
   3  -5 -18    0.07    0.08
  -3  -5  18    0.17    0.07
  -3   5  18    0.15    0.10
  -2  -5  18    0.26    0.08
   2  -5 -18    0.28    0.08
  -2   5  18    0.21    0.10
   1  -5 -18    0.62    0.11
  -1  -5  18    0.65    0.10
  -1   5  18    0.49    0.12
   0  -5  18    0.07    0.07
   0  -5 -18    0.04    0.07
   0   5  18    0.07    0.08
  -1  -5 -18   -0.07    0.08
   1  -5  18    0.10    0.07
   1   5  18    0.00    0.08
   2   5  18    2.40    0.26
  -3  -6  18    1.49    0.18
   0   6  18    2.03    0.21
  12   0 -19   -0.06    0.08
 -12   0  19   -0.12    0.09
 -11   0  19   -0.04    0.09
  11   0 -19    0.06    0.08
 -10   0  19   -0.12    0.09
  10   0 -19   -0.05    0.07
   9   0 -19    0.00    0.07
  -9   0  19   -0.14    0.09
  -8   0  19   -0.05    0.08
   8   0 -19    0.06    0.07
   7   0 -19   -0.10    0.06
  -7   0  19   -0.07    0.08
   6   0 -19   -0.02    0.06
  -6   0  19    0.09    0.08
   5   0 -19    0.01    0.06
  -5   0  19    0.00    0.08
  -4   0  19    0.07    0.08
   4   0 -19   -0.01    0.06
  -3   0  19    0.07    0.08
  -2   0  19    0.12    0.08
  -1   0  19   -0.01    0.07
   0   0  19   -0.07    0.06
   1   0  19    0.04    0.07
   2   0  19    0.03    0.07
   3   0  19    0.13    0.07
   4   0  19    0.02    0.07
   5   0  19    0.05    0.07
   6   0  19    0.08    0.07
   7   0  19    0.13    0.07
   8   0  19    0.10    0.07
  11  -1 -19    1.25    0.14
 -11   1  19    0.85    0.13
 -10  -1  19    1.52    0.15
  10  -1 -19    1.28    0.14
 -10   1  19    1.40    0.16
  -9  -1  19    0.82    0.12
   9  -1 -19    0.69    0.11
  -9   1  19    0.70    0.13
  -8  -1  19    0.21    0.09
   8  -1 -19    0.13    0.08
  -8   1  19    0.00    0.09
  -7  -1  19    0.41    0.10
   7  -1 -19    0.45    0.09
  -7   1  19    0.30    0.10
   6  -1 -19    4.41    0.21
  -6  -1  19    4.31    0.23
  -6   1  19    4.05    0.23
  -5  -1  19    0.42    0.10
   5  -1 -19    0.56    0.09
  -5   1  19    0.38    0.10
  -4  -1  19    8.47    0.32
   4  -1 -19    8.85    0.30
  -4   1  19    8.61    0.32
   3  -1 -19   11.80    0.36
  -3  -1  19   12.01    0.39
  -3   1  19   11.66    0.39
  -2  -1  19    9.90    0.35
   2  -1 -19   10.52    0.33
  -2   1  19    9.99    0.35
   1  -1 -19    9.62    0.31
  -1  -1  19    9.26    0.33
  -1   1  19    9.36    0.34
   0  -1  19    1.33    0.14
   0  -1 -19    1.16    0.11
   0   1  19    1.37    0.14
  -1  -1 -19    0.67    0.09
   1  -1  19    0.78    0.11
   1   1  19    0.68    0.11
   2  -1  19   11.94    0.39
  -2  -1 -19   12.04    0.35
   2   1  19   11.30    0.38
   3  -1  19    0.01    0.07
  -3  -1 -19    0.12    0.07
   3   1  19    0.17    0.08
   4  -1  19    2.27    0.17
   4   1  19    2.02    0.16
   5  -1  19    0.16    0.08
   5   1  19    0.14    0.07
   6  -1  19    0.09    0.07
   6   1  19    0.20    0.08
   7  -1  19    1.00    0.12
   7   1  19    1.12    0.13
  10  -2 -19    6.70    0.29
 -10   2  19    6.83    0.32
   9  -2 -19    0.96    0.12
  -9  -2  19    1.21    0.14
  -9   2  19    1.38    0.16
   8  -2 -19    3.87    0.21
  -8  -2  19    3.82    0.22
  -8   2  19    3.86    0.24
  -7  -2  19    5.18    0.25
   7  -2 -19    4.96    0.23
  -7   2  19    4.97    0.26
  -6  -2  19    2.68    0.20
   6  -2 -19    2.73    0.18
  -6   2  19    3.09    0.21
   5  -2 -19    3.73    0.20
  -5  -2  19    4.02    0.22
  -5   2  19    3.92    0.23
   4  -2 -19    4.23    0.21
  -4  -2  19    4.23    0.23
  -4   2  19    4.10    0.23
  -3  -2  19    0.46    0.10
   3  -2 -19    0.30    0.08
  -3   2  19    0.30    0.10
   2  -2 -19    5.05    0.22
  -2  -2  19    4.59    0.23
  -2   2  19    4.87    0.24
   1  -2 -19    0.09    0.06
  -1  -2  19    0.05    0.07
  -1   2  19    0.03    0.08
   0  -2  19    0.03    0.07
   0  -2 -19    0.08    0.07
   0   2  19    0.08    0.08
  -1  -2 -19   16.05    0.45
   1  -2  19   15.34    0.46
   1   2  19   15.75    0.48
   2  -2  19    0.35    0.09
  -2  -2 -19    0.39    0.08
   2   2  19    0.25    0.09
   3  -2  19    3.42    0.20
  -3  -2 -19    4.01    0.20
   3   2  19    3.55    0.21
  -4  -2 -19    1.98    0.15
   4  -2  19    1.84    0.16
   4   2  19    1.85    0.16
   5  -2  19    0.07    0.07
  -5  -2 -19    0.00    0.07
   5   2  19    0.02    0.07
   6  -2  19    1.33    0.15
  -6  -2 -19    1.35    0.13
   6   2  19    1.52    0.15
  -7  -2 -19    6.83    0.27
   8  -3 -19    0.18    0.08
  -8  -3  19    0.04    0.09
  -8   3  19    0.00    0.09
   7  -3 -19    1.02    0.13
  -7  -3  19    1.15    0.14
  -7   3  19    1.03    0.14
  -6  -3  19    4.29    0.22
   6  -3 -19    4.37    0.22
  -6   3  19    4.24    0.24
   5  -3 -19    0.18    0.08
  -5  -3  19    0.22    0.09
  -5   3  19    0.36    0.11
  -4  -3  19    0.41    0.10
   4  -3 -19    0.35    0.09
  -4   3  19    0.34    0.10
  -3  -3  19    4.75    0.24
   3  -3 -19    4.57    0.22
  -3   3  19    4.50    0.24
   2  -3 -19    0.15    0.08
  -2  -3  19    0.39    0.10
  -2   3  19    0.34    0.10
  -1  -3  19    5.21    0.24
   1  -3 -19    5.17    0.23
  -1   3  19    4.58    0.24
   0  -3  19    0.20    0.08
   0  -3 -19    0.24    0.08
   0   3  19    0.14    0.09
  -1  -3 -19    4.89    0.23
   1  -3  19    5.13    0.24
   1   3  19    5.08    0.25
  -2  -3 -19    3.87    0.20
   2  -3  19    4.17    0.22
   2   3  19    3.64    0.22
   3  -3  19    2.33    0.17
  -3  -3 -19    2.59    0.17
   3   3  19    2.34    0.18
  -4  -3 -19    0.18    0.08
   4  -3  19    0.26    0.08
   4   3  19    0.24    0.09
  -5  -3 -19    4.62    0.23
  -6  -4  19   12.91    0.41
   6  -4 -19   13.33    0.46
  -6   4  19   12.64    0.53
   5  -4 -19    0.25    0.09
  -5  -4  19    0.30    0.09
  -5   4  19    0.39    0.11
  -4  -4  19    2.47    0.18
   4  -4 -19    2.20    0.17
  -4   4  19    2.33    0.20
   3  -4 -19    1.40    0.15
  -3  -4  19    1.53    0.15
  -3   4  19    1.17    0.15
  -2  -4  19    3.06    0.19
   2  -4 -19    2.67    0.18
  -2   4  19    3.00    0.21
  -1  -4  19    0.98    0.12
   1  -4 -19    0.86    0.11
  -1   4  19    0.93    0.13
   0  -4  19    0.10    0.07
   0  -4 -19    0.03    0.07
   0   4  19    0.07    0.09
   1  -4  19    0.34    0.09
  -1  -4 -19    0.36    0.09
   1   4  19    0.19    0.09
   2  -4  19    2.75    0.28
  -2  -4 -19    2.48    0.17
   2   4  19    2.27    0.18
   3   4  19    6.09    0.27
  -5  -5  19    0.06    0.10
  -4  -5  19    0.42    0.10
  -3  -5  19    1.44    0.14
  -2  -5  19   15.27    0.60
  -2   5  19   13.56    0.61
  -1   5  19   11.58    0.41
   0   5  19    0.14    0.09
   1   5  19    0.34    0.10
  11   0 -20    7.08    0.32
 -10   0  20    1.14    0.15
  10   0 -20    1.24    0.13
   9   0 -20    0.12    0.08
  -9   0  20    0.12    0.10
   8   0 -20    0.23    0.09
  -8   0  20    0.12    0.10
  -7   0  20    4.67    0.25
  -6   0  20    6.73    0.29
  -5   0  20    4.56    0.24
  -4   0  20   22.08    0.62
  -3   0  20    0.82    0.12
  -2   0  20    2.99    0.20
  -1   0  20    8.36    0.32
   0   0  20   -0.01    0.08
   1   0  20    0.03    0.08
   2   0  20    0.26    0.09
   3   0  20    0.21    0.09
   4   0  20    5.92    0.26
   5   0  20    0.83    0.12
   6   0  20    3.67    0.24
 -10  -1  20   10.26    0.37
  10  -1 -20   10.71    0.37
   9  -1 -20    3.77    0.22
  -9  -1  20    3.75    0.23
  -9   1  20    3.54    0.23
  -8  -1  20    0.09    0.09
   8  -1 -20    0.06    0.08
  -8   1  20    0.05    0.10
   7  -1 -20    0.40    0.09
  -7  -1  20    0.43    0.11
  -7   1  20    0.62    0.12
   6  -1 -20    0.17    0.08
  -6  -1  20    0.12    0.09
  -6   1  20   -0.03    0.09
   5  -1 -20    1.22    0.12
  -5  -1  20    1.43    0.15
  -5   1  20    1.21    0.14
  -4  -1  20    1.09    0.14
   4  -1 -20    1.16    0.12
  -4   1  20    1.22    0.15
  -3  -1  20    0.52    0.11
   3  -1 -20    0.40    0.09
  -3   1  20    0.43    0.10
  -2  -1  20    0.55    0.11
   2  -1 -20    0.59    0.09
  -2   1  20    0.37    0.10
   1  -1 -20    3.24    0.18
  -1  -1  20    3.16    0.20
  -1   1  20    3.24    0.21
   0  -1 -20   11.61    0.36
   0  -1  20   11.98    0.39
   0   1  20   11.81    0.40
  -1  -1 -20    2.66    0.25
   1  -1  20    2.78    0.19
   1   1  20    2.70    0.19
   2  -1  20    8.35    0.32
   2   1  20    8.55    0.33
   3  -1  20    6.27    0.27
   3   1  20    5.88    0.26
   4  -1  20    3.97    0.22
   4   1  20    3.91    0.22
   5  -1  20    0.61    0.12
   5   1  20    0.66    0.11
   6   1  20    1.75    0.16
   9  -2 -20    0.57    0.17
  -9  -2  20    0.65    0.12
   8  -2 -20    0.00    0.08
  -8  -2  20    0.08    0.10
  -8   2  20    0.03    0.12
  -7  -2  20    1.42    0.15
   7  -2 -20    1.37    0.14
  -7   2  20    1.31    0.16
   6  -2 -20    0.01    0.07
  -6  -2  20    0.12    0.09
  -6   2  20    0.05    0.09
  -5  -2  20    0.92    0.13
   5  -2 -20    0.75    0.11
  -5   2  20    0.65    0.12
   4  -2 -20    3.19    0.19
  -4  -2  20    3.29    0.21
  -4   2  20    3.02    0.21
  -3  -2  20    0.73    0.12
   3  -2 -20    0.69    0.10
  -3   2  20    0.69    0.12
   2  -2 -20    0.25    0.08
  -2  -2  20    0.30    0.09
  -2   2  20    0.29    0.10
   1  -2 -20    0.37    0.09
  -1  -2  20    0.37    0.09
  -1   2  20    0.71    0.12
   0  -2 -20    7.45    0.28
   0  -2  20    6.82    0.29
   0   2  20    7.47    0.31
   1  -2  20    0.25    0.09
  -1  -2 -20    0.21    0.08
   1   2  20    0.22    0.09
  -2  -2 -20    0.95    0.11
   2  -2  20    0.90    0.12
   2   2  20    1.06    0.14
   3  -2  20    0.30    0.09
  -3  -2 -20    0.30    0.08
   3   2  20    0.28    0.09
  -4  -2 -20    0.12    0.07
   4   2  20    0.36    0.10
  -5  -2 -20    0.11    0.07
   5   2  20    0.07    0.08
  -6  -2 -20    0.47    0.14
  -7  -3  20    0.86    0.12
   7  -3 -20    0.84    0.18
  -6  -3  20    3.32    0.21
   6  -3 -20    3.24    0.20
  -6   3  20    3.66    0.36
   5  -3 -20    2.38    0.18
  -5  -3  20    2.95    0.20
  -5   3  20    2.49    0.21
   4  -3 -20    3.54    0.20
  -4  -3  20    3.65    0.21
  -4   3  20    3.20    0.22
  -3  -3  20    1.55    0.15
   3  -3 -20    1.30    0.14
  -3   3  20    1.09    0.14
  -2  -3  20   12.36    0.41
   2  -3 -20   12.16    0.40
  -2   3  20   12.61    0.42
  -1  -3  20    2.88    0.20
   1  -3 -20    2.75    0.18
  -1   3  20    2.87    0.20
   0  -3  20    0.72    0.11
   0  -3 -20    0.51    0.10
   0   3  20    0.55    0.11
   1  -3  20    0.88    0.12
  -1  -3 -20    0.96    0.12
   1   3  20    0.85    0.13
  -2  -3 -20    0.00    0.07
   2   3  20    0.18    0.09
  -3  -3 -20    3.58    0.20
   3   3  20    3.67    0.22
   4   3  20   15.95    0.49
  -6  -4  20    2.55    0.19
  -5  -4  20    5.06    0.25
  -4  -4  20    3.43    0.21
  -3  -4  20    0.14    0.09
  -2  -4  20    2.04    0.26
  -2   4  20    1.49    0.21
  -1   4  20    3.58    0.25
   0   4  20    4.52    0.25
   1   4  20    0.79    0.13
   2   4  20    1.82    0.17
  -7   0  21   -0.12    0.09
  -6   0  21    0.12    0.10
  -5   0  21   -0.01    0.09
  -4   0  21    0.06    0.09
  -3   0  21    0.16    0.09
  -2   0  21    0.09    0.09
  -1   0  21    0.08    0.09
   0   0  21    0.06    0.08
   1   0  21    0.01    0.08
   2   0  21   -0.08    0.07
   8  -1 -21    0.13    0.08
   7  -1 -21    1.38    0.14
  -7  -1  21    1.23    0.15
  -6  -1  21    1.89    0.17
   6  -1 -21    2.06    0.16
  -6   1  21    1.97    0.20
  -5  -1  21   -0.03    0.09
   5  -1 -21    0.07    0.07
  -5   1  21    0.03    0.09
   4  -1 -21    2.91    0.18
  -4  -1  21    3.31    0.22
  -4   1  21    3.05    0.21
   3  -1 -21    0.49    0.10
  -3  -1  21    0.56    0.11
  -3   1  21    0.42    0.11
  -2  -1  21    0.30    0.10
  -2   1  21    0.32    0.10
  -1  -1  21    0.77    0.12
  -1   1  21    0.60    0.12
   0  -1  21    1.62    0.16
   0   1  21    1.52    0.16
   1  -1  21    1.70    0.16
   1   1  21    1.62    0.16
   2   1  21    0.44    0.11
   3   1  21    4.66    0.28
  -7  -2  21    3.23    0.24
   7  -2 -21    3.43    0.23
  -6  -2  21    4.69    0.25
   6  -2 -21    4.77    0.24
  -5  -2  21    5.52    0.27
   5  -2 -21    5.40    0.25
  -4  -2  21    1.34    0.15
   4  -2 -21    1.03    0.13
  -4   2  21    1.17    0.17
   3  -2 -21    0.90    0.12
  -3  -2  21    0.94    0.13
  -3   2  21    0.82    0.14
   2  -2 -21    0.03    0.07
  -2  -2  21    0.07    0.08
  -2   2  21    0.14    0.10
   1  -2 -21    6.23    0.26
  -1  -2  21    6.64    0.32
  -1   2  21    7.03    0.31
   0  -2  21    7.00    0.43
   0  -2 -21    6.45    0.26
   0   2  21    6.54    0.30
  -1  -2 -21    5.77    0.24
   1   2  21    4.91    0.26
  -2  -2 -21    2.27    0.16
   2   2  21    2.59    0.22
  -3  -2 -21    1.92    0.16
   3  -3 -21    0.05    0.09
   2  -3 -21    0.37    0.10
   1  -3 -21   -0.03    0.08
   0  -3 -21    4.48    0.33
   4  -2 -22    2.54    0.26
   3  -2 -22    7.06    0.29
   2  -2 -22    2.79    0.18
   1  -2 -22    2.12    0.16
   0  -2 -22    3.52    0.20
   0   0   0    0.00    0.00
;
_shelx_hkl_checksum              65060
loop_
_space_group_symop_operation_xyz
'x, y, z'
'-x, y, -z+1/2'
'-x, -y, -z'
'x, -y, z-1/2'
loop_
_atom_site_label
_atom_site_type_symbol
_atom_site_fract_x
_atom_site_fract_y
_atom_site_fract_z
_atom_site_U_iso_or_equiv
_atom_site_adp_type
_atom_site_occupancy
_atom_site_site_symmetry_order
_atom_site_calc_flag
_atom_site_refinement_flags_posn
_atom_site_refinement_flags_adp
S1 S 0.39486(2) 0.35666(4) 0.34515(2) 0.01760(8) Uani 1 1 d . .
S2 S 0.46001(2) 0.15398(4) 0.61305(2) 0.01824(8) Uani 1 1 d . .
O3' O 0.03617(7) 0.41182(12) 0.12031(6) 0.02235(19) Uani 1 1 d . .
O4' O -0.07555(6) 0.16484(12) 0.06936(6) 0.01707(17) Uani 1 1 d . .
O7 O 0.21524(6) -0.24233(12) 0.42783(5) 0.01707(17) Uani 1 1 d . .
N4 N 0.31717(7) 0.21832(14) 0.48388(6) 0.01189(17) Uani 1 1 d . .
N6 N 0.28855(7) 0.02627(14) 0.37087(6) 0.01209(17) Uani 1 1 d . .
C8 C 0.31440(9) 0.45432(17) 0.60007(8) 0.0177(2) Uani 1 1 d . .
H8A H 0.2748 0.5505 0.5634 0.027 Uiso 1 1 calc R U
H8B H 0.3590 0.5216 0.6456 0.027 Uiso 1 1 calc R U
H8C H 0.2668 0.3681 0.6253 0.027 Uiso 1 1 calc R U
C3 C 0.38045(8) 0.33470(16) 0.54727(7) 0.0137(2) Uani 1 1 d . .
H3 H 0.4261 0.4229 0.5185 0.016 Uiso 1 1 calc R U
C5 C 0.33351(8) 0.20076(16) 0.40089(7) 0.01259(19) Uani 1 1 d . .
C7' C 0.28569(8) -0.04853(17) 0.28377(7) 0.0149(2) Uani 1 1 d . .
H7'1 H 0.2930 -0.1920 0.2860 0.018 Uiso 1 1 calc R U
H7'2 H 0.3452 0.0049 0.2585 0.018 Uiso 1 1 calc R U
C1' C 0.18700(8) 0.00308(16) 0.22675(6) 0.01234(19) Uani 1 1 d . .
C2' C 0.16510(8) 0.19946(17) 0.20446(7) 0.0147(2) Uani 1 1 d . .
H2' H 0.2110 0.3018 0.2244 0.018 Uiso 1 1 calc R U
C3' C 0.07405(8) 0.23534(16) 0.15246(7) 0.0143(2) Uani 1 1 d . .
C1'' C -0.06877(9) 0.37075(17) 0.08397(9) 0.0204(2) Uani 1 1 d . .
H1'1 H -0.1174 0.4111 0.1237 0.025 Uiso 1 1 calc R U
H1'2 H -0.0862 0.4423 0.0296 0.025 Uiso 1 1 calc R U
C4' C 0.00723(8) 0.08704(16) 0.12166(7) 0.01293(19) Uani 1 1 d . .
C7 C 0.25571(8) -0.08363(16) 0.43586(7) 0.01255(19) Uani 1 1 d . .
C7A C 0.28441(8) 0.03260(15) 0.51715(6) 0.01124(18) Uani 1 1 d . .
H7A H 0.2240 0.0495 0.5494 0.013 Uiso 1 1 calc R U
C1 C 0.37897(8) -0.05244(16) 0.57417(7) 0.0147(2) Uani 1 1 d . .
H1A H 0.4176 -0.1421 0.5409 0.018 Uiso 1 1 calc R U
H1B H 0.3566 -0.1254 0.6226 0.018 Uiso 1 1 calc R U
C6' C 0.11910(8) -0.14409(16) 0.19591(7) 0.0137(2) Uani 1 1 d . .
H6' H 0.1351 -0.2750 0.2122 0.016 Uiso 1 1 calc R U
C5' C 0.02724(8) -0.10502(16) 0.14125(7) 0.0148(2) Uani 1 1 d . .
H5' H -0.0183 -0.2061 0.1192 0.018 Uiso 1 1 calc R U
loop_
_atom_site_aniso_label
_atom_site_aniso_U_11
_atom_site_aniso_U_22
_atom_site_aniso_U_33
_atom_site_aniso_U_23
_atom_site_aniso_U_13
_atom_site_aniso_U_12
S1 0.01558(13) 0.02381(15) 0.01318(13) 0.00558(10) 0.00103(10) -0.00532(10)
S2 0.01358(13) 0.02044(14) 0.01860(14) -0.00190(10) -0.00579(10) 0.00019(10)
O3' 0.0182(4) 0.0125(4) 0.0327(5) 0.0049(3) -0.0102(4) -0.0009(3)
O4' 0.0131(4) 0.0153(4) 0.0207(4) 0.0015(3) -0.0057(3) 0.0007(3)
O7 0.0184(4) 0.0137(4) 0.0177(4) -0.0005(3) -0.0028(3) -0.0023(3)
N4 0.0126(4) 0.0128(4) 0.0100(4) 0.0008(3) 0.0004(3) -0.0028(3)
N6 0.0126(4) 0.0143(4) 0.0089(4) -0.0002(3) -0.0003(3) 0.0004(3)
C8 0.0204(5) 0.0150(5) 0.0176(5) -0.0030(4) 0.0016(4) -0.0005(4)
C3 0.0133(4) 0.0155(5) 0.0117(5) -0.0004(4) -0.0005(4) -0.0042(4)
C5 0.0101(4) 0.0160(5) 0.0111(4) 0.0014(4) -0.0009(3) 0.0006(4)
C7' 0.0139(5) 0.0204(5) 0.0098(4) -0.0022(4) -0.0008(4) 0.0050(4)
C1' 0.0121(4) 0.0157(5) 0.0090(4) -0.0009(4) 0.0003(3) 0.0022(4)
C2' 0.0138(5) 0.0143(5) 0.0150(5) -0.0008(4) -0.0024(4) -0.0015(4)
C3' 0.0151(5) 0.0115(5) 0.0156(5) 0.0013(4) -0.0008(4) 0.0001(4)
C1'' 0.0158(5) 0.0150(5) 0.0281(6) 0.0031(4) -0.0060(4) 0.0007(4)
C4' 0.0101(4) 0.0157(5) 0.0122(4) 0.0002(4) -0.0013(3) 0.0002(4)
C7 0.0108(4) 0.0142(5) 0.0118(4) 0.0006(4) -0.0014(3) 0.0019(4)
C7A 0.0109(4) 0.0121(4) 0.0104(4) 0.0013(3) 0.0002(3) -0.0013(3)
C1 0.0142(4) 0.0160(5) 0.0126(5) 0.0008(4) -0.0024(4) 0.0010(4)
C6' 0.0146(5) 0.0127(5) 0.0136(5) 0.0000(4) 0.0011(4) 0.0018(4)
C5' 0.0132(5) 0.0135(5) 0.0168(5) -0.0014(4) -0.0011(4) -0.0017(4)
loop_
_atom_type_symbol
_atom_type_description
_atom_type_scat_dispersion_real
_atom_type_scat_dispersion_imag
_atom_type_scat_source
C C 0.0033 0.0016 'International Tables Vol C Tables 4.2.6.8 and 6.1.1.4'
H H 0.0000 0.0000 'International Tables Vol C Tables 4.2.6.8 and 6.1.1.4'
N N 0.0061 0.0033 'International Tables Vol C Tables 4.2.6.8 and 6.1.1.4'
O O 0.0106 0.0060 'International Tables Vol C Tables 4.2.6.8 and 6.1.1.4'
S S 0.1246 0.1234 'International Tables Vol C Tables 4.2.6.8 and 6.1.1.4'
loop_
_geom_angle_atom_site_label_1
_geom_angle_atom_site_label_2
_geom_angle_atom_site_label_3
_geom_angle
C1 S2 C3 94.20(5)
C3' O3' C1'' 104.54(9)
C4' O4' C1'' 104.97(9)
C5 N4 C3 124.53(9)
C5 N4 C7A 111.04(9)
C3 N4 C7A 113.43(8)
C7 N6 C5 111.93(9)
C7 N6 C7' 122.22(9)
C5 N6 C7' 125.49(9)
C3 C8 H8A 109.5
C3 C8 H8B 109.5
H8A C8 H8B 109.5
C3 C8 H8C 109.5
H8A C8 H8C 109.5
H8B C8 H8C 109.5
N4 C3 C8 111.37(9)
N4 C3 S2 104.25(7)
C8 C3 S2 111.81(8)
N4 C3 H3 109.8
C8 C3 H3 109.8
S2 C3 H3 109.8
N4 C5 N6 107.03(9)
N4 C5 S1 127.05(9)
N6 C5 S1 125.93(8)
N6 C7' C1' 113.11(9)
N6 C7' H7'1 109.0
C1' C7' H7'1 109.0
N6 C7' H7'2 109.0
C1' C7' H7'2 109.0
H7'1 C7' H7'2 107.8
C6' C1' C2' 120.47(10)
C6' C1' C7' 119.52(10)
C2' C1' C7' 120.01(10)
C3' C2' C1' 116.77(10)
C3' C2' H2' 121.6
C1' C2' H2' 121.6
C2' C3' O3' 128.09(10)
C2' C3' C4' 122.20(10)
O3' C3' C4' 109.67(9)
O4' C1'' O3' 107.00(9)
O4' C1'' H1'1 110.3
O3' C1'' H1'1 110.3
O4' C1'' H1'2 110.3
O3' C1'' H1'2 110.3
H1'1 C1'' H1'2 108.6
C5' C4' O4' 128.21(10)
C5' C4' C3' 122.27(10)
O4' C4' C3' 109.49(9)
O7 C7 N6 125.80(10)
O7 C7 C7A 128.19(10)
N6 C7 C7A 105.98(9)
N4 C7A C7 101.83(8)
N4 C7A C1 106.86(8)
C7 C7A C1 112.67(9)
N4 C7A H7A 111.7
C7 C7A H7A 111.7
C1 C7A H7A 111.7
C7A C1 S2 106.67(7)
C7A C1 H1A 110.4
S2 C1 H1A 110.4
C7A C1 H1B 110.4
S2 C1 H1B 110.4
H1A C1 H1B 108.6
C1' C6' C5' 121.97(10)
C1' C6' H6' 119.0
C5' C6' H6' 119.0
C4' C5' C6' 116.30(10)
C4' C5' H5' 121.9
C6' C5' H5' 121.9
loop_
_geom_bond_atom_site_label_1
_geom_bond_atom_site_label_2
_geom_bond_distance
S1 C5 1.6576(11)
S2 C1 1.8261(12)
S2 C3 1.8484(11)
O3' C3' 1.3800(13)
O3' C1'' 1.4424(14)
O4' C4' 1.3794(13)
O4' C1'' 1.4330(14)
O7 C7 1.2101(14)
N4 C5 1.3618(13)
N4 C3 1.4520(13)
N4 C7A 1.4641(13)
N6 C7 1.3870(14)
N6 C5 1.3898(14)
N6 C7' 1.4654(13)
C8 C3 1.5175(16)
C8 H8A 0.9800
C8 H8B 0.9800
C8 H8C 0.9800
C3 H3 1.0000
C7' C1' 1.5146(14)
C7' H7'1 0.9900
C7' H7'2 0.9900
C1' C6' 1.3896(15)
C1' C2' 1.4130(15)
C2' C3' 1.3762(15)
C2' H2' 0.9500
C3' C4' 1.3867(15)
C1'' H1'1 0.9900
C1'' H1'2 0.9900
C4' C5' 1.3715(15)
C7 C7A 1.5173(14)
C7A C1 1.5446(14)
C7A H7A 1.0000
C1 H1A 0.9900
C1 H1B 0.9900
C6' C5' 1.4091(15)
C6' H6' 0.9500
C5' H5' 0.9500
loop_
_geom_hbond_atom_site_label_D
_geom_hbond_atom_site_label_H
_geom_hbond_atom_site_label_A
_geom_hbond_distance_DH
_geom_hbond_distance_HA
_geom_hbond_distance_DA
_geom_hbond_angle_DHA
_geom_hbond_site_symmetry_A
C5' H5' O7 0.95 2.59 3.3462(14) 136.5 2
C2' H2' S1 0.95 2.89 3.6554(11) 138.5 .
C8 H8A O7 0.98 2.61 3.5360(15) 158.7 1_565
C5' H5' O7 0.95 2.59 3.3462(14) 136.5 2
C2' H2' S1 0.95 2.89 3.6554(11) 138.5 .
C8 H8A O7 0.98 2.61 3.5360(15) 158.7 1_565
C5' H5' O7 0.95 2.59 3.3462(14) 136.5 2
C2' H2' S1 0.95 2.89 3.6554(11) 138.5 .
C8 H8A O7 0.98 2.61 3.5360(15) 158.7 1_565
C8 H8A O7 0.98 2.61 3.5360(15) 158.7 1_565
C2' H2' S1 0.95 2.89 3.6554(11) 138.5 .
C5' H5' O7 0.95 2.59 3.3462(14) 136.5 2
C8 H8A O7 0.98 2.61 3.5360(15) 158.7 1_565
C2' H2' S1 0.95 2.89 3.6554(11) 138.5 .
C5' H5' O7 0.95 2.59 3.3462(14) 136.5 2
loop_
_geom_torsion_atom_site_label_1
_geom_torsion_atom_site_label_2
_geom_torsion_atom_site_label_3
_geom_torsion_atom_site_label_4
_geom_torsion
C5 N4 C3 C8 135.08(11)
C7A N4 C3 C8 -84.29(11)
C5 N4 C3 S2 -104.19(10)
C7A N4 C3 S2 36.45(10)
C1 S2 C3 N4 -15.94(8)
C1 S2 C3 C8 104.51(8)
C3 N4 C5 N6 156.18(9)
C7A N4 C5 N6 14.75(11)
C3 N4 C5 S1 -24.00(15)
C7A N4 C5 S1 -165.42(8)
C7 N6 C5 N4 -8.41(12)
C7' N6 C5 N4 178.46(9)
C7 N6 C5 S1 171.76(8)
C7' N6 C5 S1 -1.37(15)
C7 N6 C7' C1' 92.77(12)
C5 N6 C7' C1' -94.77(12)
N6 C7' C1' C6' -114.17(11)
N6 C7' C1' C2' 66.56(13)
C6' C1' C2' C3' 0.74(16)
C7' C1' C2' C3' 180.00(10)
C1' C2' C3' O3' -178.47(11)
C1' C2' C3' C4' -1.16(17)
C1'' O3' C3' C2' -169.60(12)
C1'' O3' C3' C4' 12.82(13)
C4' O4' C1'' O3' 20.14(13)
C3' O3' C1'' O4' -20.29(13)
C1'' O4' C4' C5' 169.38(12)
C1'' O4' C4' C3' -12.38(12)
C2' C3' C4' C5' 0.26(18)
O3' C3' C4' C5' 178.01(10)
C2' C3' C4' O4' -178.10(10)
O3' C3' C4' O4' -0.35(13)
C5 N6 C7 O7 -179.02(10)
C7' N6 C7 O7 -5.63(16)
C5 N6 C7 C7A -0.93(11)
C7' N6 C7 C7A 172.46(9)
C5 N4 C7A C7 -14.72(11)
C3 N4 C7A C7 -160.68(8)
C5 N4 C7A C1 103.64(10)
C3 N4 C7A C1 -42.32(11)
O7 C7 C7A N4 -172.93(11)
N6 C7 C7A N4 9.04(10)
O7 C7 C7A C1 72.95(14)
N6 C7 C7A C1 -105.09(10)
N4 C7A C1 S2 26.36(10)
C7 C7A C1 S2 137.38(8)
C3 S2 C1 C7A -5.94(8)
C2' C1' C6' C5' 0.58(17)
C7' C1' C6' C5' -178.68(10)
O4' C4' C5' C6' 179.09(10)
C3' C4' C5' C6' 1.05(17)
C1' C6' C5' C4' -1.46(16)
