#------------------------------------------------------------------------------
#$Date: 2017-01-08 06:00:59 +0200 (Sun, 08 Jan 2017) $
#$Revision: 190043 $
#$URL: file:///home/coder/svn-repositories/cod/cif/1/54/50/1545013.cif $
#------------------------------------------------------------------------------
#
# This file is available in the Crystallography Open Database (COD),
# http://www.crystallography.net/. The original data for this entry
# were provided by IUCr Journals, http://journals.iucr.org/.
#
# The file may be used within the scientific community so long as
# proper attribution is given to the journal article from which the
# data were obtained.
#
data_1545013
loop_
_publ_author_name
'Naveen, S.'
'Suresha, E.'
'Sudha, A. G.'
'Lokanath, N. K.'
'Suchetan, P. A.'
'Abdoh, M.'
_publ_section_title
;
 4-Iodo-<i>N</i>-(<i>o</i>-tolylsulfonyl)benzamide
;
_journal_issue                   1
_journal_name_full               IUCrData
_journal_page_first              x162030
_journal_paper_doi               10.1107/S2414314616020307
_journal_volume                  2
_journal_year                    2017
_chemical_formula_iupac          'C14 H12 I N O3 S'
_chemical_formula_moiety         'C14 H12 I N O3 S'
_chemical_formula_sum            'C14 H12 I N O3 S'
_chemical_formula_weight         401.21
_chemical_melting_point          450
_chemical_name_systematic
;
4-Iodo-<i>N</i>-(<i>o</i>-tolylsulfonyl)benzamide
;
_space_group_crystal_system      triclinic
_space_group_IT_number           2
_space_group_name_Hall           '-P 1'
_space_group_name_H-M_alt        'P -1'
_symmetry_space_group_name_Hall  '-P 1'
_symmetry_space_group_name_H-M   'P -1'
_atom_sites_solution_hydrogens   geom
_atom_sites_solution_secondary   difmap
_audit_creation_method           SHELXL-2016/6
_cell_angle_alpha                119.140(4)
_cell_angle_beta                 94.668(5)
_cell_angle_gamma                93.182(5)
_cell_formula_units_Z            4
_cell_length_a                   11.0543(10)
_cell_length_b                   12.1612(10)
_cell_length_c                   12.3464(10)
_cell_measurement_reflns_used    133
_cell_measurement_temperature    173(2)
_cell_measurement_theta_max      64.4
_cell_measurement_theta_min      4.0
_cell_volume                     1436.2(2)
_computing_cell_refinement
;
APEX2 and SAINT-Plus (Bruker, 2009)
;
_computing_data_collection
;
APEX2 (Bruker, 2009)
;
_computing_data_reduction
;
SAINT-Plus and XPREP (Bruker, 2009)
;
_computing_molecular_graphics
;
Mercury (Macrae <i>et al.</i>,  2008)
;
_computing_publication_material
;
SHELXL2016 (Sheldrick, 2015b)
;
_computing_structure_refinement
;
SHELXL2016 (Sheldrick, 2015b)
;
_computing_structure_solution
;
SHELXT2016 (Sheldrick, 2015a)
;
_diffrn_ambient_temperature      173(2)
_diffrn_measured_fraction_theta_full 0.980
_diffrn_measured_fraction_theta_max 0.980
_diffrn_measurement_device_type  'Bruker APEXII CCD'
_diffrn_measurement_method       '\w and \f scans'
_diffrn_radiation_type           CuK\a
_diffrn_radiation_wavelength     1.54178
_diffrn_reflns_av_R_equivalents  0.0924
_diffrn_reflns_limit_h_max       12
_diffrn_reflns_limit_h_min       -12
_diffrn_reflns_limit_k_max       14
_diffrn_reflns_limit_k_min       -14
_diffrn_reflns_limit_l_max       14
_diffrn_reflns_limit_l_min       -14
_diffrn_reflns_number            17365
_diffrn_reflns_theta_full        64.427
_diffrn_reflns_theta_max         64.427
_diffrn_reflns_theta_min         5.409
_exptl_absorpt_coefficient_mu    18.944
_exptl_absorpt_correction_T_max  0.266
_exptl_absorpt_correction_T_min  0.124
_exptl_absorpt_correction_type   multi-scan
_exptl_absorpt_process_details
;
(SADABS; Bruker, 2009)
;
_exptl_crystal_colour            colourless
_exptl_crystal_density_diffrn    1.855
_exptl_crystal_description       Prism
_exptl_crystal_F_000             784
_exptl_crystal_size_max          0.250
_exptl_crystal_size_mid          0.120
_exptl_crystal_size_min          0.070
_refine_diff_density_max         1.402
_refine_diff_density_min         -1.392
_refine_ls_extinction_method     none
_refine_ls_goodness_of_fit_ref   1.050
_refine_ls_hydrogen_treatment    constr
_refine_ls_matrix_type           full
_refine_ls_number_parameters     363
_refine_ls_number_reflns         4724
_refine_ls_number_restraints     0
_refine_ls_restrained_S_all      1.050
_refine_ls_R_factor_all          0.0814
_refine_ls_R_factor_gt           0.0624
_refine_ls_shift/su_max          0.000
_refine_ls_shift/su_mean         0.000
_refine_ls_structure_factor_coef Fsqd
_refine_ls_weighting_details
'w=1/[\s^2^(Fo^2^)+(0.1130P)^2^] where P=(Fo^2^+2Fc^2^)/3'
_refine_ls_weighting_scheme      calc
_refine_ls_wR_factor_gt          0.1633
_refine_ls_wR_factor_ref         0.1816
_reflns_number_gt                3621
_reflns_number_total             4724
_reflns_threshold_expression     'I > 2\s(I)'
_cod_data_source_file            su4116sup1.cif
_cod_data_source_block           I
_cod_database_code               1545013
_shelx_space_group_comment
;
The symmetry employed for this shelxl refinement is uniquely defined
by the following loop, which should always be used as a source of
symmetry information in preference to the above space-group names.
They are only intended as comments.
;
_shelx_estimated_absorpt_t_min   0.088
_shelx_estimated_absorpt_t_max   0.351
_shelx_hkl_file
;
  -2   0   0   45.70    4.90
  -2   0   0   53.79    4.90
  -2   0   0   42.60    7.40
   2   0   0   55.39    4.90
   2   0   0   44.50    6.20
   2   0   0   36.40    4.80
  -3   0   0  273.97   29.90
  -3   0   0  258.07   26.40
  -3   0   0  276.57   26.20
   3   0   0  282.07   26.30
   3   0   0  244.88   27.80
   3   0   0  269.57   26.30
  -4   0   0    2.20    1.90
  -4   0   0    3.40    8.00
  -4   0   0    1.10    1.40
   4   0   0    3.50    1.90
   4   0   0    2.10    1.40
   4   0   0   -1.80    4.70
  -5   0   0  532.75   60.09
  -5   0   0  707.23   68.39
   5   0   0  641.74   60.39
  -6   0   0  728.13   75.49
   6   0   0  694.03   69.59
  -7   0   0   -6.80   12.00
   7   0   0  -15.50   12.60
   7   0   0  -10.20    5.90
  -8   0   0  288.77   38.90
   8   0   0  228.68   30.10
  -9   0   0   40.40   20.80
   9   0   0   15.00   21.40
 -10   0   0    2.80   15.50
 -10   0   0    3.80    4.40
 -10   0   0   11.50    8.10
  10   0   0    6.60    6.80
  10   0   0   16.70   23.00
 -11   0   0  106.39   15.40
 -11   0   0   60.99   10.20
  11   0   0  105.79   27.60
 -12   0   0   29.90    5.50
 -12   0   0   17.70   15.80
  12   0   0   67.79   19.00
  12  -1   0   19.30   21.50
 -12   1   0   -5.90   16.40
 -12   1   0    0.20    7.50
 -12   1   0   -0.70    3.40
  11  -1   0   57.39   30.00
 -11   1   0    7.60   18.10
 -11   1   0   81.09   13.50
 -11   1   0   42.30    7.30
  10  -1   0  101.59   19.30
 -10   1   0  122.99   14.30
 -10   1   0  117.39   18.20
 -10   1   0  141.59   33.00
   9  -1   0   42.10   12.20
  -9   1   0   63.99   21.20
   8  -1   0   37.10   12.40
  -8   1   0   51.89    7.10
  -8   1   0   47.10    7.20
  -8   1   0   19.80   18.00
   7  -1   0   11.50    6.10
   7  -1   0   -2.70   10.30
  -7   1   0   22.70    4.20
   6  -1   0  194.08   20.20
  -6   1   0  191.08   39.10
   5  -1   0  172.58   17.70
   4  -1   0   20.70    3.20
   4  -1   0   18.60    2.90
  -4   1   0   14.90    2.70
   3  -1   0  681.33   62.09
   3  -1   0  619.04   62.09
  -3   1   0  623.54   62.09
   2  -1   0   31.60    3.30
  -2   1   0   26.10    3.20
   1  -1   0    7.00    1.20
   1  -1   0    8.20    1.20
  -1   1   0    8.30    1.20
  -1  -1   0   19.70    3.50
  -1  -1   0   13.80    1.90
  -1  -1   0   21.90    2.20
   1   1   0   18.40    2.10
   1   1   0   13.40    3.20
   1   1   0   18.80    2.00
  -2  -1   0  427.66   44.80
  -2  -1   0  450.25   42.80
   2   1   0  463.05   42.80
   2   1   0  462.15   42.70
   2   1   0  384.06   44.00
  -3  -1   0  571.54   55.99
  -3  -1   0  573.94   55.89
  -3  -1   0  620.94   59.79
   3   1   0  557.74   57.89
   3   1   0  567.24   55.99
   3   1   0  573.44   55.89
  -4  -1   0  116.89   17.70
  -4  -1   0  105.39   10.40
  -4  -1   0   89.59   10.60
   4   1   0   89.59   13.60
   4   1   0  117.19   10.60
   4   1   0   86.89   10.30
  -5  -1   0  121.69   24.00
  -5  -1   0  112.19   11.80
   5   1   0  128.69   12.40
   5   1   0   87.99   16.30
  -6  -1   0  426.26   42.90
   6   1   0  306.97   38.70
  -7  -1   0   10.20    7.30
  -7  -1   0    6.00   12.00
   7   1   0    6.40    5.40
   7   1   0  -11.00   14.30
  -8  -1   0   10.90   15.90
  -8  -1   0   -1.60    7.60
   8   1   0   14.40   18.70
   8   1   0    5.40    5.40
  -9  -1   0   74.89   23.90
  -9  -1   0   80.49   10.70
   9   1   0   90.49   14.40
   9   1   0   81.29   25.60
 -10  -1   0   17.60    5.10
 -10  -1   0    4.40   15.50
  10   1   0   17.20    7.10
  10   1   0   39.00   21.30
 -11  -1   0   36.00    9.50
 -11  -1   0   15.40   16.70
 -11  -1   0    9.30    5.00
  11   1   0   35.30   18.10
 -12  -1   0   -5.80    4.10
 -12  -1   0   -1.80   14.70
 -12  -1   0   -2.30    6.80
  12   1   0    3.80   12.00
  12  -2   0   35.00   26.60
 -12   2   0   14.40    7.30
 -12   2   0    1.80   16.70
 -12   2   0    1.90    3.50
  11  -2   0   62.09   34.80
 -11   2   0   22.60    5.40
 -11   2   0   42.50   10.00
 -11   2   0   14.70   19.80
  10  -2   0   27.70   30.80
 -10   2   0   77.79   23.90
 -10   2   0   87.59   10.60
  -9   2   0  161.58   20.30
  -9   2   0  128.29   16.10
  -9   2   0  149.69   16.80
  -9   2   0  134.39   31.00
  -8   2   0  123.89   15.50
  -8   2   0  131.49   18.40
  -8   2   0  154.98   28.60
  -8   2   0  137.49   15.00
  -7   2   0  598.24   60.29
  -7   2   0  500.65   50.09
  -7   2   0  469.15   50.99
  -7   2   0  498.85   52.29
  -7   2   0  489.65   50.19
   6  -2   0    2.80    3.40
  -6   2   0   -3.10    2.30
  -6   2   0   -0.30    5.90
  -6   2   0   -4.70    5.00
  -6   2   0   -2.00    2.50
   5  -2   0    2.30    2.70
   4  -2   0  852.91   83.19
   4  -2   0  894.91   83.29
  -4   2   0  832.02   83.19
   3  -2   0    1.50    1.30
   3  -2   0    5.80    1.30
  -3   2   0    1.90    1.30
   2  -2   0 1559.54  130.99
   2  -2   0 1160.68  130.99
   0  -2   0    4.40    2.20
   0  -2   0    4.40    1.00
   0   2   0    5.20    2.00
  -1  -2   0  180.98   17.40
   1   2   0  172.28   17.30
   1   2   0  193.28   18.90
   1   2   0  164.48   17.30
  -2  -2   0  506.15   46.80
  -2  -2   0  391.56   43.70
  -2  -2   0  498.55   43.90
   2   2   0  476.45   43.90
   2   2   0  426.86   43.70
   2   2   0  416.86   45.60
  -3  -2   0    1.60    1.80
  -3  -2   0    5.20    1.60
  -3  -2   0   23.60    8.80
   3   2   0    1.20    4.20
   3   2   0    2.70    1.50
   3   2   0    7.10    1.90
  -4  -2   0 1601.84  164.18
  -4  -2   0 1731.73  170.08
  -4  -2   0 1908.31  164.18
   4   2   0 1496.45  166.68
   4   2   0 1756.52  164.18
  -5  -2   0  134.79   14.20
  -6  -2   0   46.10   14.30
  -6  -2   0   34.90    7.50
   6   2   0   31.60    8.00
   6   2   0    6.40   13.90
  -7  -2   0  337.37   41.20
  -7  -2   0  329.27   34.50
   7   2   0  310.17   35.10
  -8  -2   0   78.09   23.70
  -8  -2   0  117.09   15.80
   8   2   0  149.19   28.80
   8   2   0  110.19   15.80
  -9  -2   0    7.70    7.70
  -9  -2   0    5.90   18.10
  -9  -2   0    5.80    3.90
   9   2   0    3.50    5.20
   9   2   0   -1.90   14.20
 -10  -2   0   73.69   11.50
  10   2   0  106.19   15.20
 -11  -2   0    9.90   16.50
 -11  -2   0   38.30    9.80
  11   2   0   43.40   16.20
 -12  -2   0    3.90    7.10
 -12  -2   0   -7.90   14.00
  12   2   0    0.60    9.70
  12   2   0    0.50    5.30
  12  -3   0   46.90   31.20
 -12   3   0    1.30   14.50
 -12   3   0    6.50    3.40
 -12   3   0   11.80    6.80
  11  -3   0   73.79   39.00
 -11   3   0    4.20    4.00
 -11   3   0   11.50    7.40
 -11   3   0    3.30    4.60
 -11   3   0    1.70   18.30
 -10   3   0  218.08   25.90
 -10   3   0  256.37   26.30
 -10   3   0  271.67   29.50
  -9   3   0    8.60   17.50
  -9   3   0   37.40    6.90
  -9   3   0   66.09    9.10
   8  -3   0   -7.20    8.60
  -8   3   0   -1.70    3.90
  -8   3   0   -3.30    7.00
  -8   3   0   -1.40    4.00
  -8   3   0   15.30   16.80
  -7   3   0  524.45   49.80
  -7   3   0  501.65   49.90
  -7   3   0  562.34   52.19
  -7   3   0  452.75   54.99
  -7   3   0  458.65   50.59
   6  -3   0   10.10    7.70
   6  -3   0    0.40    3.90
  -6   3   0    3.10    2.40
  -6   3   0   35.80   26.20
  -6   3   0    0.70    3.10
  -6   3   0   -0.90    5.10
  -6   3   0    1.90    2.60
  -6   3   0    1.20    6.20
   5  -3   0   19.00    4.00
   4  -3   0  415.86   36.70
   4  -3   0  376.16   36.60
  -4   3   0  332.67   36.60
   3  -3   0   12.90    2.30
   3  -3   0   10.50    1.80
   0  -3   0  131.49   14.50
   0   3   0  121.29   13.90
  -1  -3   0  212.68   19.80
  -1  -3   0  175.78   19.60
   1   3   0  197.18   19.70
   1   3   0  217.48   21.90
  -2  -3   0  792.62   75.59
  -2  -3   0  770.52   72.09
  -2  -3   0  816.12   71.99
   2   3   0  687.43   71.99
   2   3   0  649.64   74.09
  -3  -3   0   -1.20    8.20
  -3  -3   0    4.80    1.90
  -3  -3   0    5.10    2.50
   3   3   0    4.40    2.10
   3   3   0    3.50    5.40
  -4  -3   0  149.39   15.50
  -5  -3   0  237.58   26.90
  -5  -3   0  259.37   33.10
  -5  -3   0  247.18   25.30
   5   3   0  221.48   30.60
   5   3   0  271.07   27.30
  -6  -3   0   10.60    5.80
  -6  -3   0    2.00   11.90
   6   3   0    6.30    4.00
   6   3   0    2.40   11.10
  -7  -3   0  136.19   16.80
   7   3   0  121.99   16.50
   7   3   0  121.29   23.90
  -8  -3   0    0.70   15.50
  -8  -3   0   -1.90    6.80
   8   3   0    0.20    4.90
   8   3   0   -2.80   11.30
  -9  -3   0   -4.60   16.20
  -9  -3   0    1.60    7.40
   9   3   0   11.90   12.20
   9   3   0    6.70    5.90
 -10  -3   0   66.69   11.80
 -10  -3   0   47.20   19.10
  10   3   0   85.09   13.40
 -11  -3   0   11.20    7.20
 -11  -3   0   -0.80   14.50
  11   3   0    2.00    5.60
  11   3   0    9.00   10.80
 -12  -3   0    8.70   14.20
  12   3   0  -20.00   16.60
  12  -4   0   46.80   34.00
 -12   4   0    1.70    3.40
 -12   4   0    0.40    6.70
 -12   4   0    2.10    5.80
  11  -4   0   69.39   43.50
 -11   4   0   96.39   14.00
 -11   4   0   93.69   11.50
 -11   4   0   86.69   11.80
  10  -4   0   -1.20   33.50
 -10   4   0    0.20    7.50
 -10   4   0   25.60   21.60
 -10   4   0    4.10    4.70
 -10   4   0    7.10    4.00
  -9   4   0  156.48   33.70
  -9   4   0  133.09   16.10
  -9   4   0  125.59   15.50
  -9   4   0  136.79   18.60
  -8   4   0   53.99   16.50
  -8   4   0   53.09    9.60
  -8   4   0   44.40   22.20
  -8   4   0   58.19   11.20
  -8   4   0   44.30    8.40
  -8   4   0   62.79    8.80
  -7   4   0  127.29   28.40
  -7   4   0  116.69   13.70
  -7   4   0  106.79   16.80
  -7   4   0  121.59   14.00
  -7   4   0  121.79   21.30
  -7   4   0  107.09   14.20
  -6   4   0  157.58   17.40
  -6   4   0  150.68   16.70
  -6   4   0  150.68   20.70
  -6   4   0  154.08   18.80
  -6   4   0  154.58   16.70
  -5   4   0  448.96   46.40
  -5   4   0  467.95   47.00
  -5   4   0  484.95   46.40
  -5   4   0  464.35   49.20
  -5   4   0  474.95   47.50
   4  -4   0    3.10    2.60
   0  -4   0  735.63   74.89
   0  -4   0  841.22   77.49
   0   4   0  744.73   76.79
  -1  -4   0   46.40    4.90
  -1  -4   0   48.40    5.20
  -1  -4   0   48.80   10.00
   1   4   0   40.80    5.10
   1   4   0   32.40    7.60
  -2  -4   0   -2.20    7.20
  -2  -4   0    6.30    1.90
  -2  -4   0    7.00    2.30
   2   4   0    1.30    4.70
  -3  -4   0 1919.11  185.38
  -4  -4   0   58.89    8.10
   4   4   0   63.79   12.40
   4   4   0   73.89    9.70
   4   4   0   45.40    9.10
  -5  -4   0    6.30    4.50
  -5  -4   0    4.90    4.50
  -5  -4   0    3.10   14.30
   5   4   0    0.70    4.00
   5   4   0   12.40    8.00
   5   4   0    6.30    3.90
  -6  -4   0  104.59   22.20
  -6  -4   0  129.09   15.60
   6   4   0  115.59   19.30
   6   4   0  114.59   15.80
  -7  -4   0    5.60   14.20
  -7  -4   0   -1.50    6.30
   7   4   0    1.90    9.10
   7   4   0    3.00    4.60
  -8  -4   0   56.09   11.60
   8   4   0   57.49   11.70
   8   4   0   56.49   15.40
  -9  -4   0  171.78   19.00
   9   4   0  138.39   19.30
   9   4   0  155.78   22.60
   9   4   0  107.89   19.30
 -10  -4   0    9.40   14.50
 -10  -4   0    3.80    7.00
  10   4   0    2.20    5.00
  10   4   0   -1.60    9.30
  10   4   0   -1.30    5.60
 -11  -4   0   15.30   14.50
 -11  -4   0   43.60    9.90
  11   4   0   72.79   14.40
  12  -5   0   25.20   31.50
 -11   5   0  187.08   20.60
 -11   5   0  168.88   21.20
 -11   5   0  209.48   20.40
  10  -5   0  -41.00   34.00
 -10   5   0    3.40    3.90
 -10   5   0    2.50    4.00
 -10   5   0    5.30    6.90
   9  -5   0  -21.10   11.20
  -9   5   0    4.80    4.60
  -9   5   0   10.90    4.60
  -9   5   0    9.90    7.20
  -8   5   0  265.27   27.80
  -8   5   0  286.77   26.00
  -8   5   0  257.67   26.30
  -8   5   0  187.98   34.30
  -8   5   0  195.88   26.60
   7  -5   0    2.80    9.50
  -7   5   0    4.80    4.10
  -7   5   0    6.30    3.90
  -7   5   0   10.50    9.50
  -7   5   0    8.10    4.40
  -7   5   0    4.60    6.80
  -6   5   0  112.29   13.70
  -6   5   0  118.89   14.90
  -6   5   0  111.99   13.20
  -6   5   0  115.79   14.10
  -6   5   0  116.59   18.00
  -5   5   0  231.58   27.40
  -5   5   0  231.68   24.90
  -5   5   0  248.38   24.90
  -5   5   0  221.48   24.00
  -5   5   0  237.58   24.50
  -4   5   0    1.80    3.10
  -4   5   0    4.10    4.50
  -4   5   0    0.70    2.60
  -4   5   0   -1.70    2.80
  -4   5   0    6.40    3.50
  -4   5   0    1.90    2.60
  -3   5   0  454.85   45.50
   0  -5   0  727.43   70.79
   0   5   0  650.33   69.59
  -1  -5   0  328.57   30.80
  -1  -5   0  289.97   36.50
  -2  -5   0    4.40    2.40
  -3  -5   0  732.83   66.69
   3   5   0  656.43   69.59
   3   5   0  711.93   67.89
   3   5   0  626.24   67.49
   4   5   0   87.89   11.90
   4   5   0   92.19   14.90
   4   5   0   83.89   10.70
   4   5   0   67.59   12.00
   4   5   0  106.79   12.90
  -5  -5   0   -9.70   12.80
  -5  -5   0   -0.20    4.70
   5   5   0   -0.80    4.20
   5   5   0    4.70    7.60
   5   5   0    5.60    4.20
   5   5   0    3.30    4.90
  -6  -5   0  255.87   35.40
  -6  -5   0  293.97   29.10
   6   5   0  218.78   29.90
   6   5   0  257.87   32.10
   6   5   0  275.67   30.20
  -7  -5   0   49.40    9.80
  -7  -5   0   19.10   17.30
   7   5   0   29.80    9.00
   7   5   0   37.40   14.50
   7   5   0   36.60    9.60
  -8  -5   0   -2.70    6.40
  -8  -5   0   -3.60   16.90
   8   5   0    1.10    9.80
   8   5   0    2.00    4.70
   8   5   0   -1.20    6.00
  -9  -5   0  159.88   19.20
   9   5   0  138.59   19.60
   9   5   0  154.48   22.90
 -10  -5   0   16.70    7.10
 -10  -5   0   -4.70   14.20
  10   5   0   14.20   11.90
  10   5   0    3.60    5.30
  10   5   0   12.70    6.20
  11   5   0    5.90    4.90
  11   5   0   10.30   14.10
  11  -6   0   38.10   37.90
 -11   6   0   38.60    6.70
 -11   6   0   40.40    6.20
  10  -6   0  -32.60   33.80
 -10   6   0   15.70    4.70
 -10   6   0   17.00    6.60
   9  -6   0  -17.50   12.50
  -9   6   0    2.30   12.20
  -9   6   0   10.80    4.70
  -9   6   0   12.80    6.70
  -9   6   0    8.50    4.40
  -8   6   0  161.48   15.70
  -8   6   0  100.39   15.70
  -8   6   0  136.19   17.20
  -8   6   0  175.28   29.40
  -7   6   0   76.49   12.60
  -7   6   0   88.29   11.00
  -7   6   0   79.99   12.20
  -7   6   0  102.19   20.90
  -7   6   0   80.69   11.40
  -6   6   0  105.39   12.00
  -6   6   0   84.79   16.80
  -6   6   0   95.89   12.60
  -6   6   0   83.99   12.20
  -6   6   0   91.69   11.60
  -5   6   0   28.50    5.80
  -5   6   0   24.90    5.00
  -5   6   0   28.00    8.00
  -5   6   0   18.80    5.40
  -5   6   0   32.70    5.50
  -5   6   0   13.00    6.80
  -4   6   0   86.39   10.50
  -4   6   0   74.79   11.20
  -4   6   0   82.69   10.20
  -4   6   0   68.79   10.30
  -4   6   0   78.59   12.30
  -4   6   0   92.49   11.80
  -3   6   0   29.00    7.30
  -3   6   0   27.90    5.10
  -3   6   0   32.40    6.30
  -3   6   0   31.60    6.80
  -3   6   0   36.20    6.10
  -3   6   0   24.60    5.20
  -3   6   0   33.70    5.70
  -2   6   0   -0.20    3.00
  -2   6   0    1.00    3.00
  -2   6   0    3.90    5.90
  -2   6   0    7.40    2.70
  -2   6   0    5.30    3.20
  -2   6   0    5.00    3.40
  -1   6   0  150.28   14.90
  -1   6   0  165.68   14.80
  -1   6   0  117.99   17.00
  -1   6   0  108.99   17.40
   0   6   0   -1.20    2.30
   0   6   0    3.90    2.40
   0   6   0    3.70    5.60
   0   6   0   -1.40    2.90
   0   6   0   -0.20    3.70
   0   6   0    1.10    2.10
   0   6   0    3.10    3.70
   1   6   0   54.19    7.00
   1   6   0   42.30    8.10
   1   6   0   41.80   10.00
   1   6   0   42.20    5.90
   1   6   0   52.59    6.90
   1   6   0   47.60    9.50
   2   6   0  696.43   67.79
   2   6   0  673.63   66.19
   2   6   0  622.74   65.29
   2   6   0  616.94   68.19
   2   6   0  767.52   68.29
   2   6   0  630.34   65.09
   3   6   0    5.20    6.10
   3   6   0   -0.30    4.00
   3   6   0   -2.70    3.00
   3   6   0    0.60    2.40
   3   6   0    2.10    3.00
   3   6   0    1.50    2.90
  -4  -6   0    9.00    5.20
   4   6   0    1.60    3.90
   4   6   0    5.30    3.80
   4   6   0    6.30    3.90
   4   6   0    5.80    3.50
   4   6   0    5.80    7.20
  -5  -6   0   77.29   12.60
   5   6   0   91.29   16.00
   5   6   0   73.49   12.10
   5   6   0   72.29   13.00
   5   6   0   61.19   12.40
  -6  -6   0   13.30    5.50
   6   6   0    9.70    6.20
   6   6   0    8.50   10.30
   6   6   0    7.30    5.30
  -7  -6   0   76.99   12.50
   7   6   0   93.99   21.20
   7   6   0   68.49   12.50
   7   6   0   56.29   13.70
  -8  -6   0   73.89   13.60
   8   6   0  121.29   18.90
   8   6   0   86.99   14.40
  -9  -6   0   11.90    6.30
   9   6   0    6.60    5.30
   9   6   0    2.30    4.80
   9   6   0   11.20   11.20
 -10  -6   0   26.60    7.40
  10   6   0   48.00   12.40
  11  -7   0   31.50   29.90
 -10   7   0    7.90    4.60
 -10   7   0    7.60    3.80
  -9   7   0   54.79   19.20
  -9   7   0   20.30    5.90
  -9   7   0   16.60    4.70
   8  -7   0    4.60   12.20
  -8   7   0    4.30    4.00
  -8   7   0    3.10   11.40
  -8   7   0    5.50    4.10
  -7   7   0  342.07   46.10
  -7   7   0  399.96   39.40
  -7   7   0  386.26   40.10
  -7   7   0  423.66   41.90
  -6   7   0  163.68   24.80
  -6   7   0  159.98   20.90
  -6   7   0  180.68   20.00
  -6   7   0  202.78   19.80
  -5   7   0    4.40    3.70
  -5   7   0    3.80    4.40
  -5   7   0    1.80    4.00
  -5   7   0    3.20    5.90
  -4   7   0  299.17   29.10
  -4   7   0  256.27   30.60
  -4   7   0  295.17   30.00
  -4   7   0  297.37   32.30
  -4   7   0  302.47   30.10
  -4   7   0  226.88   29.80
  -3   7   0  103.59   13.50
  -3   7   0   91.49   12.40
  -3   7   0   89.29   12.40
  -3   7   0   86.09   12.10
  -3   7   0  107.69   13.10
  -3   7   0  121.49   15.10
  -2   7   0   35.50    8.60
  -2   7   0   40.90    7.40
  -2   7   0   45.20    7.10
  -2   7   0   31.30    7.50
  -2   7   0   40.30    6.40
  -1   7   0  260.27   31.70
  -1   7   0  248.98   30.00
  -1   7   0  271.67   29.50
  -1   7   0  301.87   29.30
  -1   7   0  340.27   29.40
  -1   7   0  290.27   32.20
   0   7   0   94.59    9.90
   0   7   0   70.39   12.50
   0   7   0   62.89   10.80
   0   7   0   92.89   10.80
   0   7   0   92.89   14.40
   0   7   0   88.39   10.60
   0   7   0   73.49   14.30
   1   7   0  180.08   17.90
   1   7   0  156.18   20.30
   1   7   0  167.08   18.80
   1   7   0  180.88   21.00
   1   7   0  160.28   21.50
   1   7   0  164.68   18.50
   2   7   0  569.34   60.89
   2   7   0  597.24   57.99
   2   7   0  532.15   60.19
   2   7   0  626.44   59.09
   2   7   0  597.54   57.69
  -3  -7   0   13.50    6.30
   3   7   0   19.40    5.10
   3   7   0   22.60    6.70
   3   7   0   16.80    4.60
   3   7   0   21.10    5.80
   3   7   0   25.80    7.10
   3   7   0   26.80    9.50
  -4  -7   0  121.59   15.80
   4   7   0  125.79   14.30
   4   7   0  104.49   17.00
   4   7   0  108.09   18.30
   4   7   0  116.09   16.30
  -5  -7   0  197.18   24.70
   5   7   0  212.38   26.40
   5   7   0  225.28   26.50
   5   7   0  234.18   28.20
  -6  -7   0   -1.30    5.10
   6   7   0   -0.10    5.30
   6   7   0    2.40    8.70
   6   7   0   -0.30    3.70
  -7  -7   0   46.70   10.70
   7   7   0   51.59   11.40
   7   7   0   72.89   15.60
   7   7   0   61.69   11.60
  -8  -7   0  104.69   13.80
   8   7   0  104.69   18.20
   8   7   0   89.09   14.30
  -9  -7   0   15.30    5.60
   9   7   0    1.10    5.20
   9   7   0    5.40    9.10
   9   7   0    8.70    5.20
  10  -8   0   -5.20   25.00
 -10   8   0    1.50    4.00
  -9   8   0   63.19   19.00
  -9   8   0   31.90    6.70
   8  -8   0    0.60   11.10
  -8   8   0   24.40   14.90
  -8   8   0   19.40    5.70
  -7   8   0    1.40    4.50
  -7   8   0   -0.90    8.20
  -6   8   0   19.10    9.50
  -6   8   0   41.70    8.90
  -6   8   0   25.00    6.40
  -5   8   0   20.70    7.90
  -5   8   0   30.10    8.90
  -5   8   0   57.19    9.70
  -5   8   0   43.50    7.40
  -4   8   0  100.79   15.10
  -4   8   0  125.99   14.30
  -4   8   0  115.49   16.50
  -4   8   0  110.39   16.60
  -3   8   0   -1.80    3.70
  -3   8   0    2.40    3.50
  -3   8   0   -2.10    4.10
  -3   8   0   -0.90    5.20
  -2   8   0  189.48   20.40
  -2   8   0  184.48   19.90
  -2   8   0  165.68   21.20
  -1   8   0    2.10    7.50
  -1   8   0    3.70    4.40
  -1   8   0    5.30    4.30
  -1   8   0    1.80    3.00
  -1   8   0    2.90    3.70
  -1   8   0    8.30    4.00
   0   8   0    5.00    4.30
   0   8   0    6.70    5.10
   0   8   0    5.10    7.20
   0   8   0    5.70    4.60
   0   8   0    8.00    3.80
   0   8   0    6.80    3.50
   1   8   0    8.70    7.30
   1   8   0    0.90    3.00
   1   8   0    0.60    3.40
   1   8   0    2.10    4.20
   1   8   0    4.70    3.80
  -2  -8   0   18.80    6.90
   2   8   0   22.40    6.30
   2   8   0   28.80    9.80
   2   8   0   16.90    6.80
   2   8   0   15.10    6.30
   2   8   0   25.90    5.80
   2   8   0   20.10    5.10
  -3  -8   0    8.60    6.50
   3   8   0   14.70    4.50
   3   8   0   13.30    5.60
   3   8   0   10.00    5.60
   3   8   0   20.60    9.40
   3   8   0   10.70    5.60
   3   8   0    4.70    4.80
  -4  -8   0   55.29    9.60
   4   8   0   63.09   14.20
   4   8   0   36.80    9.60
   4   8   0   33.10    9.30
   4   8   0   24.00    7.70
  -5  -8   0    8.60    6.70
   5   8   0    4.60    5.90
   5   8   0   10.50    5.60
   5   8   0   12.00   10.30
  -6  -8   0  105.69   14.20
   6   8   0  107.99   18.30
   6   8   0   84.79   14.60
  -7  -8   0    3.30    5.70
  -7  -8   0   -3.80    7.20
   7   8   0    8.30   10.00
   7   8   0   -0.60    5.10
   7   8   0    4.00    4.50
  -8  -8   0   29.20    7.20
   8   8   0   44.40   12.20
   8   8   0   23.20    7.30
  -9   9   0   64.19   17.70
  -7   9   0   32.40    7.30
  -7   9   0   38.90   13.60
  -6   9   0   -1.20    6.70
  -6   9   0   -3.60    5.40
  -5   9   0  141.29   20.30
  -5   9   0  130.79   16.50
  -4   9   0    1.50    4.00
  -4   9   0    4.70    7.90
  -4   9   0    1.00    4.90
  -3   9   0   22.90    7.00
  -3   9   0   48.90    9.20
  -3   9   0   41.50   10.30
  -2   9   0   79.59   12.90
  -2   9   0   61.59   12.20
  -2   9   0   61.19   11.10
  -2   9   0  106.39   12.70
  -1   9   0   15.00    5.10
  -1   9   0    4.20    4.20
  -1   9   0    5.50    3.90
  -1   9   0   10.60    6.20
  -1   9   0   10.70    5.40
   0   9   0  204.98   21.10
   0   9   0  162.68   19.90
   0   9   0  144.69   21.20
   0   9   0  192.58   19.60
   1   9   0  112.49   16.50
   1   9   0  134.69   16.20
   1   9   0   98.09   15.10
   1   9   0  137.09   14.70
  -2  -9   0   23.00    7.20
   2   9   0   14.50    6.30
   2   9   0   32.60    6.80
   2   9   0    8.90    5.40
   2   9   0   24.30    9.80
   2   9   0   20.00    5.70
   3   9   0  123.49   18.40
   3   9   0  159.08   16.90
   3   9   0  149.49   18.40
  -4  -9   0  157.38   21.00
   4   9   0  165.88   20.90
   4   9   0  196.68   24.20
  -5  -9   0   38.30    9.10
   5   9   0   41.60   10.20
   5   9   0   23.80    8.00
   5   9   0   46.80   13.60
  -6  -9   0   56.29    9.40
   6   9   0   31.10    8.40
  -7  -9   0   13.90    5.80
  -7  -9   0    2.70    6.50
   7   9   0    7.40    4.60
   7   9   0   21.60    9.90
  -8  10   0   86.79   18.70
  -8  10   0   63.49   10.10
   7 -10   0   -0.40    8.70
  -7  10   0    9.80    5.10
  -7  10   0   18.40   11.40
  -6  10   0   15.70    9.40
  -5  10   0  106.49   17.50
  -4  10   0    2.20    8.80
  -4  10   0   -1.00    4.10
  -4  10   0    6.30    5.50
  -3  10   0    8.50    5.40
  -3  10   0   14.50    7.90
  -3  10   0   10.60    5.60
  -2  10   0   23.10    7.80
  -2  10   0   26.90    7.80
  -2  10   0   24.20    6.90
  -1  10   0    5.50    5.00
  -1  10   0    3.10    4.90
  -1  10   0    1.90    4.10
  -1  10   0    4.70    4.50
   0  10   0   41.30    9.90
   0  10   0   64.39   10.90
   0  10   0   57.79    9.70
   0  10   0   65.89   10.30
   1  10   0   19.60    6.80
   1  10   0   33.40    7.40
   1  10   0   18.80    6.30
   1  10   0   24.50    7.10
   2  10   0   13.90    6.00
   2  10   0   15.10    6.10
   2  10   0   18.30    6.50
   2  10   0   12.30    5.70
   2  10   0   17.00   10.00
   3  10   0    9.80    5.60
   3  10   0   16.70    9.70
   3  10   0   11.70    6.90
  -4 -10   0    7.50    6.40
   4  10   0    8.10    7.70
   4  10   0   12.60    9.40
   4  10   0    8.80    5.40
  -5 -10   0    3.20    7.10
  -5 -10   0   12.60    5.50
   5  10   0    5.70    4.80
   5  10   0    4.00    8.50
  -6 -10   0   41.90    7.40
  -6 -10   0   11.30    7.30
   6  10   0   26.00    7.00
   6  10   0   51.19   14.60
  -7  11   0    2.70    8.80
  -6  11   0   20.80    9.70
  -5  11   0    5.40    7.30
  -4  11   0   74.89   14.60
  -4  11   0  103.79   15.40
  -3  11   0  100.89   15.80
  -3  11   0  122.99   16.40
  -2  11   0   10.70    5.40
  -2  11   0   14.50    7.70
  -2  11   0   11.40    5.60
  -1  11   0   21.90    6.70
  -1  11   0   30.30    7.90
  -1  11   0   31.40    8.70
   0 -11   0   16.60    8.90
   0  11   0   29.60    7.40
   0  11   0   29.10    8.60
   0  11   0   21.40    7.20
  -1 -11   0    5.30    7.40
   1  11   0    5.10    5.90
   1  11   0    4.40    7.30
   1  11   0   10.90    4.50
   2  11   0   62.69   10.80
   2  11   0   91.39   13.20
   2  11   0   78.39   12.80
  -3 -11   0    5.80    7.60
   3  11   0   38.20   10.20
   3  11   0   36.00    8.80
   3  11   0   24.40    6.90
  -4 -11   0    3.90    6.10
   4  11   0   14.00    5.40
   4  11   0   28.40   10.00
  -4  12   0   29.10    7.80
  -3  12   0   57.19   10.30
  -2  12   0    3.70    5.20
  -2  12   0    5.10    4.40
  -1  12   0   37.70    9.80
  -1  12   0   35.40    7.60
   0  12   0    5.00    3.70
   0  12   0    9.50    8.40
   1  12   0    2.20    8.00
   1  12   0    2.40    3.60
   3  12  -1    0.70    3.60
  -3 -12   1    4.90    6.40
   2  12  -1   53.09    9.20
   2  12  -1   59.59   10.20
   1  12  -1   19.80    6.00
   1  12  -1   34.70    9.70
  -1 -12   1   16.90    7.70
   0  12  -1    7.80    8.30
   0  12  -1    2.10    3.70
   0 -12   1    3.00    7.20
  -1  12  -1   35.10   10.00
  -1  12  -1   26.60    6.80
  -2  12  -1   -0.70    3.60
  -2  12  -1    8.50    6.30
  -3  12  -1    2.20    4.30
   3 -12   1    6.60    6.10
  -4  12  -1   18.70    7.00
  -5  12  -1    0.30    5.50
   5  11  -1    4.70    7.80
   5  11  -1    3.30    4.50
  -5 -11   1    2.40    6.00
   4  11  -1   65.79   12.80
   4  11  -1   44.10   10.30
   4  11  -1   39.80    9.00
   3  11  -1   97.29   13.20
   3  11  -1   59.89   11.00
   2  11  -1   -1.00    3.70
   2  11  -1    4.80    8.00
   2  11  -1    8.10    7.30
  -2 -11   1    3.80    7.40
   1  11  -1   45.60    8.70
   1  11  -1   41.30    9.40
   1  11  -1   60.19   12.30
   1  11  -1   44.60   10.00
  -1 -11   1   20.80   10.00
   0  11  -1   68.29   10.40
   0  11  -1   63.69   11.40
   0  11  -1   47.10   10.00
   0 -11   1   38.40   11.60
  -1  11  -1   19.80    6.40
  -1  11  -1   12.20    8.90
  -1  11  -1   19.20    7.90
  -1  11  -1   15.40    6.40
   1 -11   1   18.40    9.60
  -2  11  -1   35.50    9.10
  -2  11  -1   21.40    7.30
  -2  11  -1   37.80    9.60
  -3  11  -1  195.68   23.10
  -3  11  -1  166.98   22.70
  -4  11  -1    1.30    5.50
   4 -11   1    6.90    7.10
  -5  11  -1   24.30   10.00
  -6  11  -1   -1.20    7.70
  -7  11  -1   -1.00    9.20
   7 -11   1   -1.80    9.00
   6  10  -1  127.49   18.00
  -6 -10   1  165.48   17.60
   5  10  -1   37.20    8.70
   4  10  -1   49.30   12.50
   4  10  -1   23.70    7.50
   4  10  -1   31.50    9.20
  -4 -10   1    1.30    7.80
  -4 -10   1   26.00    7.60
   3  10  -1  133.39   19.30
   3  10  -1  130.39   17.90
   2  10  -1   11.00    8.50
   2  10  -1   12.20    5.50
   2  10  -1   10.00    6.30
   2  10  -1   13.40    6.80
   1  10  -1   49.10   10.60
   1  10  -1   61.89   10.80
   1  10  -1   56.99   10.90
   1  10  -1   69.59   13.60
   1  10  -1   40.80    9.20
   0  10  -1   76.19   13.30
   0  10  -1   81.49   13.30
   0  10  -1   91.19   14.20
   0  10  -1   83.39   15.90
   0  10  -1  113.09   14.10
   0  10  -1   85.29   12.70
  -1  10  -1    9.20    5.20
  -1  10  -1   10.60    5.40
  -1  10  -1    8.40    6.20
  -1  10  -1    8.40    6.60
  -1  10  -1    6.40    5.90
   1 -10   1   12.20    8.40
  -2  10  -1  155.98   21.10
  -2  10  -1  169.68   20.80
  -2  10  -1  178.38   21.50
  -3  10  -1   91.79   14.80
  -3  10  -1  110.69   16.20
  -3  10  -1  102.09   16.30
  -4  10  -1   -1.20    4.00
  -4  10  -1    3.80    8.50
  -5  10  -1   68.39   14.50
  -6  10  -1   24.70    6.70
  -6  10  -1   21.60   10.50
  -7  10  -1    4.40    5.00
  -7  10  -1    9.20   11.00
   7 -10   1   -0.40    9.50
  -8  10  -1   17.40    5.10
  -8  10  -1   49.30   16.40
   8 -10   1   -2.30    9.90
   8   9  -1    4.20    4.60
   8   9  -1    4.20    8.00
  -8  -9   1    7.70    5.10
   7   9  -1   14.40    9.10
   7   9  -1    1.20    5.10
  -7  -9   1    3.10    6.90
  -7  -9   1   13.00    5.70
   6   9  -1   19.00    9.50
   6   9  -1   12.70    5.90
   6   9  -1    8.00    5.80
  -6  -9   1   -6.20    6.90
  -6  -9   1   11.10    5.90
   5   9  -1  109.59   16.70
   5   9  -1   88.19   14.60
   5   9  -1   82.59   14.10
  -5  -9   1   80.89   13.60
   4   9  -1   33.10    8.90
   4   9  -1   49.60   12.90
   4   9  -1   45.00    9.70
   4   9  -1   32.80    8.70
  -4  -9   1   55.09    9.20
   3   9  -1  117.59   18.40
   3   9  -1  144.19   17.10
   3   9  -1  152.48   18.10
  -3  -9   1  110.69   16.90
   2   9  -1   20.00    6.70
   2   9  -1   25.60    6.50
   2   9  -1   21.20    8.60
   2   9  -1   15.30    7.00
   2   9  -1   26.00    7.60
   1   9  -1   27.60    7.80
   1   9  -1   28.00    6.90
   1   9  -1   22.10    7.40
   1   9  -1   31.40    7.10
   1   9  -1   29.80    7.80
   1   9  -1   27.60    9.80
   0   9  -1   48.30   12.00
   0   9  -1   29.70    7.50
   0   9  -1   42.50    9.60
   0   9  -1   24.00    7.80
   0   9  -1   32.30    7.10
   0   9  -1   29.60    8.50
  -1   9  -1  101.09   13.80
  -1   9  -1   96.99   14.00
  -1   9  -1   98.39   14.30
  -1   9  -1   91.69   12.60
  -1   9  -1  102.19   16.60
  -1   9  -1   87.59   14.10
  -2   9  -1   -2.10    4.10
  -2   9  -1   -2.30    4.30
  -2   9  -1   -0.20    5.70
  -2   9  -1   -0.50    3.50
  -3   9  -1   -0.90    6.40
  -3   9  -1    2.40    4.40
  -3   9  -1    7.10    5.20
  -3   9  -1   -2.90    3.90
  -4   9  -1   16.30    6.60
  -4   9  -1   20.90    9.50
  -4   9  -1   13.30    6.50
  -4   9  -1   21.90    8.20
  -4   9  -1    6.20    5.40
  -5   9  -1   36.80    7.90
  -5   9  -1   40.70    9.50
  -5   9  -1   27.00    9.70
  -6   9  -1    0.40    6.30
  -6   9  -1    8.90    5.40
  -6   9  -1    0.40    5.70
  -7   9  -1  190.78   28.60
  -7   9  -1  167.38   20.10
  -8   9  -1   65.29   19.20
  -8   9  -1   56.59    9.00
  -9   9  -1   -2.50    4.20
  -9   9  -1   36.90   14.80
   9  -9   1    1.60   12.30
 -10   9  -1    3.20    3.90
  10  -9   1   15.70   23.40
   9   8  -1   -1.50    7.70
   9   8  -1   -4.00    4.60
  -9  -8   1   -3.80    4.30
   8   8  -1   56.19   13.60
   8   8  -1   38.80    9.30
  -8  -8   1   37.20    8.60
   7   8  -1  346.87   35.90
   7   8  -1  256.27   32.80
  -7  -8   1  281.57   31.40
   6   8  -1   67.49   16.40
   6   8  -1   55.49   12.10
   6   8  -1   64.39   11.90
  -6  -8   1   63.19   11.60
   5   8  -1  254.57   29.50
   5   8  -1  230.18   30.40
  -5  -8   1  260.17   27.80
   4   8  -1  135.99   19.10
   4   8  -1  155.78   18.40
   4   8  -1  152.18   19.80
   4   8  -1  143.69   20.70
  -4  -8   1  158.68   18.70
   3   8  -1    6.70    4.70
   3   8  -1    4.50    7.20
   3   8  -1   15.80    5.30
   3   8  -1    3.60    4.00
   3   8  -1    3.40    4.60
  -3  -8   1   14.90    5.70
   2   8  -1  332.77   34.70
   2   8  -1  358.26   37.90
   2   8  -1  373.76   35.70
   2   8  -1  374.56   38.00
   2   8  -1  311.17   36.10
  -2  -8   1  278.77   35.80
   1   8  -1   96.79   14.50
   1   8  -1  129.19   13.60
   1   8  -1  135.29   17.10
   1   8  -1  114.19   14.50
   1   8  -1  125.69   14.90
   1   8  -1   87.79   14.90
   0   8  -1    4.00    4.30
   0   8  -1    4.50    4.00
   0   8  -1   -4.40    3.80
   0   8  -1   -0.10    3.20
   0   8  -1   -2.40    6.10
   0   8  -1    0.40    4.30
  -1   8  -1  903.41   86.69
  -1   8  -1  925.51   89.29
  -1   8  -1  781.12   86.89
  -1   8  -1  957.70   86.69
  -1   8  -1  817.32   87.59
  -2   8  -1  282.57   32.00
  -2   8  -1  294.17   32.20
  -2   8  -1  335.87   34.40
  -2   8  -1  314.67   33.20
  -3   8  -1   12.20    5.00
  -3   8  -1   11.20    5.70
  -3   8  -1    7.50    4.70
  -3   8  -1   11.30    6.00
  -3   8  -1    9.50    5.90
  -4   8  -1  136.79   17.50
  -4   8  -1   94.59   16.10
  -4   8  -1  169.68   19.10
  -4   8  -1  134.59   15.40
  -4   8  -1  107.89   18.20
  -4   8  -1  123.69   15.70
  -5   8  -1    3.90    4.00
  -5   8  -1    3.60    4.70
  -5   8  -1    3.10    4.30
  -6   8  -1   42.50   13.00
  -6   8  -1   68.09   11.20
  -7   8  -1   93.29   14.80
  -7   8  -1   96.49   20.80
  -7   8  -1  122.39   14.10
  -8   8  -1   15.90    5.10
  -8   8  -1   12.80   12.60
   8  -8   1   -7.50   11.00
  -9   8  -1   90.09   13.20
  -9   8  -1  140.59   26.40
 -10   8  -1  212.08   22.70
  10   7  -1   15.80    9.70
 -10  -7   1    6.00    5.00
   9   7  -1   43.40   13.00
  -9  -7   1   41.70    8.50
   8   7  -1   -1.80    5.20
   8   7  -1    0.90    4.20
   8   7  -1   -0.40    8.60
  -8  -7   1   -4.50    4.90
   7   7  -1   72.99   13.70
   7   7  -1   82.39   13.10
   7   7  -1   71.19   18.40
  -7  -7   1   70.39   12.20
   6   7  -1    9.90    5.70
   6   7  -1    3.70    5.50
   6   7  -1    6.70    9.30
  -6  -7   1   11.40    5.30
   5   7  -1   27.60    8.00
   5   7  -1   33.00   11.50
   5   7  -1   23.60    7.50
  -5  -7   1   27.40    7.60
   4   7  -1  128.19   18.70
   4   7  -1  131.69   15.60
   4   7  -1  157.08   17.50
   4   7  -1   99.69   16.10
   4   7  -1  121.59   16.80
  -4  -7   1  130.09   16.30
   3   7  -1   31.50    7.50
   3   7  -1   17.20    6.20
   3   7  -1   18.70    5.60
   3   7  -1   25.00    9.10
   3   7  -1   24.60    6.50
  -3  -7   1   24.60    6.80
   2   7  -1   45.40    9.80
   2   7  -1   25.90    4.90
   2   7  -1   32.30    5.60
   2   7  -1   26.60    6.00
   2   7  -1   12.60    5.80
   2   7  -1   22.50    6.20
   2   7  -1   18.00    6.70
  -2  -7   1   18.80    6.10
   1   7  -1   12.50    3.70
   1   7  -1   10.70    4.40
   1   7  -1   10.60    5.30
   1   7  -1    8.80    4.80
   1   7  -1    9.90    6.40
   1   7  -1   12.20    5.20
   1   7  -1   15.20    4.00
  -1  -7   1    4.10    6.00
   0   7  -1   47.10    7.70
   0   7  -1   69.79   10.60
   0   7  -1   52.69    7.30
   0   7  -1   45.90    8.40
   0   7  -1   53.09   11.10
   0   7  -1   47.30    8.70
  -1   7  -1  433.46   43.70
  -1   7  -1  376.46   41.50
  -1   7  -1  461.65   41.40
  -1   7  -1  368.36   42.10
  -1   7  -1  409.36   43.50
  -1   7  -1  413.76   41.30
  -2   7  -1   13.70    4.40
  -2   7  -1    9.70    4.70
  -2   7  -1   10.30    4.70
  -2   7  -1   16.30    4.70
  -2   7  -1   10.30    4.30
  -2   7  -1   13.60    6.70
  -3   7  -1   39.50    7.20
  -3   7  -1   60.29    8.80
  -3   7  -1   49.50    8.60
  -3   7  -1   53.09    8.10
  -3   7  -1   62.49    9.70
  -3   7  -1   57.29    8.70
  -4   7  -1  289.97   31.20
  -4   7  -1  299.07   30.40
  -4   7  -1  290.87   32.30
  -4   7  -1  267.87   29.60
  -5   7  -1   34.20    7.30
  -5   7  -1   25.70    6.10
  -5   7  -1   30.70    9.10
  -6   7  -1   80.09   11.60
  -6   7  -1   78.59   16.60
  -6   7  -1   80.49   11.70
  -7   7  -1   32.10    6.40
  -7   7  -1   34.60    7.90
  -7   7  -1   36.70    6.80
  -7   7  -1   33.10   13.00
  -8   7  -1    5.30    4.80
  -8   7  -1    9.40   12.70
  -8   7  -1    8.20    4.70
  -8   7  -1    6.20    4.70
   8  -7   1   -8.00   12.00
  -9   7  -1   27.30    6.10
  -9   7  -1   18.40    5.40
  -9   7  -1   48.50   18.50
   9  -7   1   -4.00   14.30
 -10   7  -1   43.20    6.60
 -11   7  -1   92.59   10.70
 -11   7  -1   73.69    9.60
  11  -7   1   27.40   34.80
  10   6  -1    1.80    9.10
  10   6  -1    0.70    5.00
 -10  -6   1    2.70    7.20
 -10  -6   1   13.50    5.60
   9   6  -1  154.18   22.00
   9   6  -1  112.99   17.40
  -9  -6   1  148.99   17.40
   8   6  -1  146.09   18.60
   8   6  -1  117.49   20.00
  -8  -6   1  134.49   16.80
   7   6  -1   34.10    8.70
   7   6  -1   30.00    9.30
   7   6  -1   72.89   16.80
  -7  -6   1   17.10    7.90
   6   6  -1  347.97   36.60
   6   6  -1  321.67   37.80
  -6  -6   1  303.17   34.80
   5   6  -1   40.50    9.70
   5   6  -1   60.09   12.30
   5   6  -1   49.99   10.20
  -5  -6   1   65.09    9.80
   4   6  -1   -2.80    4.30
   4   6  -1   -1.60    3.50
   4   6  -1   -3.20    3.70
   4   6  -1    1.70    3.30
   4   6  -1   -5.90    6.20
  -4  -6   1   -0.40    4.50
   3   6  -1  370.46   39.00
   3   6  -1  414.66   40.40
   3   6  -1  421.56   41.10
   3   6  -1  367.26   41.50
  -3  -6   1  372.36   39.90
   2   6  -1    3.50    4.10
   2   6  -1    1.60    2.90
   2   6  -1    8.10    5.80
   2   6  -1    6.50    3.00
   2   6  -1    2.70    2.80
   2   6  -1    3.60    3.30
  -2  -6   1    5.50    4.50
  -2  -6   1    7.40    3.00
   1   6  -1   77.59   10.00
   1   6  -1   88.19   11.70
   1   6  -1   89.59   11.00
   1   6  -1   85.19   10.10
   1   6  -1   87.89   13.20
  -1  -6   1   68.49    9.10
   0   6  -1 1253.17  106.19
   0  -6   1  936.01  105.39
  -1   6  -1   27.60    4.90
  -2   6  -1  142.49   15.90
  -2   6  -1  111.69   15.10
  -2   6  -1  104.39   16.20
  -2   6  -1  136.69   14.00
  -3   6  -1  312.97   34.80
  -3   6  -1  354.76   34.40
  -3   6  -1  370.66   34.90
  -3   6  -1  314.07   35.70
  -4   6  -1    0.80    2.60
  -4   6  -1    1.40    3.10
  -4   6  -1   -1.40    4.60
  -4   6  -1    3.00    3.40
  -4   6  -1    1.00    3.30
  -5   6  -1  201.38   24.30
  -5   6  -1  196.08   21.50
  -5   6  -1  209.18   21.30
  -5   6  -1  175.48   20.40
  -6   6  -1  418.16   44.20
  -6   6  -1  462.55   49.60
  -6   6  -1  432.76   45.40
  -6   6  -1  456.55   44.90
  -7   6  -1   26.50    5.60
  -7   6  -1    9.70    8.20
  -7   6  -1   17.90    9.20
  -7   6  -1   21.10    5.70
  -7   6  -1   17.10    5.50
   7  -6   1    8.80   10.70
  -8   6  -1   45.50    8.00
  -8   6  -1   56.89    7.60
  -8   6  -1   37.20    9.40
  -8   6  -1   22.50    7.50
  -8   6  -1   35.70   15.80
  -9   6  -1   93.69   12.10
  -9   6  -1   93.49   12.50
 -10   6  -1    2.90    4.60
 -10   6  -1    4.50    3.80
  10  -6   1   -9.40   14.50
  10  -6   1    7.00   41.10
 -11   6  -1   34.90    6.00
 -11   6  -1   34.80    6.30
  11  -6   1   52.99   42.60
  12  -6   1   20.90   58.69
  11   5  -1   -0.80    5.10
  11   5  -1   18.20   10.60
 -11  -5   1    5.00    5.60
 -11  -5   1   11.30   13.00
 -11  -5   1    4.80   15.30
  10   5  -1   53.59   14.80
 -10  -5   1   35.10    8.00
 -10  -5   1   11.90   14.80
   9   5  -1   64.49   11.80
   9   5  -1   47.90   11.50
   9   5  -1   64.69   16.60
  -9  -5   1   87.49   12.70
   8   5  -1  233.18   26.90
   8   5  -1  233.48   26.10
   8   5  -1  188.98   27.50
  -8  -5   1  164.38   33.80
  -8  -5   1  232.98   24.70
   7   5  -1   -2.00    4.80
   7   5  -1   -0.10    8.10
   7   5  -1    4.40    6.80
  -7  -5   1   -7.50    5.70
  -7  -5   1  -20.10   15.30
   6   5  -1   92.39   14.00
   6   5  -1  102.89   17.00
   6   5  -1   98.89   15.10
  -6  -5   1   89.29   13.50
   5   5  -1   76.39   12.10
   5   5  -1   77.09   14.60
   5   5  -1  101.99   13.40
  -5  -5   1  103.89   21.20
  -5  -5   1   89.39   12.00
   4   5  -1   -2.20    5.40
   4   5  -1    0.70    3.00
   4   5  -1   -0.80    3.70
   4   5  -1    0.30    4.00
  -4  -5   1   -5.00    3.50
  -4  -5   1    2.90    4.00
   3   5  -1  447.36   49.00
   3   5  -1  401.26   45.40
  -3  -5   1  489.35   44.30
  -2  -5   1   34.00    4.80
  -1  -5   1   15.70    9.80
  -1  -5   1   21.10    3.50
  -1  -5   1   27.60    4.40
   0   5  -1  987.90  105.39
   0  -5   1 1178.78  105.79
   0  -5   1 1110.29  105.59
   1  -5   1   45.80    6.10
   1  -5   1   47.80    5.90
   2  -5   1   18.10    3.20
   2  -5   1   21.60    3.40
   3  -5   1  378.06   37.30
  -4   5  -1   58.09    7.20
  -4   5  -1   53.49    8.10
  -4   5  -1   49.30    8.30
  -4   5  -1   30.00    8.00
  -4   5  -1   42.60    8.50
   4  -5   1   52.69    6.90
  -5   5  -1   13.30    5.20
  -5   5  -1    0.40    4.50
  -5   5  -1   14.10    3.60
  -5   5  -1   10.30    5.70
  -5   5  -1   17.00    4.20
  -6   5  -1   75.39   10.40
  -6   5  -1   73.09   10.30
  -6   5  -1   80.69   10.10
  -6   5  -1   83.79   15.00
  -7   5  -1    5.60    4.30
  -7   5  -1    0.10    6.40
  -7   5  -1    3.90    3.70
  -7   5  -1    6.40    9.00
  -7   5  -1   -0.80    3.70
   7  -5   1    6.70   10.10
  -8   5  -1   93.19   21.30
  -8   5  -1   64.79   10.90
  -8   5  -1   72.99   10.60
  -8   5  -1   52.69   11.50
  -8   5  -1   78.19   11.30
  -9   5  -1   34.30    6.80
  -9   5  -1   18.50    8.10
   9  -5   1   -9.40   12.40
 -10   5  -1  118.19   18.10
 -10   5  -1  164.98   17.50
 -10   5  -1  150.98   16.70
 -11   5  -1   15.10    4.60
 -11   5  -1   13.20    7.10
 -11   5  -1   12.50    4.90
  11  -5   1   75.49   46.30
 -12   5  -1   25.20    4.90
 -12   5  -1   23.00    5.90
  12  -5   1   26.30   33.40
  11   4  -1   -0.60    5.40
  11   4  -1    0.50    9.50
 -11  -4   1    4.00    6.00
 -11  -4   1    8.10    6.90
 -11  -4   1   -5.30   14.00
  10   4  -1   73.59   13.60
 -10  -4   1   61.79   20.40
   9   4  -1    3.40    9.10
   9   4  -1    0.70    5.20
  -9  -4   1    4.90   14.50
  -9  -4   1   -1.80    6.60
   8   4  -1   72.19   17.80
   8   4  -1   57.39   11.50
  -8  -4   1   28.90   19.50
  -8  -4   1   75.69   11.30
   7   4  -1  273.77   33.90
   7   4  -1  246.08   29.90
  -7  -4   1  284.97   29.50
  -7  -4   1  271.77   38.40
   6   4  -1   58.29   14.20
   6   4  -1   39.40    8.30
  -6  -4   1   36.70    8.70
  -6  -4   1   27.90   14.20
   5   4  -1   10.70    4.70
   5   4  -1    7.40    7.90
   5   4  -1   -4.50    4.10
  -5  -4   1    9.00   11.40
  -5  -4   1   12.50    4.40
  -5  -4   1    0.40    3.90
  -4  -4   1  360.46   35.80
  -3  -4   1   -0.10   16.00
  -3  -4   1   -2.20    1.70
  -2  -4   1  180.78   18.60
  -2  -4   1  188.58   18.50
  -2  -4   1  181.98   24.70
   1   4  -1  582.04   60.79
  -1  -4   1  614.54   60.79
  -1  -4   1  658.43   64.79
  -1  -4   1  658.83   60.99
   0   4  -1  108.59   11.60
   0  -4   1  124.49   12.00
   0  -4   1  114.09   11.80
  -1   4  -1  462.25   44.30
   1  -4   1  455.45   44.50
   1  -4   1  448.36   44.40
   2  -4   1  225.58   22.30
   2  -4   1  223.88   22.30
   3  -4   1    6.70    2.10
   3  -4   1    5.30    2.20
   4  -4   1 1636.44  158.28
  -5   4  -1  173.18   19.20
  -5   4  -1  183.88   22.00
  -5   4  -1  200.38   19.90
  -6   4  -1   84.09    9.90
  -6   4  -1   70.89   11.60
  -6   4  -1   69.79    9.30
  -6   4  -1   64.69    9.30
  -6   4  -1   84.39   14.50
  -7   4  -1   53.19   15.20
  -7   4  -1   63.89   11.30
  -7   4  -1   65.09    8.60
  -7   4  -1   52.89    9.10
  -7   4  -1   55.29    8.30
  -8   4  -1   13.50   16.80
  -8   4  -1   -3.40    4.10
  -8   4  -1    1.10    3.60
  -8   4  -1   -4.50    3.90
  -8   4  -1   14.70    7.00
   8  -4   1   -3.80   10.20
  -9   4  -1   22.20    8.60
  -9   4  -1    1.10   17.60
  -9   4  -1   25.40    5.70
   9  -4   1  -20.40   12.10
   9  -4   1  -39.60   26.50
 -10   4  -1  180.38   21.10
 -10   4  -1  240.48   24.00
  10  -4   1  149.09   31.00
 -11   4  -1   -2.40    4.60
 -11   4  -1   -0.80    3.80
 -11   4  -1   -9.90   23.90
 -11   4  -1   -8.00    6.90
  11  -4   1   89.99   43.80
 -12   4  -1   -1.60   10.10
 -12   4  -1    6.30    3.50
  12  -4   1   34.10   32.60
  12   3  -1    1.40    5.50
  12   3  -1   31.50   11.60
 -12  -3   1   28.60   14.60
 -12  -3   1   11.90   14.50
  11   3  -1    6.70    9.60
 -11  -3   1   15.90   14.30
 -11  -3   1    9.10    7.40
  10   3  -1  127.49   23.70
 -10  -3   1  177.48   19.30
   9   3  -1   15.80    8.60
   9   3  -1   19.00   12.40
  -9  -3   1   17.50   15.90
  -9  -3   1   31.40    8.40
   8   3  -1   10.60   13.20
   8   3  -1    0.10    5.00
  -8  -3   1    1.90    6.30
  -8  -3   1  -10.30   15.10
   7   3  -1  329.47   36.90
   7   3  -1  341.87   42.50
  -7  -3   1  315.87   43.70
  -7  -3   1  401.16   37.00
   6   3  -1  -14.30   12.10
   6   3  -1   -2.20   10.30
   6   3  -1    2.50    3.40
  -6  -3   1   -3.90    5.40
  -6  -3   1    4.90   11.50
  -5  -3   1  333.47   34.60
  -5  -3   1  366.06   36.80
   4   3  -1  399.66   40.00
  -4  -3   1  406.86   39.70
   3   3  -1  122.09   13.00
  -3  -3   1  128.49   19.50
  -3  -3   1  125.09   12.70
  -3  -3   1  123.69   13.10
   2   3  -1  355.56   34.90
   2   3  -1  337.37   34.80
  -2  -3   1  363.56   34.70
  -2  -3   1  354.66   34.80
  -2  -3   1  371.46   39.20
  -1  -3   1 2927.41  284.57
   0   3  -1   29.50    3.60
   0   3  -1   30.20    3.80
   0  -3   1   34.90    3.90
   0  -3   1   21.80    3.50
  -1   3  -1  155.98   15.60
   1  -3   1  156.98   15.70
  -2   3  -1   73.39    8.60
  -2   3  -1   94.99    8.70
   2  -3   1   78.09    8.70
   2  -3   1   91.69    8.70
  -3   3  -1  133.79   13.30
   3  -3   1  132.39   13.40
   3  -3   1  126.99   13.20
  -4   3  -1 1230.38  118.19
   4  -3   1 1278.77  118.29
   4  -3   1 1157.98  118.19
   5  -3   1  564.14   55.29
  -6   3  -1   20.70    6.80
  -6   3  -1    7.30    6.40
  -6   3  -1   10.30    3.70
  -6   3  -1   11.90    3.60
   6  -3   1    1.00    7.10
   6  -3   1   10.50    4.80
  -7   3  -1  157.68   18.30
  -7   3  -1  150.08   15.70
  -7   3  -1  142.69   16.50
  -7   3  -1  143.39   15.80
  -7   3  -1  120.49   30.00
  -7   3  -1  123.49   22.30
  -8   3  -1    8.60    4.30
  -8   3  -1    5.00    3.80
  -8   3  -1    5.80    6.90
  -8   3  -1    7.80    3.90
  -8   3  -1   23.30   19.80
   8  -3   1   -6.90    9.50
  -9   3  -1   35.20    7.20
  -9   3  -1   16.30    5.50
  -9   3  -1   46.40   10.50
   9  -3   1   10.90   12.70
   9  -3   1    3.50   28.20
 -10   3  -1  135.79   18.20
 -10   3  -1  120.29   15.20
 -10   3  -1  123.19   14.50
  10  -3   1   39.60   38.40
  10  -3   1  111.69   22.80
 -11   3  -1   31.80    9.60
 -11   3  -1   34.70    6.20
 -11   3  -1   18.10   18.90
 -11   3  -1   15.70    6.00
  11  -3   1  101.69   41.20
  11  -3   1   11.20    9.60
 -12   3  -1    3.10   18.10
 -12   3  -1    3.70    7.60
 -12   3  -1   12.30    4.10
  12  -3   1   49.80   31.10
  12   2  -1    9.40   10.50
 -12  -2   1    5.10   13.80
 -12  -2   1   14.20    7.80
  11   2  -1  149.99   25.60
 -11  -2   1  132.89   19.20
  10   2  -1   90.89   22.50
 -10  -2   1   10.60   16.40
 -10  -2   1   42.90    7.00
   9   2  -1   -2.40   14.90
  -9  -2   1   -0.90    3.90
  -9  -2   1  -18.60    7.10
  -9  -2   1    4.40   13.30
   8   2  -1  137.59   29.00
   8   2  -1  113.99   16.10
  -8  -2   1  144.19   16.60
  -8  -2   1  102.99   13.40
   7   2  -1   17.30   15.80
   7   2  -1   38.20    8.10
  -7  -2   1   48.10    8.90
  -7  -2   1   36.30   16.50
  -6  -2   1   48.00    9.30
  -6  -2   1   61.39   16.20
   5   2  -1  419.46   40.10
  -5  -2   1  387.96   39.70
   4   2  -1    3.10    2.50
   4   2  -1    2.50    2.10
   4   2  -1    2.60    6.50
  -4  -2   1   11.20    9.80
  -4  -2   1    0.90    2.40
  -4  -2   1    4.80    1.80
   3   2  -1  381.86   36.20
   3   2  -1  363.66   36.10
  -3  -2   1  382.16   41.00
  -3  -2   1  372.96   36.10
  -3  -2   1  348.37   36.20
   2   2  -1  112.49   11.20
   2   2  -1  112.09   11.30
  -2  -2   1  113.79   11.30
  -2  -2   1  107.49   11.20
  -2  -2   1  113.89   15.20
   1   2  -1  263.07   24.80
   1   2  -1  259.57   24.70
  -1  -2   1  252.07   27.00
  -1  -2   1  268.37   24.80
  -1  -2   1  223.78   24.70
   0  -2   1  820.02   79.29
   1  -2   1   61.39    6.60
  -2   2  -1    5.90    1.50
   2  -2   1    7.30    1.50
   2  -2   1    8.80    1.40
  -3   2  -1 1826.22  192.08
   3  -2   1 2054.49  192.18
   3  -2   1 2098.29  192.08
  -4   2  -1    4.80    2.10
   4  -2   1   11.20    2.70
   4  -2   1    6.80    2.00
   5  -2   1  143.89   15.30
  -6   2  -1  291.07   29.50
  -6   2  -1  368.66   51.09
  -6   2  -1  250.97   33.90
  -7   2  -1   11.80    4.00
  -7   2  -1   -5.50   18.60
  -7   2  -1   10.30    4.00
   7  -2   1   -6.20    7.10
  -8   2  -1   52.59   24.60
   8  -2   1   20.80   12.10
  -9   2  -1  235.88   23.90
  -9   2  -1  169.18   19.40
  -9   2  -1  201.08   20.30
  -9   2  -1  157.28   34.60
   9  -2   1  126.79   26.30
 -10   2  -1   23.20    7.00
 -10   2  -1   27.40    6.00
 -10   2  -1   39.60   22.90
 -10   2  -1   59.09   12.00
  10  -2   1   21.30   10.70
  10  -2   1   59.99   35.60
 -11   2  -1   27.20    5.90
 -11   2  -1   43.20   11.00
 -11   2  -1   12.20   18.30
  11  -2   1   12.80    8.40
  11  -2   1   62.89   34.20
 -12   2  -1   68.69   11.90
 -12   2  -1   52.79    8.30
  12  -2   1   73.49   27.80
  12   1  -1   19.40   13.80
 -12  -1   1   17.60    7.40
 -12  -1   1    8.10    4.10
 -12  -1   1    7.70   13.60
 -11  -1   1   87.09   11.00
  10   1  -1   40.10   23.10
 -10  -1   1   21.90   16.60
 -10  -1   1   21.50    8.50
 -10  -1   1   11.40    5.00
   9   1  -1   49.70   25.40
  -9  -1   1   71.09   21.90
  -9  -1   1   95.29   10.80
  -8  -1   1  307.87   32.40
  -8  -1   1  340.07   43.90
  -8  -1   1  322.27   34.40
   7   1  -1   27.90    7.80
  -7  -1   1   40.20    8.60
   6   1  -1  226.48   22.00
  -6  -1   1  189.58   28.80
   5   1  -1  609.54   59.09
  -5  -1   1  662.73   68.19
  -5  -1   1  561.14   58.89
   4   1  -1   -0.90    2.00
   4   1  -1    0.10    1.40
   4   1  -1    2.50    5.70
  -4  -1   1    2.00    8.80
  -4  -1   1   -3.00    1.90
  -4  -1   1    1.20    1.40
   3   1  -1  800.22   75.59
   3   1  -1  805.02   75.69
  -3  -1   1  769.22   79.89
  -3  -1   1  705.43   75.69
  -3  -1   1  826.22   75.59
   2   1  -1  490.55   48.70
   2   1  -1  530.85   48.70
  -2  -1   1  465.95   51.49
  -2  -1   1  496.05   48.70
  -2  -1   1  525.15   48.60
   1   1  -1   13.90    4.70
   1   1  -1   17.20    2.00
   1   1  -1   13.20    2.00
  -1  -1   1   16.70    2.10
  -1  -1   1    9.60    1.90
  -1  -1   1   18.80    4.80
  -1   1  -1   41.80    4.80
  -1   1  -1   47.90    4.80
   1  -1   1   49.99    4.80
  -2   1  -1  332.47   31.50
  -2   1  -1  329.07   31.50
   2  -1   1  342.27   31.50
   2  -1   1  290.57   31.50
  -3   1  -1 8794.22  917.51
  -3   1  -1 9870.01  917.61
   3  -1   1 9468.55  917.51
   3  -1   1 9999.00  917.61
  -4   1  -1  336.77   37.70
  -4   1  -1  396.86   36.50
   4  -1   1  338.57   36.40
   4  -1   1  410.16   36.70
   5  -1   1   40.40    5.90
  -7   1  -1    3.30   14.90
  -7   1  -1   -1.20    3.40
   7  -1   1  -10.20   13.30
   7  -1   1   -2.00    6.70
  -8   1  -1   29.20    5.60
  -8   1  -1   21.00   20.30
   8  -1   1    6.30   21.80
   8  -1   1   13.10    9.90
  -9   1  -1  171.28   36.00
  -9   1  -1  189.38   19.70
   9  -1   1  177.08   25.40
 -10   1  -1   39.40   10.60
 -10   1  -1   25.20   19.10
 -10   1  -1   22.20    5.80
  10  -1   1   65.59   31.90
  10  -1   1   22.80    9.40
 -11   1  -1   33.60    9.90
 -11   1  -1    7.10   18.30
 -11   1  -1   19.40    5.40
  11  -1   1   17.50    7.90
  11  -1   1   64.89   28.30
 -12   1  -1   64.69   10.70
 -12   1  -1   35.20    6.00
 -12   1  -1    5.60   18.10
  12  -1   1   54.29   21.70
  12   0  -1   28.70   18.60
 -12   0   1   -5.30   14.40
 -12   0   1   10.40    7.60
 -12   0   1    2.80    3.70
  11   0  -1   90.49   27.70
 -11   0   1   56.49    8.00
 -11   0   1   22.20   19.10
  10   0  -1   28.30   26.60
  10   0  -1   21.10   23.90
 -10   0   1    2.40   15.50
 -10   0   1   27.00    9.10
 -10   0   1    5.70    4.70
   9   0  -1    4.80   19.80
  -9   0   1   21.10   17.10
  -9   0   1   10.00    4.70
  -9   0   1   15.60    7.90
  -8   0   1   66.79    8.30
  -8   0   1   45.50   17.80
   7   0  -1  168.08   25.30
   7   0  -1  206.78   22.60
  -7   0   1  234.28   21.30
   6   0  -1   17.50    4.30
   6   0  -1    2.60    7.40
  -6   0   1   36.20   14.50
   5   0  -1    7.40    7.70
   5   0  -1   16.20    3.10
   4   0  -1   77.99    8.30
   4   0  -1   73.59    8.10
   4   0  -1   69.29   13.40
  -4   0   1   84.49    8.10
   3   0  -1  262.17   27.80
   3   0  -1  276.27   31.30
  -3   0   1  322.67   27.70
  -3   0   1  271.67   27.80
   2   0  -1  481.45   48.60
  -2   0   1  461.45   45.70
   1   0  -1  588.44   63.79
   1   0  -1  730.03   63.89
  -1   0   1  645.94   63.79
  -1   0   1  683.83   63.89
  -1   0  -1  110.99   10.90
  -1   0  -1   80.79   10.10
  -1   0  -1  101.99   10.10
   1   0   1  107.99   10.20
   1   0   1  100.29   10.10
  -2   0  -1  170.48   16.20
  -2   0  -1  159.08   16.30
  -2   0  -1  164.88   17.60
   2   0   1  167.48   16.20
   2   0   1  168.58   16.30
   2   0   1  156.08   17.20
  -3   0  -1  420.56   40.40
  -3   0  -1  383.26   40.40
  -3   0  -1  454.55   43.20
   3   0   1  449.86   41.90
   3   0   1  388.76   40.30
   3   0   1  394.56   40.40
  -4   0  -1  234.08   23.90
  -4   0  -1  248.88   29.30
  -4   0  -1  264.87   23.80
   4   0   1  205.68   25.40
   4   0   1  271.17   24.00
   4   0   1  217.18   23.70
  -5   0  -1  649.83   60.19
  -5   0  -1  648.74   67.79
   5   0   1  658.23   60.29
   5   0   1  517.75   61.99
  -6   0  -1   63.69   19.20
   6   0   1   28.30    9.80
  -7   0  -1  146.99   24.90
   7   0   1  133.99   19.50
  -8   0  -1   29.90   17.20
   8   0   1   19.00   21.90
  -9   0  -1  123.69   30.00
   9   0   1   71.69   28.90
   9   0   1  135.79   19.00
 -10   0  -1   14.50   18.50
 -10   0  -1   43.20    7.10
  10   0   1   64.99   27.80
 -11   0  -1    1.80    7.30
 -11   0  -1   -2.50    4.00
 -11   0  -1   -8.00   16.30
  11   0   1   -1.20    5.20
  11   0   1    9.80   20.20
 -12   0  -1    7.70    3.90
 -12   0  -1    3.90    7.30
 -12   0  -1    4.00   14.30
  12   0   1   10.40   13.90
  12  -1  -1   88.89   25.60
 -12   1   1   50.99    7.00
 -12   1   1   26.80   18.50
  11  -1  -1   25.50   27.50
  11  -1  -1   49.80   29.40
 -11   1   1   16.20    5.00
 -11   1   1   43.90   10.30
 -11   1   1   23.50   19.40
 -10   1   1  183.08   22.70
 -10   1   1  172.08   18.40
 -10   1   1  131.89   32.30
  -9   1   1   41.50   20.30
  -9   1   1   40.90    8.40
  -9   1   1   58.49   12.40
  -9   1   1   51.89    7.70
  -8   1   1   27.90    5.60
  -8   1   1   55.99   10.90
  -8   1   1   27.60   17.00
  -8   1   1   25.50    5.80
  -7   1   1  462.05   47.70
  -7   1   1  549.05   56.19
  -7   1   1  505.95   50.29
  -7   1   1  438.86   47.90
   6  -1  -1  180.88   15.70
  -6   1   1  135.49   23.30
  -6   1   1  106.19   20.20
  -6   1   1  138.69   15.10
  -6   1   1  148.29   17.70
   5  -1  -1  197.08   19.90
   4  -1  -1 1279.07  124.39
   4  -1  -1 1387.86  124.49
  -4   1   1 1198.58  124.29
   3  -1  -1   16.90    2.40
   3  -1  -1   19.50    2.40
  -3   1   1   18.70    2.40
   2  -1  -1  595.94   57.49
   0  -1  -1    8.00    2.20
   0   1   1    5.40    2.00
  -1  -1  -1 1891.61  165.08
  -1  -1  -1 1772.02  163.78
   1   1   1 1722.43  164.88
   1   1   1 1559.14  163.68
   1   1   1 1559.14  163.68
  -2  -1  -1 4591.54  505.15
  -2  -1  -1 5454.95  505.25
  -2  -1  -1 5679.83  507.25
   2   1   1 5349.06  505.25
   2   1   1 5095.39  506.55
   2   1   1 5321.87  505.15
  -3  -1  -1  395.16   39.30
  -3  -1  -1  377.06   36.10
  -3  -1  -1  394.36   35.90
   3   1   1  374.26   36.00
   3   1   1  334.97   37.70
   3   1   1  332.97   35.80
  -4  -1  -1   99.59    9.60
  -4  -1  -1   94.89   18.10
  -4  -1  -1   79.49   10.00
   4   1   1   81.19   12.60
   4   1   1   93.79    9.90
  -5  -1  -1  450.65   44.30
  -6  -1  -1   27.00   14.20
  -6  -1  -1    9.40    7.30
   6   1   1   17.90    7.10
  -7  -1  -1  522.75   57.69
   7   1   1  471.95   52.29
  -8  -1  -1  178.98   22.00
   8   1   1  187.28   22.70
   8   1   1  145.79   32.90
  -9  -1  -1  -13.50   16.70
   9   1   1    0.60    5.20
   9   1   1   23.40   20.00
 -10  -1  -1   98.09   12.30
  10   1   1  102.69   15.60
 -11  -1  -1   14.80    5.20
 -11  -1  -1   -2.00   15.50
  11   1   1    7.80    5.60
  11   1   1   44.50   17.10
 -12  -1  -1    9.10    7.40
 -12  -1  -1    7.70   14.60
 -12  -1  -1    1.70    6.10
  12   1   1   14.20   11.30
  12  -2  -1   54.19   29.00
 -12   2   1   30.20    5.50
 -12   2   1   16.10   16.80
 -12   2   1   47.20   10.10
  11  -2  -1   47.90   32.90
 -11   2   1   -1.50   18.60
 -11   2   1   11.00    7.50
 -11   2   1    3.70    3.70
  10  -2  -1   12.00   29.90
 -10   2   1    1.20   18.90
 -10   2   1    9.20    4.40
 -10   2   1    9.60    4.10
 -10   2   1   15.70    8.20
   9  -2  -1  -15.80   16.20
  -9   2   1   12.70    4.70
  -9   2   1   21.10    5.20
  -9   2   1   -2.40   17.50
  -9   2   1   39.00   10.30
  -8   2   1   49.60    7.40
  -8   2   1   66.79   20.00
  -8   2   1   52.89   11.30
  -8   2   1   34.50    7.00
  -7   2   1  207.88   31.40
  -7   2   1  238.58   36.10
  -7   2   1  284.47   28.80
  -7   2   1  256.27   26.10
  -7   2   1  258.87   25.90
   6  -2  -1  166.98   15.30
  -6   2   1  121.59   15.70
  -6   2   1  148.09   18.20
  -6   2   1  139.59   15.30
  -6   2   1  154.38   15.50
  -6   2   1  119.19   19.40
   5  -2  -1  122.19   12.80
   4  -2  -1  558.84   51.99
   4  -2  -1  534.85   51.89
  -4   2   1  510.55   51.89
   1  -2  -1 1189.48  115.79
   0  -2  -1    2.60    2.30
   0   2   1    0.90    2.10
  -1  -2  -1   67.89    8.00
  -1  -2  -1   92.69    8.20
   1   2   1   76.59    8.00
   1   2   1   86.89    8.10
  -2  -2  -1  802.52   69.79
  -2  -2  -1  720.43   66.69
  -2  -2  -1  685.33   66.79
   2   2   1  607.64   66.69
   2   2   1  639.44   68.59
  -3  -2  -1  522.35   47.50
  -3  -2  -1  465.55   47.50
  -3  -2  -1  558.64   51.89
   3   2   1  459.35   47.50
   3   2   1  438.36   49.70
  -4  -2  -1   -0.30    2.00
  -5  -2  -1  442.76   51.99
  -5  -2  -1  438.76   45.20
   5   2   1  492.95   47.70
  -6  -2  -1   97.09   13.70
  -6  -2  -1   81.89   20.90
   6   2   1  102.19   23.10
   6   2   1   94.19   13.30
  -7  -2  -1   40.50    8.90
   7   2   1   37.10    9.30
   7   2   1   47.70   18.30
  -8  -2  -1  171.58   21.80
  -8  -2  -1  196.58   30.90
   8   2   1  161.38   22.10
   8   2   1  189.98   31.80
  -9  -2  -1  -13.30   16.80
  -9  -2  -1   12.60    7.80
   9   2   1    3.60    5.20
   9   2   1    9.20   14.20
 -10  -2  -1    4.20    4.50
 -10  -2  -1    9.50   18.50
  10   2   1    6.40    5.50
  10   2   1   21.10   14.70
 -11  -2  -1   -1.80    7.00
 -11  -2  -1   -3.30   15.30
  11   2   1    7.70   11.00
  11   2   1   -2.40    4.80
 -12  -2  -1   10.20   13.50
  12   2   1   -0.90    4.80
  12  -3  -1   40.60   30.50
  12  -3  -1   14.70   27.10
 -12   3   1   18.60    7.30
 -12   3   1   -0.70   14.30
 -12   3   1   11.00    4.00
  11  -3  -1   64.09   39.00
 -11   3   1  110.49   14.10
 -11   3   1  116.99   13.60
 -11   3   1  143.49   17.30
  10  -3  -1   -2.90   27.30
 -10   3   1    7.10    4.10
 -10   3   1    3.60    3.80
 -10   3   1    4.20   18.00
 -10   3   1   14.80    7.50
   9  -3  -1   -7.40   17.50
  -9   3   1    8.20   17.80
  -9   3   1    0.90    3.70
  -9   3   1    2.60    7.40
  -9   3   1   -2.70    4.10
  -8   3   1  459.75   55.49
  -8   3   1  480.55   47.80
  -8   3   1  430.76   58.59
  -8   3   1  504.55   50.79
  -8   3   1  496.05   47.90
   7  -3  -1    4.60   10.30
  -7   3   1    5.20   15.50
  -7   3   1    1.10    3.10
  -7   3   1   -3.70    3.00
  -7   3   1    0.90    7.50
  -7   3   1    4.60    6.80
  -7   3   1    1.60    3.50
  -6   3   1  128.59   14.50
  -6   3   1  109.69   13.50
  -6   3   1  130.09   16.50
  -6   3   1  126.39   13.80
  -6   3   1  119.19   17.50
   5  -3  -1  512.55   44.90
  -5   3   1  473.75   46.20
  -5   3   1  408.56   45.30
  -5   3   1  436.16   46.50
   1  -3  -1    6.80    3.30
   0  -3  -1  313.87   31.00
   0   3   1  278.37   30.80
  -1  -3  -1  442.06   44.10
  -1  -3  -1  495.55   44.10
  -1  -3  -1  478.35   47.00
   1   3   1  397.76   46.20
  -2  -3  -1   -1.00    1.40
  -2  -3  -1    0.30    1.80
  -2  -3  -1    3.50    5.50
   2   3   1    2.00    3.60
   2   3   1    0.20    1.70
  -3  -3  -1  802.32   77.89
  -4  -3  -1  175.78   18.10
  -5  -3  -1   13.30    4.20
  -5  -3  -1    3.50   14.10
   5   3   1    9.90    3.80
   5   3   1   15.10    5.00
   5   3   1   11.30    4.50
   5   3   1   16.20   10.30
  -6  -3  -1 1086.59  109.59
  -6  -3  -1 1112.09  115.49
   6   3   1 1115.19  110.79
   6   3   1 1116.29  112.89
  -7  -3  -1   99.39   14.00
  -7  -3  -1   72.59   21.80
   7   3   1   98.99   20.70
   7   3   1   92.09   13.90
  -8  -3  -1   28.20    8.20
  -8  -3  -1    8.90   15.30
   8   3   1   16.70    7.20
   8   3   1   20.30   13.30
  -9  -3  -1  208.58   24.00
   9   3   1  211.88   28.60
   9   3   1  180.88   24.50
 -10  -3  -1   -3.30   15.70
 -10  -3  -1   14.10    7.80
  10   3   1    1.30    5.20
  10   3   1    4.00    5.00
  10   3   1    7.10   11.10
 -11  -3  -1    5.30    7.30
 -11  -3  -1   -8.80   14.20
  11   3   1    0.00   10.50
  11   3   1   -1.90    5.30
  11   3   1    3.80    5.10
  12  -4  -1   33.20   30.40
 -12   4   1    7.10    5.00
 -12   4   1   -0.10    3.00
 -12   4   1    3.20    6.10
  11  -4  -1   24.30   38.30
 -11   4   1   53.99    8.90
 -11   4   1   59.19    8.50
 -11   4   1   56.99   10.60
  10  -4  -1  -13.20   31.70
 -10   4   1    3.70    3.60
 -10   4   1    4.30    6.90
 -10   4   1    5.30    4.10
 -10   4   1   -1.40   16.60
  -9   4   1   26.50    5.90
  -9   4   1   38.50    9.30
  -9   4   1    3.20   18.80
  -9   4   1   20.50    5.50
  -8   4   1  780.72   75.99
  -8   4   1  538.55   77.59
  -8   4   1  713.53   66.59
  -8   4   1  645.14   68.29
  -8   4   1  677.93   66.29
   7  -4  -1   12.70   10.10
  -7   4   1   25.90    4.90
  -7   4   1   11.70    8.00
  -7   4   1   19.30    4.70
  -7   4   1   19.40   17.70
  -7   4   1   17.50   10.20
  -7   4   1   13.90    4.80
  -6   4   1   19.50    4.40
  -6   4   1   30.90   29.00
  -6   4   1   20.00    4.50
  -6   4   1   30.50    8.70
  -6   4   1   22.80    5.80
  -6   4   1   18.00    7.20
  -5   4   1  459.65   50.39
  -5   4   1  475.75   47.60
  -5   4   1  525.35   48.90
  -5   4   1  452.25   48.40
  -5   4   1  493.85   47.90
  -4   4   1    6.60    4.10
   1  -4  -1   27.80    6.50
   0  -4  -1  784.62   73.29
   0   4   1  663.13   72.39
  -1  -4  -1  742.73   72.49
  -1  -4  -1  690.93   68.49
  -1  -4  -1  778.12   68.39
   1   4   1  609.94   71.29
  -2  -4  -1   56.49    6.70
  -3  -4  -1  129.89   12.50
   3   4   1  101.69   13.10
   3   4   1  134.59   15.20
   3   4   1  101.09   13.90
  -4  -4  -1  269.77   25.50
  -4  -4  -1  199.68   32.70
   4   4   1  233.18   26.30
   4   4   1  252.77   28.00
   4   4   1  243.38   29.20
   4   4   1  287.67   27.90
   4   4   1  236.18   25.00
   4   4   1  257.47   26.60
  -5  -4  -1   20.40   15.60
   5   4   1   12.70    4.70
   5   4   1   16.50    5.80
   5   4   1   12.50    6.90
   5   4   1   12.60    8.80
   5   4   1    8.40    4.30
  -6  -4  -1  611.14   67.49
  -6  -4  -1  617.54   61.19
   6   4   1  605.54   62.29
   6   4   1  556.94   63.59
  -7  -4  -1  109.19   25.50
  -7  -4  -1  149.59   17.70
   7   4   1  125.39   17.80
   7   4   1  124.29   21.90
  -8  -4  -1   43.10    9.30
  -8  -4  -1    0.20   16.60
   8   4   1   29.20    8.50
   8   4   1   43.10   15.80
  -9  -4  -1    2.40   17.70
  -9  -4  -1   63.29   10.60
   9   4   1   38.30    9.40
   9   4   1   70.99   17.90
   9   4   1   44.30   12.50
 -10  -4  -1    3.80   14.50
 -10  -4  -1    8.20    7.30
  10   4   1    2.50    4.60
  10   4   1    9.40   10.30
  10   4   1   -2.90    5.20
 -11  -4  -1    7.70   14.00
 -11  -4  -1   -8.30    9.60
  11   4   1    0.00    4.40
  11   4   1   14.70   10.30
  12  -5  -1   22.60   28.00
 -12   5   1   21.50    4.20
  11  -5  -1   50.89   37.70
 -11   5   1    5.00    3.80
 -11   5   1    1.00    4.20
 -11   5   1    7.30    6.00
  10  -5  -1  -43.50   30.20
 -10   5   1    2.10    6.10
 -10   5   1    1.80    4.50
 -10   5   1    4.30    4.10
  -9   5   1   37.30    9.50
  -9   5   1   38.60    7.10
  -9   5   1   81.19   20.50
  -9   5   1   33.80    6.90
  -8   5   1   34.10    6.30
  -8   5   1   21.30    8.30
  -8   5   1   35.00   15.60
  -7   5   1   47.40    8.50
  -7   5   1   79.69   16.90
  -7   5   1   75.29    9.30
  -7   5   1   82.59   12.30
  -6   5   1   73.79    9.60
  -6   5   1   61.29    9.90
  -6   5   1   91.29   16.60
  -6   5   1   80.79   11.20
  -6   5   1   71.79   10.30
  -5   5   1   33.80   10.10
  -5   5   1   61.29    8.80
  -5   5   1   64.09    9.20
  -5   5   1   66.59    8.80
  -5   5   1   79.49    9.70
  -5   5   1   72.79   11.50
  -4   5   1  270.37   30.70
  -4   5   1  299.37   28.70
  -4   5   1  224.18   28.60
  -4   5   1  297.77   28.30
  -4   5   1  283.77   28.00
  -3   5   1  414.76   48.60
  -3   5   1  472.05   47.80
  -3   5   1  454.15   46.50
  -3   5   1  469.95   47.10
  -3   5   1  549.05   47.20
  -2   5   1  154.88   14.80
  -2   5   1  120.69   15.10
  -1   5   1  237.48   24.00
   0   5   1    4.90    2.20
   1   5   1    1.90    4.00
   1   5   1    5.00    2.40
   1   5   1    2.50    2.00
   1   5   1    3.80    2.40
   1   5   1    2.30    2.90
   1   5   1    5.10    3.90
  -2  -5  -1  176.78   18.40
   2   5   1  181.98   18.60
   2   5   1  178.88   18.30
   2   5   1  177.18   19.00
   2   5   1  167.58   20.40
   2   5   1  158.08   22.00
   2   5   1  222.98   21.80
   3   5   1    3.50    2.90
   3   5   1    8.20    2.60
   3   5   1    8.50    3.00
   3   5   1    2.50    7.00
   3   5   1    5.70    3.30
   3   5   1    0.40    4.50
  -4  -5  -1   11.30   20.00
   4   5   1   32.20    6.50
   4   5   1   23.10    5.20
   4   5   1   42.80    9.00
   4   5   1   29.20    4.90
   4   5   1   34.00    8.00
   4   5   1   31.10   11.20
  -5  -5  -1  612.34   55.89
  -5  -5  -1  475.55   61.19
   5   5   1  448.86   55.09
   5   5   1  601.84   57.39
   5   5   1  556.14   58.09
  -6  -5  -1  -17.60   15.00
  -6  -5  -1    6.80    7.00
   6   5   1   22.40   10.50
   6   5   1    5.20    5.40
   6   5   1    6.50    6.20
   6   5   1    1.60    5.20
  -7  -5  -1    6.70    6.80
  -7  -5  -1   10.20   15.30
   7   5   1   19.50   10.70
   7   5   1    0.10    6.10
   7   5   1    0.70    4.80
  -8  -5  -1   68.29   11.50
   8   5   1   37.20   11.60
   8   5   1   39.00   10.00
   8   5   1   72.49   18.40
  -9  -5  -1   -6.20   16.70
  -9  -5  -1   10.00    6.70
   9   5   1    5.40   10.20
   9   5   1    0.90    5.50
   9   5   1    0.40    4.10
 -10  -5  -1   14.80    7.20
 -10  -5  -1   -6.20   14.60
  10   5   1    3.50    4.80
  10   5   1   15.40    6.00
  10   5   1   12.50   10.90
  11  -6  -1   23.20   31.90
 -11   6   1   -2.70    8.10
  10  -6  -1  -28.70   30.10
 -10   6   1   49.00    7.70
 -10   6   1   37.20    8.00
 -10   6   1   63.69    7.80
  -9   6   1  118.69   14.90
  -9   6   1  130.29   14.30
  -9   6   1  112.79   15.90
  -8   6   1    2.10   12.60
  -8   6   1    1.10    4.00
  -8   6   1   -1.70    6.10
  -8   6   1    2.70    3.70
  -7   6   1   49.00    7.40
  -7   6   1   33.30    6.50
  -7   6   1   40.50    8.30
  -7   6   1   44.90   13.70
  -6   6   1   90.79   12.30
  -6   6   1   95.69   11.50
  -6   6   1   79.69   12.40
  -6   6   1   85.29   16.80
  -6   6   1  104.69   12.00
  -5   6   1    7.00    4.70
  -5   6   1   12.80    3.90
  -5   6   1   10.10    5.40
  -5   6   1    8.50    3.40
  -5   6   1    9.50    4.40
  -5   6   1   -2.90    5.90
  -4   6   1  536.05   50.39
  -4   6   1  578.44   51.09
  -4   6   1  514.75   51.29
  -4   6   1  494.25   53.19
  -4   6   1  441.46   50.99
  -4   6   1  460.55   49.60
  -3   6   1  228.38   24.00
  -3   6   1  229.58   23.90
  -3   6   1  215.88   24.80
  -3   6   1  235.38   23.60
  -3   6   1  225.98   23.60
  -3   6   1  236.68   26.40
  -3   6   1  216.18   24.30
  -2   6   1   48.60    7.20
  -2   6   1   52.29    9.60
  -2   6   1   52.59    7.10
  -2   6   1   60.19    8.00
  -2   6   1   45.30    8.20
  -2   6   1   47.10    7.90
  -2   6   1   66.09    7.60
  -1   6   1  544.05   61.59
  -1   6   1  615.44   59.79
  -1   6   1  620.44   62.59
  -1   6   1  632.34   60.19
  -1   6   1  615.24   59.49
   0   6   1  130.19   18.20
   0   6   1  136.09   16.00
   0   6   1  158.38   14.60
   0   6   1  134.19   14.90
   0   6   1  138.59   17.80
   0   6   1  142.89   15.00
   0   6   1  106.09   16.80
   1   6   1   31.00    8.60
   1   6   1   38.60    9.80
   1   6   1   38.30    6.50
   1   6   1   38.30    7.80
   1   6   1   46.10    5.50
   1   6   1   37.50    5.80
   1   6   1   36.60    8.40
   2   6   1  309.07   33.40
   2   6   1  293.67   34.20
   2   6   1  321.87   30.60
   2   6   1  295.57   30.80
   2   6   1  291.97   31.30
   3   6   1  262.97   26.20
   3   6   1  258.47   26.40
   3   6   1  257.27   30.70
   3   6   1  231.58   27.30
   3   6   1  281.87   29.50
   3   6   1  245.58   28.90
   4   6   1  125.39   16.00
   4   6   1  115.19   13.20
   4   6   1   94.89   12.50
   4   6   1  114.69   18.20
   4   6   1  109.29   14.60
  -5  -6  -1  206.58   26.70
   5   6   1  258.67   30.60
   5   6   1  189.78   26.70
   5   6   1  256.17   28.50
   5   6   1  250.87   28.50
  -6  -6  -1    3.60    6.40
   6   6   1    5.00    5.40
   6   6   1    4.70    4.70
   6   6   1    0.00    9.80
   6   6   1   -1.00    5.60
  -7  -6  -1    7.40    7.20
   7   6   1   11.50    5.90
   7   6   1    9.80    6.50
   7   6   1    6.20   11.60
  -8  -6  -1  128.09   18.00
   8   6   1  147.59   22.30
   8   6   1  124.19   18.10
  -9  -6  -1   -0.10    5.90
   9   6   1    1.10    4.80
   9   6   1    2.40    9.50
   9   6   1    1.00    3.80
  10   6   1    0.10    4.40
  11  -7  -1    4.60   24.70
 -11   7   1    4.50    4.30
  10  -7  -1   -7.30   25.90
 -10   7   1   10.50    3.30
 -10   7   1    7.80    4.40
  -9   7   1   83.19    9.70
  -9   7   1   79.29   11.00
  -9   7   1   48.70   10.00
  -9   7   1  146.09   26.40
  -8   7   1   23.50    5.20
  -8   7   1   20.60    6.80
  -8   7   1   27.20    6.20
  -8   7   1   33.20   16.40
  -7   7   1    2.80    4.00
  -7   7   1    0.00    4.90
  -7   7   1   -2.70    7.80
  -7   7   1    2.20    3.70
  -6   7   1  111.99   12.70
  -6   7   1   96.39   19.20
  -6   7   1  106.09   13.90
  -6   7   1  115.99   14.00
  -5   7   1   50.39   11.30
  -5   7   1   29.70    9.30
  -5   7   1   32.60    6.90
  -5   7   1   52.69    8.40
  -4   7   1   -0.80    4.60
  -4   7   1   -1.50    3.60
  -4   7   1    1.20    5.90
  -4   7   1   -1.00    3.40
  -4   7   1   -1.10    3.80
  -4   7   1   -1.90    3.90
  -3   7   1    6.20    3.80
  -3   7   1    3.90    4.20
  -3   7   1    8.50    4.10
  -3   7   1    4.50    4.20
  -2   7   1  121.19   13.90
  -2   7   1  143.89   13.90
  -2   7   1  109.79   13.70
  -2   7   1  117.29   14.40
  -2   7   1  102.89   14.80
  -2   7   1  124.69   16.20
  -1   7   1   23.60    9.70
  -1   7   1   37.40    5.70
  -1   7   1   27.10    5.50
  -1   7   1   37.90    9.00
  -1   7   1   28.60    6.90
  -1   7   1   27.60    5.30
  -1   7   1   17.70    6.70
   0   7   1   11.10    5.40
   0   7   1   12.00    3.50
   0   7   1   18.60    6.70
   0   7   1   13.20    3.70
   0   7   1    8.30    3.50
   0   7   1   13.40    8.40
   1   7   1  183.88   23.40
   1   7   1  186.08   22.60
   1   7   1  191.58   19.30
   1   7   1  179.18   20.10
   1   7   1  143.59   21.70
   1   7   1  202.28   19.80
   2   7   1   93.09   13.50
   2   7   1   89.49   15.70
   2   7   1   94.29   11.20
   2   7   1   83.49   10.30
   2   7   1   82.59   13.40
   2   7   1   78.59   11.50
   3   7   1    5.70    4.10
   3   7   1    1.70    4.80
   3   7   1   15.40    9.10
   3   7   1   12.40    4.90
   3   7   1   10.40    4.40
   3   7   1    9.50    3.40
  -4  -7  -1   48.60    9.90
   4   7   1   44.90    7.30
   4   7   1   26.40    8.60
   4   7   1   29.00    8.60
   4   7   1   54.59   13.80
   4   7   1   30.00    5.50
   4   7   1   38.40    8.80
  -5  -7  -1    1.50    6.20
   5   7   1    4.40    6.80
   5   7   1    3.30    5.50
   5   7   1    5.30    4.50
   5   7   1   12.10   10.30
   5   7   1   12.30    6.00
  -6  -7  -1    7.10    5.90
   6   7   1    0.60   10.60
   6   7   1    0.80    5.20
   6   7   1    7.50    5.00
  -7  -7  -1   34.10    8.00
   7   7   1   26.10   12.70
   7   7   1   26.00    8.00
  -8  -7  -1    2.20    5.50
   8   7   1   -1.70    9.60
   8   7   1    1.60    3.70
   8   7   1   -1.10    4.90
  -9  -7  -1   17.10    6.00
   9   7   1   21.20    7.00
  10  -8  -1   -9.50   20.90
 -10   8   1   20.90    4.70
  -9   8   1   39.70   15.80
  -8   8   1   71.89   19.50
  -8   8   1   49.10    8.40
  -7   8   1   -4.40    4.50
  -7   8   1   -4.40    8.80
  -6   8   1   72.99   10.60
  -6   8   1   62.19   15.20
  -5   8   1  632.34   68.69
  -5   8   1  665.03   64.89
  -4   8   1  106.59   13.60
  -4   8   1   85.49   14.90
  -4   8   1  109.79   16.30
  -4   8   1  134.59   16.10
  -3   8   1    6.60    5.60
  -3   8   1    1.20    3.90
  -3   8   1    3.20    4.10
  -3   8   1    0.90    5.20
  -2   8   1   96.49   12.00
  -2   8   1   81.89   13.70
  -2   8   1   90.79   14.20
  -2   8   1  107.99   12.50
  -2   8   1  102.29   13.80
  -1   8   1   11.10    6.50
  -1   8   1    7.20    3.20
  -1   8   1    4.20    4.50
  -1   8   1    3.90    4.10
  -1   8   1    4.30    3.60
   0   8   1   76.79   10.30
   0   8   1   71.79   13.20
   0   8   1   94.29   11.80
   0   8   1   90.29   11.20
   0   8   1   92.29   16.60
   1   8   1  181.28   21.20
   1   8   1  176.38   20.40
   1   8   1  215.78   24.20
   1   8   1  172.08   19.90
   1   8   1  195.58   25.10
  -2  -8  -1   66.59   11.70
   2   8   1   55.99   11.00
   2   8   1   61.59    8.90
   2   8   1   80.79   10.30
   2   8   1   48.40   11.90
   2   8   1   64.49   11.80
   2   8   1   80.99   15.20
  -3  -8  -1   71.69   11.70
   3   8   1   46.10   10.70
   3   8   1   49.80   10.50
   3   8   1   45.60    7.90
   3   8   1   47.20   10.40
   3   8   1   77.99   10.00
   3   8   1   70.89   14.90
  -4  -8  -1   39.40    9.90
   4   8   1   55.39   14.70
   4   8   1   37.00   10.00
   4   8   1   39.80    8.40
   4   8   1   30.00    8.80
   4   8   1   19.40    7.50
  -5  -8  -1   17.80    6.80
   5   8   1   16.40   10.90
   5   8   1   13.20    6.30
   5   8   1    8.30    6.40
   5   8   1    7.10    8.10
   5   8   1    7.40    6.20
  -6  -8  -1  114.99   15.80
   6   8   1  109.59   19.50
   6   8   1  114.49   16.70
  -7  -8  -1  149.39   19.50
   7   8   1  184.48   23.70
   7   8   1  160.38   20.80
  -8  -8  -1    0.40    4.90
   8   8   1   -2.00    3.70
   8   8   1    0.60    3.90
  -9   9   1    6.80    4.30
  -9   9   1    6.00   11.10
  -8   9   1    1.80    4.70
  -8   9   1    6.80   12.30
  -7   9   1   36.50    7.30
  -7   9   1   50.39   14.90
  -6   9   1   -3.80    5.30
  -6   9   1   -5.70    6.10
  -5   9   1   76.19   14.10
  -5   9   1   46.30   11.30
  -5   9   1   84.29   11.50
  -4   9   1    5.00    5.50
  -4   9   1   -1.40    8.00
  -4   9   1    3.50    4.90
  -3   9   1   70.39   13.10
  -3   9   1  113.39   13.50
  -3   9   1   69.69   12.10
  -2   9   1   58.69   11.50
  -2   9   1   67.09    9.70
  -1   9   1    5.50    3.70
  -1   9   1    5.10    4.50
  -1   9   1   -0.10    4.80
  -1   9   1    3.70    4.40
   0   9   1   98.09   16.50
   0   9   1   69.69   10.20
   0   9   1   69.79   12.50
   0   9   1   72.39   11.50
   0   9   1   78.79   11.80
   1   9   1  103.39   13.60
   1   9   1   92.09   11.90
   1   9   1   73.39   12.70
   1   9   1  118.99   18.50
   1   9   1   88.39   14.30
  -2  -9  -1   -4.30    6.80
   2   9   1    3.30    3.80
   2   9   1    6.10    9.00
   2   9   1    3.00    4.10
   2   9   1   -8.60    4.50
   2   9   1   -4.40    3.70
  -3  -9  -1   18.40    7.20
   3   9   1   15.00    5.60
   3   9   1   11.50    5.80
   3   9   1   18.00   11.00
   3   9   1   28.20    6.70
   3   9   1    9.30    4.80
  -4  -9  -1    1.80    6.60
   4   9   1    3.50    5.10
   4   9   1   10.80   10.70
   4   9   1    6.10    5.30
   4   9   1   14.10    6.40
  -5  -9  -1   25.90    7.10
   5   9   1   21.90   11.30
   5   9   1   12.10    6.20
  -6  -9  -1    3.50    5.70
  -6  -9  -1   -0.10    7.00
   6   9   1    2.70    4.40
   6   9   1   11.50    9.90
  -7  -9  -1    6.70    7.90
   7   9   1   -1.00    3.90
  -7  10   1  117.09   19.90
  -7  10   1   95.39   15.40
  -6  10   1  127.49   20.60
  -5  10   1   11.40    7.20
  -4  10   1    7.90    5.90
  -4  10   1    4.30    5.20
  -3  10   1   29.40    8.60
  -3  10   1   32.10    8.70
  -3  10   1   24.10    7.10
  -2  10   1   54.79    9.40
  -2  10   1   40.80    8.60
  -2  10   1   49.60   10.90
  -1  10   1   98.19   14.60
  -1  10   1  116.89   14.20
  -1  10   1   85.39   12.70
  -1  10   1   87.39   13.80
   0  10   1   85.79   13.40
   0  10   1   95.59   13.10
   0  10   1   70.19   11.50
   0  10   1   77.89   12.90
   1  10   1    2.20    4.40
   1  10   1   -4.00    5.10
   1  10   1    0.40    3.80
   1  10   1   -0.30    4.20
   2  10   1   39.70   11.70
   2  10   1   29.50    7.20
   2  10   1   28.80    7.80
   2  10   1   31.00    7.70
   2  10   1   26.50    7.90
   3  10   1   43.20    9.90
   3  10   1   77.09   15.10
   3  10   1   54.69   10.40
  -4 -10  -1   -2.50    6.30
   4  10   1    1.50    4.00
   4  10   1   10.30   10.70
   4  10   1    2.40    7.50
  -5 -10  -1   48.10    8.20
   5  10   1   30.00    7.80
  -6  11   1   74.29   14.20
  -5  11   1    5.00    6.40
  -4  11   1    7.80    5.60
  -3  11   1   53.69   10.10
  -3  11   1   23.60    9.00
  -2  11   1    0.90    4.70
  -2  11   1   -4.10    6.70
  -2  11   1   -0.70    3.60
  -1  11   1   16.90    7.80
  -1  11   1   21.80    6.50
  -1  11   1   21.10    6.50
   0 -11  -1   -0.70    8.20
   0  11   1   34.00    8.80
   0  11   1   38.50    7.90
   0  11   1   21.60    6.80
  -1 -11  -1   -0.40    7.10
   1  11   1  -14.00    6.80
   1  11   1   -3.40    5.30
   1  11   1   -0.80    3.20
  -2 -11  -1    1.30    7.30
   2  11   1   16.60    9.50
   2  11   1   13.70    4.80
   2  11   1   19.90    8.30
  -3 -11  -1    0.80    6.60
   3  11   1   13.30   10.30
   3  11   1    3.70    3.50
   0  13  -2    0.90    3.60
  -1  13  -2   34.30    7.10
   1 -13   2   15.40    7.60
   2 -13   2    5.90    6.00
  -3  13  -2    2.40    4.30
   4  12  -2    7.70    7.00
   4  12  -2    5.40    5.60
  -4 -12   2    1.80    5.50
   3  12  -2   33.50    7.50
   3  12  -2   57.69   10.70
   2  12  -2   25.60    6.50
   2  12  -2   41.20    9.10
  -2 -12   2   14.30    7.80
   1  12  -2   34.10    7.60
   1  12  -2   52.09    9.90
  -1 -12   2   18.20    8.60
   0  12  -2   83.19   11.50
   0 -12   2   51.09   11.90
  -1  12  -2   19.20    7.60
  -1  12  -2   -1.70    6.40
  -1  12  -2    1.30    3.80
  -2  12  -2   43.50    9.20
  -2  12  -2   29.00    7.70
  -3  12  -2   37.50    8.60
   3 -12   2   17.40    8.00
  -4  12  -2    0.50    5.40
   4 -12   2   -1.50    6.30
  -5  12  -2   41.00   10.70
  -6  12  -2   72.89   14.40
   6  11  -2   57.69   12.00
   5  11  -2   -0.10    4.40
   5  11  -2   -4.80    7.60
  -5 -11   2    6.00    6.50
   4  11  -2   -6.10    7.90
   4  11  -2   -1.60    7.50
   4  11  -2    0.60    4.40
  -4 -11   2    1.10    6.60
   3  11  -2  250.97   31.00
   3  11  -2  310.27   31.30
   3  11  -2  237.58   29.50
   2  11  -2   66.59   12.90
   2  11  -2   55.79   10.00
   2  11  -2   66.49   11.80
  -2 -11   2   30.20   11.70
   1  11  -2    5.60    7.80
   1  11  -2    9.20    4.90
   1  11  -2    5.00    6.90
   1  11  -2   10.20    7.30
  -1 -11   2    3.40    8.60
   0  11  -2   34.60    9.20
   0  11  -2   56.19    9.80
   0  11  -2   62.99   11.80
   0  11  -2   47.50   10.50
   0 -11   2   57.29   12.50
  -1  11  -2   15.80    6.00
  -1  11  -2   10.10    6.40
  -1  11  -2   13.50    7.20
  -1  11  -2   13.50    7.70
   1 -11   2   17.00    8.60
  -2  11  -2    0.10    4.40
  -2  11  -2    7.80    5.60
  -2  11  -2    2.60    8.00
  -3  11  -2   55.89   10.50
  -3  11  -2   43.90   11.50
  -3  11  -2   45.50   10.30
  -4  11  -2   -4.40    5.00
   4 -11   2   -0.10    6.70
  -5  11  -2   41.70   12.60
  -6  11  -2   73.89   16.80
  -7  11  -2    2.50   10.90
   7 -11   2   -2.50   10.40
  -8  11  -2   26.00   13.10
   7  10  -2    6.50    5.30
   7  10  -2   21.30    8.50
  -7 -10   2    7.00    5.20
  -7 -10   2   -1.80    6.20
   6  10  -2    4.30    7.80
   6  10  -2    4.90    5.40
  -6 -10   2   -0.90    6.00
  -6 -10   2    7.50    5.20
   5  10  -2   23.40    9.40
   5  10  -2   10.80    6.10
  -5 -10   2   28.80    7.00
  -5 -10   2    4.60    7.80
   4  10  -2  125.79   17.30
   4  10  -2  117.99   18.60
   4  10  -2  133.19   18.50
  -4 -10   2  137.49   16.70
   3  10  -2   -0.30    4.50
   3  10  -2    1.10    7.10
   3  10  -2    0.60    6.00
  -3 -10   2   -6.90    6.40
   2  10  -2   90.59   13.80
   2  10  -2   87.79   14.50
   2  10  -2   97.79   15.10
   1  10  -2   11.70    6.00
   1  10  -2   13.60    6.20
   1  10  -2   13.80    6.00
   1  10  -2   16.70    6.60
   1  10  -2   15.00    7.80
   0  10  -2   96.29   15.00
   0  10  -2  104.49   15.50
   0  10  -2  140.09   15.80
   0  10  -2  105.69   15.20
   0  10  -2   87.99   16.90
   0 -10   2  119.59   18.10
  -1  10  -2  154.48   21.70
  -1  10  -2  222.48   23.20
  -1  10  -2  190.68   23.10
   1 -10   2  175.78   23.80
  -2  10  -2   84.89   15.20
  -2  10  -2  134.89   16.50
  -2  10  -2  102.39   15.50
  -3  10  -2    4.50    4.60
  -3  10  -2    2.20    5.50
  -3  10  -2    3.20    8.20
  -4  10  -2   83.89   14.30
  -4  10  -2   66.89   14.20
  -4  10  -2  139.19   18.00
  -4  10  -2   95.19   15.20
  -5  10  -2   15.20    6.20
  -5  10  -2   10.10    7.00
   5 -10   2    1.00    7.60
  -6  10  -2   15.30    7.00
  -6  10  -2    9.70    5.90
  -6  10  -2   14.20   10.20
  -7  10  -2   14.70    5.70
  -7  10  -2   17.90    6.50
  -7  10  -2   15.20   12.40
   7 -10   2   -7.70    9.80
  -8  10  -2   13.90   13.90
  -8  10  -2    0.90    4.50
   8 -10   2   -5.40   11.10
  -9  10  -2    1.50    3.90
   9 -10   2  -11.50   11.20
   8   9  -2   46.20   11.50
  -8  -9   2   37.30    7.70
   7   9  -2   44.20    9.30
   6   9  -2    3.70    8.40
   6   9  -2    5.70    5.50
  -6  -9   2    5.70    7.50
  -6  -9   2    9.60    5.80
   5   9  -2   50.09   10.00
   5   9  -2   26.50    8.30
   5   9  -2   38.70   11.60
  -5  -9   2   45.70    9.00
   4   9  -2  349.87   36.20
   4   9  -2  294.47   35.20
  -4  -9   2  327.27   34.90
   3   9  -2  169.68   23.00
   3   9  -2  219.48   23.00
  -3  -9   2  185.58   22.30
   2   9  -2   80.89   14.50
   2   9  -2  101.09   14.20
   2   9  -2   83.69   13.10
   2   9  -2  126.19   14.70
   2   9  -2   74.69   13.80
   1   9  -2  193.08   23.10
   1   9  -2  181.48   23.10
   1   9  -2  199.58   24.40
   1   9  -2  184.58   22.10
   1   9  -2  217.28   23.00
   0   9  -2   12.90    6.10
   0   9  -2   14.30    5.70
   0   9  -2    9.70    5.60
   0   9  -2   22.40    8.10
   0   9  -2   16.20    6.20
   0   9  -2   16.90    6.00
  -1   9  -2  184.08   22.50
  -1   9  -2  204.98   25.00
  -1   9  -2  198.98   23.00
  -1   9  -2  176.58   21.80
  -1   9  -2  200.38   23.10
  -2   9  -2  110.59   16.50
  -2   9  -2  122.39   17.70
  -2   9  -2  149.79   17.80
  -2   9  -2  156.18   18.60
  -3   9  -2   -5.30    7.10
  -3   9  -2   -1.70    3.80
  -3   9  -2    1.40    4.30
  -3   9  -2    2.10    4.60
  -3   9  -2   -1.90    4.00
  -4   9  -2  298.47   32.00
  -4   9  -2  358.06   34.80
  -4   9  -2  291.87   33.70
  -4   9  -2  241.48   32.40
  -5   9  -2  216.88   24.60
  -5   9  -2  245.98   26.10
  -5   9  -2  224.48   28.70
  -6   9  -2   19.30    7.00
  -6   9  -2   10.70    8.70
  -6   9  -2   19.20    5.40
  -7   9  -2  119.19   16.90
  -7   9  -2  134.19   15.80
  -7   9  -2  115.79   22.90
  -8   9  -2    2.40   14.10
  -8   9  -2    7.30    4.80
  -8   9  -2    2.10    5.20
   8  -9   2  -14.40   11.70
  -9   9  -2    2.20    4.40
   9  -9   2   -4.90   12.70
 -10   9  -2   58.99    8.60
  10  -9   2   28.80   27.90
   9   8  -2   -3.00    5.50
   9   8  -2    9.10    9.00
  -9  -8   2   20.90    5.10
   8   8  -2    0.00    8.20
   8   8  -2   -3.10    5.40
  -8  -8   2   -0.70    4.80
   7   8  -2   14.30    8.50
   7   8  -2    4.60    5.90
   7   8  -2    3.00    5.10
  -7  -8   2    7.60    5.50
  -7  -8   2    4.70    7.40
   6   8  -2   88.29   14.00
   6   8  -2   92.29   15.70
   6   8  -2   65.19   13.20
  -6  -8   2   94.39   13.00
   5   8  -2   62.39   13.60
   5   8  -2   59.79   11.90
   5   8  -2   79.69   12.90
  -5  -8   2   85.99   12.30
   4   8  -2  166.78   19.30
   4   8  -2  145.69   19.40
   4   8  -2  146.49   18.90
   4   8  -2  118.09   19.90
  -4  -8   2  168.28   18.50
   3   8  -2  110.59   14.30
   3   8  -2  113.59   14.70
   3   8  -2  100.99   14.70
   3   8  -2   88.79   14.70
   3   8  -2  111.89   15.70
  -3  -8   2   86.79   14.10
   2   8  -2    5.40    4.50
   2   8  -2    3.40    4.50
   2   8  -2    5.20    5.90
   2   8  -2   -2.50    4.70
   2   8  -2    4.20    5.30
   2   8  -2    3.90    4.40
  -2  -8   2   -2.30    5.60
   1   8  -2   76.19   11.60
   1   8  -2   76.59   10.70
   1   8  -2   71.89   12.00
   1   8  -2   68.89   11.70
   1   8  -2   72.99   12.90
   1   8  -2  100.89   13.00
   0   8  -2  120.49   16.00
   0   8  -2  141.49   17.20
   0   8  -2  137.79   15.40
   0   8  -2  133.89   16.60
   0   8  -2   97.39   16.10
   0   8  -2  140.49   18.20
  -1   8  -2   23.60    6.10
  -1   8  -2   32.60    9.30
  -1   8  -2   19.90    6.30
  -1   8  -2   12.20    6.00
  -1   8  -2   21.30    6.50
  -1   8  -2   21.20    5.90
  -2   8  -2    0.30    4.00
  -2   8  -2   -2.90    3.60
  -2   8  -2    2.20    5.00
  -2   8  -2    2.90    3.90
  -2   8  -2    5.40    4.10
  -3   8  -2  101.59   13.00
  -3   8  -2  102.79   14.60
  -3   8  -2  101.99   13.90
  -3   8  -2  113.69   14.10
  -3   8  -2   87.49   14.00
  -4   8  -2  141.59   20.80
  -4   8  -2  139.29   17.10
  -4   8  -2  152.48   19.20
  -4   8  -2  140.29   16.80
  -4   8  -2  141.69   18.30
  -5   8  -2   22.50    8.70
  -5   8  -2   17.50    5.90
  -5   8  -2   11.80    6.40
  -5   8  -2   23.90    6.00
   5  -8   2   15.20   10.40
  -6   8  -2   65.09   10.70
  -6   8  -2   62.39   15.10
  -6   8  -2   54.29   10.60
  -7   8  -2   52.19    8.00
  -7   8  -2   24.30   11.50
  -7   8  -2   31.70    8.30
  -8   8  -2    0.30    4.60
  -8   8  -2   -2.20    4.40
  -8   8  -2   11.40   13.60
   8  -8   2  -14.40   12.60
 -10   8  -2   26.80    5.30
  10  -8   2  -10.20   13.60
  10  -8   2   15.40   35.90
 -11   8  -2   10.00    5.00
  11  -8   2   24.70   31.10
  10   7  -2    3.50    6.10
  10   7  -2    1.50    7.80
 -10  -7   2   -3.90    4.20
   9   7  -2   73.39   15.80
  -9  -7   2   71.59   11.40
   8   7  -2  142.69   20.60
  -8  -7   2  129.69   17.10
   7   7  -2    1.40    4.50
   7   7  -2    2.60    5.00
   7   7  -2   10.10    8.30
  -7  -7   2    7.40    4.60
  -7  -7   2    6.90    8.10
   6   7  -2  205.68   30.10
   6   7  -2  292.87   29.60
   6   7  -2  286.77   29.90
  -6  -7   2  222.18   27.50
   5   7  -2  184.78   24.70
   5   7  -2  194.08   24.00
   5   7  -2  189.88   23.30
  -5  -7   2  232.38   22.90
   4   7  -2   89.59   14.50
   4   7  -2  101.79   13.70
   4   7  -2   94.19   13.20
   4   7  -2   88.89   14.70
   4   7  -2   88.89   12.70
  -4  -7   2   86.39   13.00
   3   7  -2  378.46   43.60
   3   7  -2  416.16   43.90
   3   7  -2  399.86   44.10
   3   7  -2  452.35   45.10
   3   7  -2  438.06   43.10
  -3  -7   2  425.66   43.10
   2   7  -2  379.76   36.20
   2   7  -2  310.67   35.30
   2   7  -2  366.36   38.20
   2   7  -2  376.66   37.10
   2   7  -2  315.17   37.00
   2   7  -2  402.96   38.00
   2   7  -2  349.77   37.20
  -2  -7   2  314.87   36.00
   1   7  -2   27.30    7.40
   1   7  -2   35.70    8.60
   1   7  -2   23.30    6.70
   1   7  -2   26.70    5.30
   1   7  -2   27.10    5.50
   1   7  -2   21.00    6.20
   0   7  -2  358.06   35.20
   0   7  -2  361.96   34.90
   0   7  -2  322.07   35.70
   0   7  -2  336.47   36.70
   0   7  -2  326.27   36.20
   0   7  -2  352.86   37.20
  -1   7  -2   52.09    7.30
  -1   7  -2   38.20    7.70
  -1   7  -2   41.70    7.20
  -1   7  -2   46.60   10.30
  -1   7  -2   47.10    8.90
  -2   7  -2    3.70    3.70
  -2   7  -2    9.40    4.80
  -2   7  -2    6.10    6.10
  -2   7  -2    7.30    3.90
  -2   7  -2    9.00    4.00
  -2   7  -2    4.70    4.10
  -3   7  -2  958.20   86.39
  -3   7  -2  759.22   85.99
  -3   7  -2  798.22   85.49
  -3   7  -2  978.40   87.19
  -4   7  -2  181.08   23.00
  -4   7  -2  174.28   21.20
  -4   7  -2  170.98   24.50
  -4   7  -2  244.68   22.20
  -4   7  -2  210.08   22.80
  -5   7  -2   28.80    7.90
  -5   7  -2   22.90    5.70
  -5   7  -2   29.40    8.90
  -5   7  -2   19.90    5.80
   5  -7   2   22.40   10.60
  -6   7  -2  188.48   20.40
  -6   7  -2  163.58   20.60
  -6   7  -2  184.08   25.10
  -7   7  -2    2.50    7.60
  -7   7  -2   -1.70    4.20
  -7   7  -2    0.60    3.20
  -7   7  -2  -10.40    4.40
   7  -7   2    4.80   11.20
  -8   7  -2   74.99   10.30
  -8   7  -2   66.89   11.40
  -8   7  -2   68.09   11.20
  -8   7  -2   79.99   21.30
  -9   7  -2  346.47   34.50
  -9   7  -2  297.47   32.80
  -9   7  -2  298.27   31.70
 -10   7  -2   -5.00    4.50
 -10   7  -2   -1.80    3.80
  10  -7   2   14.00   41.90
  10  -7   2   -5.70   15.80
 -11   7  -2   19.10    4.40
 -11   7  -2   28.30    5.20
  11  -7   2   57.19   37.80
  11  -7   2    7.80   12.60
  11   6  -2   60.09   14.00
  10   6  -2    0.30    9.40
  10   6  -2    5.00    5.40
 -10  -6   2   -1.30    4.80
 -10  -6   2   10.90    7.80
   9   6  -2    3.90    5.50
  -9  -6   2    6.60    5.70
   8   6  -2   13.80   11.00
   8   6  -2    7.20    6.50
  -8  -6   2    9.10    6.20
   7   6  -2   71.89   12.90
   7   6  -2   59.99   16.30
   7   6  -2   67.79   11.90
  -7  -6   2   56.89   10.60
   6   6  -2  138.89   19.90
   6   6  -2  134.69   17.90
   6   6  -2  129.69   17.30
  -6  -6   2  122.69   16.80
   5   6  -2  287.47   30.60
   5   6  -2  260.17   29.00
   5   6  -2  208.08   29.70
   5   6  -2  245.88   28.70
  -5  -6   2  290.37   28.20
   4   6  -2   80.49   11.60
   4   6  -2   66.89   13.30
   4   6  -2   90.99   11.90
   4   6  -2   69.09   11.60
   4   6  -2   85.89   12.70
  -4  -6   2   74.69   11.20
   3   6  -2   28.10    6.70
   3   6  -2   35.30    8.40
   3   6  -2   21.20    7.70
   3   6  -2   30.60    6.40
   3   6  -2   25.10    5.80
   3   6  -2   27.70    6.60
  -3  -6   2   33.20    6.10
  -3  -6   2   29.70    5.10
   2   6  -2   82.99   10.80
   2   6  -2   69.09   11.50
  -2  -6   2   67.19    8.50
  -1  -6   2   76.39   19.80
  -1  -6   2   61.99    7.90
   0  -6   2  504.85   49.60
   1  -6   2    0.60    2.80
  -2   6  -2   56.39    9.20
   2  -6   2   66.19    8.10
  -3   6  -2  734.03   72.89
  -3   6  -2  763.12   71.89
  -3   6  -2  635.84   71.79
  -3   6  -2  703.63   72.09
   3  -6   2  781.22   70.99
  -4   6  -2    7.40    3.90
  -4   6  -2    5.50    3.50
  -4   6  -2    4.70    3.10
  -4   6  -2    9.00    4.30
  -5   6  -2   48.80    8.80
  -5   6  -2   36.50    8.40
  -5   6  -2   45.80    7.20
  -5   6  -2   55.29   11.20
  -5   6  -2   46.80    7.40
   5  -6   2   28.50   13.50
  -6   6  -2  118.09   14.60
  -6   6  -2  101.69   14.00
  -6   6  -2  124.99   14.20
  -6   6  -2  131.79   19.50
  -7   6  -2    4.90    9.70
  -7   6  -2   -0.70    4.00
  -7   6  -2    1.10    3.10
  -7   6  -2    4.50    4.90
   7  -6   2   -6.00    9.80
  -8   6  -2    7.00    4.60
  -8   6  -2    9.50    4.70
  -8   6  -2    6.60    4.90
  -8   6  -2    6.70   11.70
   8  -6   2  -13.00   11.80
  -9   6  -2   17.90    6.60
  -9   6  -2   23.70    5.80
  -9   6  -2   39.50    8.30
   9  -6   2   -7.00   16.70
 -10   6  -2    7.10    4.10
 -10   6  -2    9.00    4.80
  10  -6   2   -3.70   44.70
  10  -6   2   -2.30   16.40
 -11   6  -2    8.30    3.80
 -11   6  -2    8.70    4.40
  11  -6   2   -4.00   12.00
  11  -6   2   55.89   43.70
  11   5  -2    5.90    6.60
 -11  -5   2   27.00    8.30
 -11  -5   2    2.10   14.30
 -11  -5   2   16.90    5.30
  10   5  -2   98.09   17.40
 -10  -5   2   86.49   14.60
 -10  -5   2   81.69   13.30
   9   5  -2   81.69   16.70
  -9  -5   2   81.29   21.60
   8   5  -2   29.30   12.40
   8   5  -2   25.70    8.90
  -8  -5   2   33.80    8.30
  -8  -5   2   43.70   16.50
   7   5  -2  223.68   31.70
   7   5  -2  262.07   31.10
   7   5  -2  281.37   30.80
  -7  -5   2  261.57   38.20
  -7  -5   2  328.47   30.00
   6   5  -2   24.80    7.20
   6   5  -2   20.30    7.90
   6   5  -2   31.90   10.20
   6   5  -2   18.50   12.70
  -6  -5   2   26.50   17.30
  -6  -5   2   32.60    7.40
   5   5  -2   69.59   12.20
   5   5  -2   59.39   10.10
   5   5  -2   44.80   13.70
   5   5  -2   68.59   10.90
  -5  -5   2   60.09    9.70
   4   5  -2  748.53   75.99
   4   5  -2  783.92   75.29
  -4  -5   2  738.33   74.59
  -4  -5   2  740.83   73.69
  -3  -5   2   38.30    5.50
  -2  -5   2  199.48   29.00
  -2  -5   2  189.28   19.40
   1   5  -2  280.57   29.90
  -1  -5   2  296.37   29.90
  -1  -5   2  313.97   35.70
  -1  -5   2  319.47   30.20
   0   5  -2   14.80    3.20
   0  -5   2   20.80    3.80
   0  -5   2   18.50    3.30
  -1   5  -2  333.37   32.60
   1  -5   2  321.97   32.60
   1  -5   2  332.47   32.80
   2  -5   2 1471.15  151.68
   2  -5   2 1665.13  151.78
   3  -5   2  156.78   16.50
  -4   5  -2  137.39   15.70
   4  -5   2  134.69   15.00
  -5   5  -2  212.98   23.50
  -5   5  -2  245.88   24.10
  -5   5  -2  240.88   26.80
  -5   5  -2  224.28   25.10
   5  -5   2  204.28   23.90
  -6   5  -2   30.80    9.40
  -6   5  -2   12.70    4.70
  -6   5  -2   19.60    4.50
  -6   5  -2   20.70    5.00
  -7   5  -2  750.32   77.89
  -7   5  -2  786.72   84.09
  -7   5  -2  769.92   76.69
  -7   5  -2  809.62   77.19
  -8   5  -2  161.28   16.60
  -8   5  -2  135.29   27.80
  -8   5  -2  144.69   16.90
  -8   5  -2  148.79   17.50
  -8   5  -2  108.19   18.20
  -9   5  -2  102.89   16.40
  -9   5  -2  119.79   15.50
  -9   5  -2  150.78   16.80
  -9   5  -2  120.49   14.90
 -10   5  -2    8.80   10.50
 -10   5  -2   12.60    6.10
 -10   5  -2   18.20    5.60
  10  -5   2   53.39   46.90
  10  -5   2    8.00   15.50
 -11   5  -2   10.20    4.40
  11  -5   2    4.10   11.50
  11  -5   2   80.79   45.70
  12  -5   2   22.40   29.90
  12   4  -2   36.80   12.00
  11   4  -2   -1.50    9.30
  11   4  -2   -1.70    5.90
 -11  -4   2   10.20   14.50
 -11  -4   2    9.50    7.30
 -11  -4   2   -1.80    5.30
  10   4  -2  184.08   24.70
 -10  -4   2  165.48   21.70
 -10  -4   2  157.78   20.30
   9   4  -2  101.29   19.70
  -9  -4   2   83.19   23.60
  -9  -4   2  139.29   15.90
   8   4  -2   50.19   16.10
   8   4  -2   22.00   20.80
  -8  -4   2   43.20    9.70
  -8  -4   2   80.09   20.80
   7   4  -2  719.93   72.09
  -7  -4   2  697.03   67.59
  -7  -4   2  597.94   74.39
   6   4  -2  243.28   29.70
   6   4  -2  211.38   26.00
  -6  -4   2  232.68   25.40
  -6  -4   2  265.67   33.70
   5   4  -2  -14.60    9.70
   5   4  -2    1.10    7.50
  -5  -4   2    3.90    3.40
  -4  -4   2  307.57   30.80
   3   4  -2   11.60    3.40
   3   4  -2    4.60    8.60
  -3  -4   2   12.30    2.60
  -3  -4   2   14.80   10.80
   2   4  -2  155.58   15.90
  -2  -4   2  160.28   22.30
  -2  -4   2  149.69   15.90
  -2  -4   2  155.28   15.70
   1   4  -2 1228.08  118.09
  -1  -4   2 1264.87  118.19
  -1  -4   2 1244.48  118.09
  -1  -4   2 1140.79  121.49
   0  -4   2   23.30    3.80
   0  -4   2   29.10    4.00
  -1   4  -2  607.54   60.29
   1  -4   2  639.94   60.49
   1  -4   2  611.04   60.39
  -2   4  -2 2056.79  216.88
   2  -4   2 2309.57  217.08
   2  -4   2 2381.86  217.08
  -3   4  -2   11.00    2.70
   3  -4   2   15.50    2.90
   3  -4   2   16.30    3.20
   4  -4   2    6.60    3.10
  -5   4  -2  187.48   21.40
  -5   4  -2  226.38   22.10
  -5   4  -2  216.68   25.00
  -6   4  -2   63.89    8.90
  -6   4  -2   69.89    8.80
  -6   4  -2   80.99   15.70
  -6   4  -2   50.49   10.10
  -7   4  -2  396.86   42.80
  -7   4  -2  387.76   54.49
  -7   4  -2  407.46   48.70
  -7   4  -2  446.06   41.80
  -7   4  -2  400.76   42.20
  -8   4  -2  246.68   24.50
  -8   4  -2  225.18   24.90
  -8   4  -2  268.97   37.90
  -8   4  -2  233.08   25.60
  -8   4  -2  188.68   26.10
  -9   4  -2   23.50   20.20
   9  -4   2    1.60   14.00
   9  -4   2   -8.80   36.00
 -10   4  -2   29.90    7.00
 -10   4  -2   44.50    8.00
 -10   4  -2   40.90    9.80
 -10   4  -2   35.00   22.20
  10  -4   2   52.09   45.40
  10  -4   2   35.40   16.50
 -11   4  -2    0.80   26.00
 -11   4  -2    9.30    5.00
 -11   4  -2   14.10    7.30
 -11   4  -2    4.10    4.30
  11  -4   2    1.60    9.60
  11  -4   2   91.59   43.00
 -12   4  -2   20.40    4.40
  12  -4   2   31.50   29.60
  12   3  -2   -1.50    6.60
  12   3  -2    8.10    9.70
 -12  -3   2   -2.80   13.80
 -12  -3   2   10.70    7.00
  11   3  -2   73.89   17.80
 -11  -3   2   55.99   11.50
  10   3  -2   11.40   11.90
 -10  -3   2   12.40    7.80
 -10  -3   2   19.60   15.30
 -10  -3   2   -9.20    6.60
   9   3  -2   -7.40   19.30
   9   3  -2   15.50   14.00
  -9  -3   2   16.90   16.00
  -9  -3   2   22.50    7.40
   8   3  -2  304.47   43.50
  -8  -3   2  389.86   45.80
  -8  -3   2  352.26   37.00
   7   3  -2  -10.60   15.10
   7   3  -2   24.00   14.50
  -7  -3   2   13.70   14.70
  -7  -3   2   22.80    7.00
   6   3  -2    7.00   11.30
   6   3  -2    4.10   11.20
  -6  -3   2   18.80   14.50
  -6  -3   2   19.20    6.10
   4   3  -2  343.27   31.10
   4   3  -2  255.27   31.70
  -4  -3   2  311.27   30.60
  -4  -3   2  274.97   30.90
  -4  -3   2  390.36   44.70
   3   3  -2  125.09   12.30
   3   3  -2  105.79   12.10
  -3  -3   2  130.29   19.90
  -3  -3   2  120.59   12.10
  -3  -3   2  108.99   12.30
   2   3  -2 1273.47  127.59
   2   3  -2 1395.66  127.69
  -2  -3   2 1308.47  131.79
  -2  -3   2 1272.17  127.59
  -2  -3   2 1350.76  127.59
   1   3  -2   34.10    4.60
   1   3  -2   40.60    4.60
  -1  -3   2   40.60    9.30
  -1  -3   2   36.80    4.60
  -1  -3   2   34.00    4.50
   0   3  -2  355.86   31.90
   0   3  -2  322.57   31.80
   0  -3   2  278.07   31.80
   0  -3   2  339.87   31.90
  -1   3  -2    8.10    1.70
   1  -3   2    7.50    1.90
  -2   3  -2  182.08   18.70
  -2   3  -2  171.18   18.80
   2  -3   2  205.08   18.90
   2  -3   2  195.68   18.80
  -3   3  -2  722.93   71.29
   3  -3   2  746.63   71.39
  -4   3  -2   28.30    4.20
   4  -3   2   23.30    4.30
   5  -3   2    7.80    4.00
  -6   3  -2  565.44   64.89
  -6   3  -2  603.94   56.89
  -6   3  -2  558.04   57.29
  -6   3  -2  566.74   61.79
  -7   3  -2    7.80    3.90
  -7   3  -2   11.40    3.80
  -7   3  -2   -8.70   20.10
   7  -3   2   -5.60    8.30
  -8   3  -2   82.69   14.30
  -8   3  -2   97.19   12.80
  -8   3  -2   94.29   12.10
  -9   3  -2   62.49    8.30
  -9   3  -2   30.30   19.70
   9  -3   2   28.50   34.40
   9  -3   2   52.39   18.50
 -10   3  -2    3.30    4.30
 -10   3  -2   -7.90   18.30
 -10   3  -2    1.60    5.70
 -10   3  -2   13.60    8.50
  10  -3   2  101.19   43.00
  10  -3   2   11.10   10.90
 -11   3  -2   11.50   16.60
 -11   3  -2   18.50    5.00
 -11   3  -2   16.80    8.00
 -11   3  -2   19.70    6.00
  11  -3   2   50.69   37.00
  11  -3   2    3.50    8.50
 -12   3  -2   63.99   11.10
 -12   3  -2   66.59    8.70
  12  -3   2   55.29   28.00
  12   2  -2    2.40   10.50
 -12  -2   2   -2.40   13.30
 -12  -2   2    4.20    6.60
  11   2  -2  348.87   43.80
 -11  -2   2  345.17   38.20
  10   2  -2   93.09   23.10
  10   2  -2    2.90   21.00
 -10  -2   2   42.70    6.70
 -10  -2   2   33.60   10.10
 -10  -2   2   38.40   16.90
   9   2  -2   15.90   16.20
   9   2  -2  -10.70   22.90
  -9  -2   2   21.90    8.60
  -9  -2   2    9.00    4.90
  -9  -2   2   22.80    7.70
  -9  -2   2    7.70   15.10
  -8  -2   2  481.85   43.00
  -8  -2   2  418.36   49.90
  -8  -2   2  347.17   40.80
   7   2  -2  -11.70   12.50
   7   2  -2    5.90   15.10
  -7  -2   2   15.10    6.30
  -7  -2   2    9.70    3.90
  -7  -2   2    9.80   12.30
   6   2  -2  167.28   19.70
  -6  -2   2  138.79   24.00
  -6  -2   2  140.39   17.10
   5   2  -2  502.45   49.70
   4   2  -2    3.70    9.10
   4   2  -2   12.30    3.00
   4   2  -2    9.80    2.80
  -4  -2   2   12.30    2.50
  -4  -2   2   10.40   11.50
   3   2  -2  559.74   54.49
   3   2  -2  574.84   54.59
  -3  -2   2  575.04   54.39
  -3  -2   2  523.85   54.49
  -3  -2   2  569.14   60.09
   2   2  -2 1828.12  170.08
   2   2  -2 1739.13  169.98
  -2  -2   2 1733.73  169.98
  -2  -2   2 1785.52  169.98
  -2  -2   2 1723.03  173.78
   1   2  -2   -0.60    1.10
   1   2  -2    4.70    5.80
   1   2  -2    0.10    1.10
  -1  -2   2    0.70    1.20
  -1  -2   2    0.30    1.10
   0   2  -2  214.98   20.60
   0   2  -2  212.08   20.70
   0  -2   2  202.48   20.70
   0  -2   2  205.78   20.70
  -1   2  -2 1508.45  142.29
  -1   2  -2 1407.46  142.29
   1  -2   2 1475.35  142.29
   1  -2   2 1507.85  142.29
  -2   2  -2    0.10    1.50
  -2   2  -2    0.60    1.10
   2  -2   2    0.50    1.00
  -3   2  -2  140.69   15.70
  -3   2  -2  157.78   15.60
   3  -2   2  164.88   15.70
   3  -2   2  156.58   15.60
  -4   2  -2  161.48   15.80
   4  -2   2  165.08   16.10
   4  -2   2  138.79   15.70
   5  -2   2   -0.90    3.40
  -6   2  -2 2043.20  197.48
   6  -2   2 1903.51  191.08
  -7   2  -2  109.79   12.90
  -8   2  -2   57.49    9.50
  -8   2  -2   76.49   26.90
   8  -2   2   59.09   17.50
   8  -2   2   19.10   25.90
  -9   2  -2  224.88   24.80
  -9   2  -2  250.47   27.30
  -9   2  -2  208.38   41.90
   9  -2   2  231.18   32.10
 -10   2  -2   -1.30    7.50
 -10   2  -2   -3.40    6.10
 -10   2  -2   -4.40   18.40
 -10   2  -2   -0.60    3.40
  10  -2   2   85.79   38.50
  10  -2   2   -0.60    7.70
 -11   2  -2    1.00    4.30
 -11   2  -2    0.70   18.10
 -11   2  -2   18.20    8.30
  11  -2   2   42.00   30.80
 -12   2  -2    4.20   17.20
 -12   2  -2   50.99    6.60
 -12   2  -2   53.89   10.20
  12  -2   2   46.90   22.80
  12  -2   2   30.20    8.70
  12   1  -2   35.20   15.80
 -12  -1   2    0.60    4.10
 -12  -1   2   16.90    8.20
 -12  -1   2   10.80   13.70
  11   1  -2   66.49   22.60
  11   1  -2   -8.30   24.50
 -11  -1   2   11.60   15.50
 -11  -1   2   12.30    4.60
  10   1  -2   20.20   27.80
  10   1  -2   19.10   21.80
 -10  -1   2   30.90   16.50
 -10  -1   2   24.00    5.30
 -10  -1   2   34.90   10.00
  -9  -1   2  105.09   13.10
  -9  -1   2  143.89   27.00
  -9  -1   2   85.59   16.50
  -8  -1   2  221.68   23.30
  -8  -1   2  192.48   20.10
  -8  -1   2  175.78   21.70
  -8  -1   2  166.88   29.30
  -7  -1   2    2.20    3.20
  -7  -1   2    4.80   10.20
  -7  -1   2    1.80    6.00
   6   1  -2   36.60    6.70
  -6  -1   2   61.89   15.50
   5   1  -2  149.49   15.80
   4   1  -2  671.53   64.89
   4   1  -2  699.03   64.99
  -4  -1   2  632.14   64.69
   3   1  -2  121.19   12.00
   3   1  -2  125.79   12.00
   3   1  -2   90.49   18.30
  -3  -1   2  108.29   12.00
  -3  -1   2  117.19   11.80
   2   1  -2  184.28   16.70
   2   1  -2  133.69   21.00
   2   1  -2  169.18   16.70
  -2  -1   2  169.28   16.70
  -2  -1   2  173.78   16.60
   1   1  -2  142.09   16.20
   1   1  -2  176.48   16.30
  -1  -1   2  178.08   16.30
  -1  -1   2  162.78   16.30
   0   1  -2  600.14   58.39
   0  -1   2  578.94   58.39
   0  -1   2  615.04   58.29
  -1   1  -2  128.89   13.30
  -1   1  -2  109.09   12.30
  -1   1  -2  129.29   12.50
   1  -1   2  134.39   12.50
   1  -1   2  117.29   12.30
  -2   1  -2  442.76   42.70
  -2   1  -2  421.06   42.70
   2  -1   2  448.76   42.70
   2  -1   2  445.06   42.80
  -3   1  -2  594.74   55.29
  -3   1  -2  520.25   55.19
   3  -1   2  597.74   55.29
   3  -1   2  560.64   55.19
  -4   1  -2  293.37   31.70
  -4   1  -2  347.77   31.60
   4  -1   2  348.47   31.80
   4  -1   2  291.47   31.50
   5  -1   2  383.06   38.20
  -6   1  -2   33.90   16.60
   6  -1   2   -3.10   11.70
   6  -1   2   -4.90    5.70
  -7   1  -2   59.69    8.20
  -7   1  -2   35.20   18.20
   7  -1   2    1.30   18.90
   7  -1   2   57.99   15.00
  -8   1  -2   35.70   19.90
  -8   1  -2   68.39   10.50
   8  -1   2   26.90   25.90
   8  -1   2   95.29   16.70
  -9   1  -2    4.90   19.50
   9  -1   2    8.00    8.20
   9  -1   2   49.60   30.20
 -10   1  -2   15.30   20.70
 -10   1  -2   62.79    8.10
  10  -1   2   74.79   32.60
  10  -1   2   38.50   10.50
 -11   1  -2   53.19    7.70
 -11   1  -2   22.00   19.10
  11  -1   2   69.99   26.00
  11  -1   2   38.50   10.10
 -12   1  -2   46.30   10.40
 -12   1  -2   32.10    5.90
 -12   1  -2   12.10   16.40
  12  -1   2   46.40   18.40
  12   0  -2  183.68   34.30
  11   0  -2   16.70   27.00
  11   0  -2   38.10   25.60
 -11   0   2    2.40    3.70
 -11   0   2   -0.10   15.70
 -11   0   2   11.90    8.10
  10   0  -2   46.50   30.10
  10   0  -2   16.60   25.60
 -10   0   2   71.99    9.00
 -10   0   2   96.99   14.70
 -10   0   2   36.60   21.00
  -9   0   2  121.59   29.20
  -9   0   2  166.08   21.80
  -9   0   2  201.38   18.70
  -8   0   2   11.90    7.70
  -8   0   2   35.30   16.40
  -8   0   2   11.70    4.10
  -7   0   2  277.27   29.00
  -7   0   2  247.18   26.20
  -7   0   2  276.67   34.50
  -7   0   2  238.88   26.80
   6   0  -2  295.87   25.50
  -6   0   2  223.28   25.10
  -6   0   2  242.18   31.70
  -6   0   2  238.78   27.20
   5   0  -2  102.69   11.10
   4   0  -2 1114.29  104.59
   4   0  -2  943.81  109.99
   4   0  -2 1254.17  104.69
  -4   0   2  998.50  104.39
   3   0  -2  454.55   43.40
   3   0  -2  489.85   43.40
   3   0  -2  396.56   48.70
  -3   0   2  431.76   43.20
   2   0  -2  324.87   29.30
  -2   0   2  290.47   29.20
  -2   0   2  286.77   29.30
   1   0  -2  105.19   10.60
   0   0  -2   17.80    3.60
   0   0  -2   16.30    2.30
   0   0   2   22.10    2.20
   0   0   2   22.40    2.60
  -1   0  -2   76.29    7.80
  -1   0  -2   69.39    7.70
   1   0   2   87.49    9.00
   1   0   2   72.59    7.70
  -2   0  -2 2130.79  189.18
  -2   0  -2 1870.01  187.48
  -2   0  -2 1850.21  187.38
   2   0   2 2092.19  188.88
   2   0   2 1875.21  187.48
   2   0   2 1847.22  187.38
  -3   0  -2    8.50    5.70
  -3   0  -2   14.00    2.50
  -3   0  -2   11.20    2.30
   3   0   2    8.70    2.00
   3   0   2   12.10    2.60
   3   0   2    8.50    4.00
  -4   0  -2  361.36   32.00
  -4   0  -2  277.17   32.00
  -4   0  -2  349.07   36.80
   4   0   2  305.27   33.80
   4   0   2  324.47   32.00
  -5   0  -2 2023.10  195.58
  -6   0  -2   18.10   14.30
   6   0   2  -22.90   14.20
   6   0   2   20.60    8.00
  -7   0  -2    0.20   15.80
   7   0   2   -0.10   18.90
   7   0   2   -0.20    5.00
  -8   0  -2  515.15   60.59
   8   0   2  491.45   54.59
  -9   0  -2    2.90   18.10
   9   0   2    9.60    6.70
   9   0   2   32.20   24.70
 -10   0  -2   91.99   12.50
  10   0   2  113.99   16.70
 -11   0  -2   43.00    6.30
 -11   0  -2   12.10   16.50
  11   0   2   25.70    7.40
  11   0   2   53.99   19.70
 -12   0  -2    5.90    7.70
 -12   0  -2    2.80   14.50
 -12   0  -2   -1.80    4.10
  12   0   2   -3.10   12.30
  12   0   2    3.60    6.60
  12  -1  -2   91.89   27.70
  12  -1  -2    5.30   24.10
 -12   1   2   23.10   18.30
 -12   1   2   49.20    7.00
 -12   1   2   83.79   12.80
  11  -1  -2   40.80   30.30
  11  -1  -2   62.89   30.70
 -11   1   2   45.10   21.10
 -11   1   2   29.20    6.00
 -11   1   2   56.09   11.40
  10  -1  -2   17.50   29.40
 -10   1   2  -10.90   16.90
 -10   1   2    7.40    7.50
 -10   1   2    3.90    3.50
  -9   1   2  195.38   18.20
  -9   1   2  172.08   18.10
  -9   1   2  137.69   21.30
  -9   1   2  123.69   31.40
  -8   1   2  101.29   15.00
  -8   1   2   71.09   10.00
  -8   1   2   68.89    9.70
  -7   1   2   15.20    6.50
  -7   1   2    5.50    3.10
  -7   1   2    2.90    2.80
  -7   1   2    4.30   11.80
   6  -1  -2  182.78   17.50
  -6   1   2  171.48   17.30
  -6   1   2  149.88   19.50
  -6   1   2  156.88   17.40
   5  -1  -2   68.59    8.00
  -5   1   2   82.49   13.30
   4  -1  -2  255.87   25.80
   4  -1  -2  284.87   25.90
  -4   1   2  248.18   25.70
   3  -1  -2  238.48   24.00
   3  -1  -2  251.67   24.00
   1  -1  -2 1380.76  134.49
   0  -1  -2    0.10    2.40
  -1  -1  -2  192.58   20.40
  -1  -1  -2  227.18   20.40
  -1  -1  -2  226.98   22.50
   1   1   2  206.68   22.10
   1   1   2  188.88   20.30
   1   1   2  211.18   20.40
  -2  -1  -2  372.46   37.20
  -2  -1  -2  338.27   37.20
  -2  -1  -2  420.46   39.80
   2   1   2  398.06   39.30
  -3  -1  -2   12.20    2.50
  -3  -1  -2    8.70    2.50
  -3  -1  -2    9.30    6.70
   3   1   2    7.00    2.50
   3   1   2   10.00    4.80
  -4  -1  -2   31.70   12.20
  -4  -1  -2   27.60    4.80
   4   1   2   39.40   12.40
  -5  -1  -2  148.69   15.80
  -5  -1  -2  135.89   24.00
   5   1   2  146.19   18.40
  -6  -1  -2  204.18   27.90
  -6  -1  -2  273.47   35.00
   6   1   2  215.88   38.10
   6   1   2  313.87   30.30
  -7  -1  -2   42.80    9.60
  -7  -1  -2   18.00   16.10
   7   1   2   43.00   10.20
   7   1   2   48.60   20.80
  -8  -1  -2   49.80   19.30
  -8  -1  -2   47.50   10.80
   8   1   2   44.70   11.20
   8   1   2   49.80   22.40
   9   1   2  177.28   33.10
   9   1   2  113.79   18.20
 -10  -1  -2  -12.40   17.80
 -10  -1  -2    1.70    4.00
  10   1   2   13.10   16.70
  10   1   2    1.90    4.70
 -11  -1  -2   96.39   13.80
 -11  -1  -2   17.70   17.00
 -11  -1  -2   45.00    7.70
  11   1   2   63.19   17.40
  11   1   2   54.29   10.90
 -12  -1  -2   17.50   15.50
  12  -2  -2    4.70   24.80
  12  -2  -2   27.00   25.60
 -12   2   2   -1.30    3.10
 -12   2   2   -0.30   15.20
 -12   2   2    4.60    6.50
  11  -2  -2   48.70   34.80
 -11   2   2   79.19   10.10
 -11   2   2   55.39   22.30
 -11   2   2  113.79   16.20
  10  -2  -2    9.80   32.30
 -10   2   2   22.40    8.40
 -10   2   2    8.70    4.30
 -10   2   2    5.50    3.70
 -10   2   2    2.60   18.00
   9  -2  -2  -23.80   18.60
  -9   2   2   13.60    8.80
  -9   2   2   25.20   19.40
  -9   2   2   15.80    4.30
  -9   2   2   18.60    4.50
  -8   2   2  215.38   28.80
  -8   2   2  259.37   26.30
  -8   2   2  266.37   39.40
  -8   2   2  265.77   26.20
  -7   2   2   52.39   19.40
  -7   2   2   51.49    7.80
  -7   2   2   47.40   13.50
  -7   2   2   68.49   11.90
  -7   2   2   54.29    7.40
  -6   2   2   12.10    3.30
  -6   2   2   10.70    6.70
  -6   2   2   15.00    6.70
  -6   2   2   12.90    3.20
  -6   2   2   37.90   16.10
   5  -2  -2  740.23   64.49
  -5   2   2  573.64   66.09
   2  -2  -2 1319.67  129.19
   1  -2  -2   90.59   11.50
   0  -2  -2 1016.70  100.19
  -1  -2  -2 2068.79  196.18
  -1  -2  -2 1962.80  193.68
  -1  -2  -2 2121.49  193.68
   1   2   2 1883.41  195.78
  -2  -2  -2   68.09    6.70
  -2  -2  -2   61.69    6.90
  -2  -2  -2   65.89   10.80
   2   2   2   54.79    6.90
   2   2   2   49.00    9.50
  -3  -2  -2   33.90    4.90
  -3  -2  -2   45.60   14.90
  -4  -2  -2  716.33   69.89
  -5  -2  -2   -0.90    4.30
  -5  -2  -2    9.30   14.20
   5   2   2    5.20    3.40
   5   2   2   -6.30   11.00
   5   2   2    4.40    4.10
   5   2   2    3.50    2.50
  -6  -2  -2  344.27   42.70
   6   2   2  339.67   41.30
   6   2   2  392.16   37.10
   6   2   2  268.47   34.00
  -7  -2  -2  219.88   26.40
  -7  -2  -2  179.98   33.70
   7   2   2  247.68   27.30
   7   2   2  247.88   33.90
  -8  -2  -2    3.30    8.10
  -8  -2  -2    8.70   15.70
   8   2   2   11.60   14.30
   8   2   2    7.30    5.10
  -9  -2  -2  371.36   39.20
   9   2   2  330.77   40.20
   9   2   2  389.36   45.00
 -10  -2  -2   13.60    5.00
 -10  -2  -2   -7.50   18.40
  10   2   2   17.50    6.50
  10   2   2   45.40   15.40
 -11  -2  -2    8.60   15.70
  11   2   2    7.20   12.00
  11   2   2    4.50    4.60
  11   2   2    3.90    5.50
  12  -3  -2   43.40   26.60
  12  -3  -2   25.30   26.80
  11  -3  -2   57.09   35.80
 -11   3   2    2.00   16.00
 -11   3   2    8.30    4.10
 -11   3   2   21.10    7.80
 -11   3   2    8.10    4.70
  10  -3  -2  -24.60   29.90
 -10   3   2   -4.90   17.80
 -10   3   2   27.90    8.20
 -10   3   2   12.10    4.40
 -10   3   2   10.90    4.00
  -9   3   2   37.50    6.80
  -9   3   2   47.70   21.70
  -9   3   2   44.80    7.30
  -9   3   2   53.79   11.70
  -8   3   2   58.49    9.10
  -8   3   2   87.99   19.50
  -8   3   2   45.40   22.20
  -8   3   2   69.99   13.30
  -8   3   2   78.29    9.60
  -7   3   2  100.79   14.90
  -7   3   2   98.99   11.80
  -7   3   2   87.29   18.20
  -7   3   2  110.69   12.20
  -6   3   2   45.10   18.40
  -6   3   2   43.70    6.10
  -6   3   2   40.80    9.10
  -6   3   2   33.90    6.10
  -6   3   2   40.80   10.20
  -5   3   2  603.04   69.49
  -5   3   2  744.13   68.99
  -5   3   2  726.33   67.49
  -5   3   2  657.53   68.29
  -5   3   2  709.93   67.59
  -4   3   2   42.90    7.40
   2  -3  -2  966.60   95.69
   1  -3  -2   27.80    6.30
   0  -3  -2  103.79   13.90
  -1  -3  -2  397.46   36.30
  -1  -3  -2  413.16   40.30
  -1  -3  -2  347.07   36.30
   1   3   2  336.47   39.20
  -2  -3  -2    4.20    2.00
  -3  -3  -2  408.16   40.20
  -4  -3  -2  163.58   25.80
  -4  -3  -2  202.08   18.60
   4   3   2  162.78   19.10
   4   3   2  158.28   18.80
   4   3   2  160.58   23.10
   4   3   2  196.38   20.70
  -5  -3  -2  105.59   22.30
   5   3   2   96.99   17.20
   5   3   2   85.69   10.40
   5   3   2   77.99   11.70
   5   3   2   96.19   11.70
  -6  -3  -2   14.10    7.30
  -6  -3  -2   18.20   16.60
   6   3   2    6.50    3.80
   6   3   2   -1.10    9.50
   6   3   2    4.00    4.70
  -7  -3  -2  268.87   28.50
  -7  -3  -2  202.48   36.10
   7   3   2  238.98   32.20
   7   3   2  245.08   28.70
  -8  -3  -2   -0.90    8.50
  -8  -3  -2   12.20   16.80
   8   3   2    3.40    4.90
   8   3   2    4.30   11.60
  -9  -3  -2   49.40   11.70
   9   3   2   67.19   18.70
   9   3   2   54.89   11.60
 -10  -3  -2   -3.80   16.30
 -10  -3  -2    8.10   10.30
  10   3   2    2.40    5.90
  10   3   2    4.80   12.70
  10   3   2    9.20    5.20
 -11  -3  -2    2.00   14.30
  11   3   2   -2.10    4.60
  11   3   2    1.20    4.50
  11   3   2   -1.20   15.20
  12  -4  -2   40.30   24.20
  12  -4  -2    1.50   25.30
 -12   4   2   53.09    6.80
  11  -4  -2   35.10   34.90
 -11   4   2    0.90    6.00
 -11   4   2    5.80    3.60
 -11   4   2    6.20    4.10
  10  -4  -2  -32.10   30.20
 -10   4   2   10.00    4.50
 -10   4   2   11.60    4.10
 -10   4   2   15.60    7.70
 -10   4   2    5.50   15.60
  -9   4   2  172.28   20.30
  -9   4   2  119.99   16.70
  -9   4   2  169.68   17.50
  -8   4   2   55.89    8.30
  -8   4   2   70.09   18.00
  -8   4   2   64.99   11.70
  -8   4   2   27.40   22.10
  -8   4   2   46.30    7.70
  -7   4   2   64.99    9.20
  -7   4   2   55.29    8.90
  -7   4   2   75.59   16.60
  -7   4   2   95.79   26.90
  -7   4   2   84.59   12.70
  -6   4   2  161.58   21.40
  -6   4   2  147.89   17.00
  -6   4   2  155.18   17.00
  -6   4   2  168.28   19.20
  -5   4   2    9.90    3.90
  -5   4   2    9.00    3.00
  -5   4   2   10.90    4.80
  -5   4   2   12.20    6.10
  -5   4   2    8.30    3.40
  -5   4   2    8.90    4.80
  -4   4   2   70.39    8.40
  -4   4   2   51.79    7.40
  -4   4   2   60.49    7.30
  -4   4   2   45.90    9.10
  -4   4   2   52.19    8.60
  -4   4   2   52.69    8.70
  -3   4   2  321.57   34.40
  -3   4   2  359.96   34.80
  -2   4   2    1.10    3.00
   1  -4  -2 1177.58  116.89
   1   4   2    2.00    3.80
   1   4   2    8.90    2.20
  -2  -4  -2  173.58   17.20
   2   4   2  162.88   18.50
   2   4   2  169.68   17.10
   2   4   2  201.68   18.10
   2   4   2  155.98   19.30
   2   4   2  150.88   17.30
   3   4   2   50.29    8.10
   3   4   2   49.99    7.60
   3   4   2   36.00   11.30
   3   4   2   52.99    7.10
   3   4   2   49.80    6.30
   3   4   2   43.70    6.70
  -4  -4  -2   -0.80   15.40
   4   4   2   16.40    8.30
   4   4   2    5.50    5.10
   4   4   2   11.90    3.80
   4   4   2    8.40    4.40
   4   4   2   10.70    4.10
   4   4   2    4.80    3.10
   4   4   2    7.90    3.10
  -5  -4  -2  356.26   45.80
   5   4   2  368.26   40.80
   5   4   2  351.86   37.30
   5   4   2  330.67   39.20
   5   4   2  333.67   35.30
   5   4   2  381.86   37.40
  -6  -4  -2   92.49   14.60
   6   4   2   83.49   18.70
   6   4   2   70.89   11.20
   6   4   2   57.59   12.80
   6   4   2   93.49   13.90
   6   4   2   88.29   15.10
  -7  -4  -2   34.40    9.70
  -7  -4  -2   22.50   18.30
   7   4   2   28.50   14.20
   7   4   2   13.90    7.90
   7   4   2   21.90    7.70
  -8  -4  -2  171.88   21.90
   8   4   2  158.38   21.60
   8   4   2  167.98   26.00
  -9  -4  -2    4.50    7.90
  -9  -4  -2   -7.30   17.10
   9   4   2   14.10   13.70
   9   4   2    7.20    5.40
   9   4   2    0.10    5.00
 -10  -4  -2    6.50   15.30
 -10  -4  -2    3.70    7.50
  10   4   2    2.30    4.90
  10   4   2    0.00    3.70
  10   4   2   13.50   11.90
  11  -5  -2   26.20   31.30
 -11   5   2    8.70    5.60
 -11   5   2    3.10    3.20
 -11   5   2   -3.70    4.00
  10  -5  -2  -37.30   26.50
 -10   5   2    3.40    4.30
 -10   5   2    9.70    6.20
 -10   5   2    5.80    3.60
  -9   5   2  148.29   17.50
  -9   5   2  153.78   17.30
  -9   5   2  165.88   20.20
  -8   5   2    4.70    6.70
  -8   5   2    3.80    3.70
  -8   5   2    4.10    4.10
  -8   5   2   24.20   14.10
  -7   5   2   71.09   12.00
  -7   5   2   73.89   10.20
  -7   5   2  111.89   20.30
  -7   5   2   66.39   10.20
  -6   5   2  449.26   46.80
  -6   5   2  476.25   51.49
  -6   5   2  504.05   48.10
  -6   5   2  439.76   46.40
  -5   5   2    6.80    4.90
  -5   5   2    2.90    5.50
  -5   5   2    8.00    3.20
  -5   5   2    0.50    3.00
  -5   5   2    5.10    4.20
  -4   5   2   16.20    5.30
  -4   5   2   16.70    3.80
  -4   5   2   20.20    5.40
  -4   5   2   16.20    3.60
  -4   5   2   15.70    6.10
  -3   5   2  156.68   17.90
  -3   5   2  169.78   20.50
  -3   5   2  163.78   17.80
  -3   5   2  179.18   18.20
  -3   5   2  166.78   17.90
  -3   5   2  192.48   19.00
  -2   5   2   10.70    3.90
  -2   5   2    9.20    4.90
  -2   5   2   16.10    3.30
  -2   5   2   11.60    3.20
  -2   5   2   15.90    3.70
  -2   5   2   14.40    3.50
  -1   5   2  305.57   38.40
  -1   5   2  355.26   36.50
  -1   5   2  332.27   40.90
  -1   5   2  341.87   35.40
  -1   5   2  350.56   35.80
  -1   5   2  416.26   35.70
  -1   5   2  397.86   38.80
   0   5   2  360.36   35.60
   0   5   2  395.26   35.20
   0   5   2  324.87   38.00
   0   5   2  365.46   36.40
   0   5   2  292.17   37.80
   0   5   2  368.06   38.20
   0   5   2  364.76   35.20
   1   5   2    2.20    2.10
   1   5   2   -1.80    4.00
   1   5   2    4.40    4.50
   1   5   2    1.40    2.10
   1   5   2   -1.20    6.50
   1   5   2    1.20    2.90
   1   5   2    1.10    2.20
   2   5   2  653.33   60.89
   2   5   2  618.34   61.69
   2   5   2  537.85   63.09
   2   5   2  673.33   60.09
   2   5   2  623.34   60.19
   2   5   2  565.64   62.59
   3   5   2  163.18   20.20
   3   5   2  156.78   18.40
   3   5   2  172.78   17.40
   3   5   2  188.88   21.20
   3   5   2  170.98   17.60
   3   5   2  166.38   19.30
   3   5   2  146.19   22.20
  -4  -5  -2   19.20   18.80
   4   5   2   26.40   10.60
   4   5   2   20.30    7.50
   4   5   2   22.10    4.60
   4   5   2   24.30    4.60
   4   5   2   26.00    7.20
   4   5   2   21.90    5.80
  -5  -5  -2  200.78   32.40
   5   5   2  174.28   19.70
   5   5   2  188.68   22.40
   5   5   2  217.28   27.20
   5   5   2  180.58   23.60
  -6  -5  -2  102.49   16.30
  -6  -5  -2  125.09   27.20
   6   5   2  116.89   17.60
   6   5   2   98.49   16.30
   6   5   2  119.49   16.70
  -7  -5  -2   39.60   17.40
  -7  -5  -2   44.00    9.70
   7   5   2   29.90    9.30
   7   5   2   31.30   10.50
   7   5   2   41.30   15.80
  -8  -5  -2  165.78   20.90
   8   5   2  157.98   26.00
   8   5   2  165.88   21.50
  -9  -5  -2   -5.10   17.40
  -9  -5  -2    3.70    6.70
   9   5   2   10.40   11.90
   9   5   2    2.10    4.80
   9   5   2    5.50    4.50
  10   5   2    1.40    4.30
  10   5   2   -1.00    3.80
  11  -6  -2  -10.50   24.90
 -11   6   2    2.60    3.80
 -11   6   2   -1.50    2.70
 -10   6   2   55.39    9.00
 -10   6   2   47.20    8.80
 -10   6   2   62.69    7.90
  -9   6   2    1.50    4.20
  -9   6   2    3.30    3.50
  -9   6   2    1.90    5.30
  -9   6   2   32.40   15.80
  -8   6   2   79.59   21.30
  -8   6   2   45.50    8.00
  -8   6   2   60.99    8.50
  -8   6   2   46.60    9.80
  -7   6   2   -1.50    5.30
  -7   6   2   -0.30    3.60
  -7   6   2    1.50    3.60
  -7   6   2   -3.40    8.60
  -6   6   2   99.99   18.30
  -6   6   2   73.09   11.00
  -6   6   2   83.99   12.10
  -6   6   2   86.59   10.60
  -5   6   2  135.19   15.40
  -5   6   2  115.99   17.70
  -5   6   2  138.69   16.10
  -5   6   2  135.19   14.60
  -5   6   2  125.59   18.10
  -4   6   2   25.20    5.10
  -4   6   2   23.10    4.50
  -4   6   2   24.00    5.80
  -4   6   2   24.30    8.50
  -4   6   2   24.10    7.70
  -4   6   2   26.60    6.60
  -3   6   2   46.40    7.20
  -3   6   2   33.30    6.40
  -3   6   2   43.60    9.90
  -3   6   2   57.79    7.80
  -3   6   2   44.60    7.50
  -3   6   2   50.39    7.70
  -2   6   2  341.07   34.30
  -2   6   2  276.67   31.20
  -2   6   2  302.47   31.10
  -2   6   2  292.17   31.30
  -2   6   2  334.87   32.10
  -2   6   2  307.47   31.30
  -1   6   2   12.20    4.80
  -1   6   2   12.40    3.20
  -1   6   2    9.90    3.30
  -1   6   2    7.40    7.50
  -1   6   2   15.80    3.70
  -1   6   2   16.60    6.10
   0   6   2   37.80    6.60
   0   6   2   35.40    9.00
   0   6   2   39.80    9.50
   0   6   2   48.60   11.10
   0   6   2   36.00    7.90
   0   6   2   38.20    5.60
   0   6   2   42.70    6.50
   1   6   2  195.58   25.80
   1   6   2  208.18   22.60
   1   6   2  224.08   22.30
   1   6   2  191.28   24.90
   1   6   2  240.08   25.10
   1   6   2  223.68   22.00
   2   6   2   48.90    9.40
   2   6   2   47.80    6.90
   2   6   2   52.19    8.50
   2   6   2   49.60   12.40
   2   6   2   55.29    7.70
   3   6   2   68.29   13.20
   3   6   2   96.09   11.50
   3   6   2   76.29   16.10
   3   6   2   77.09   10.00
   3   6   2   90.79   13.30
   3   6   2   88.79   10.70
   4   6   2  140.69   20.80
   4   6   2  122.29   17.40
   4   6   2  117.59   13.90
   4   6   2   93.79   16.80
   4   6   2  141.19   14.60
   4   6   2  132.09   16.20
  -5  -6  -2   20.50    7.60
   5   6   2   21.20    7.20
   5   6   2   27.20    8.60
   5   6   2   16.00    6.20
   5   6   2   18.20    6.70
   5   6   2   26.40    7.60
   5   6   2   27.60   12.70
  -6  -6  -2   -0.70    7.30
   6   6   2   -1.80   11.20
   6   6   2    2.20    6.00
   6   6   2   -0.20    5.20
   6   6   2    3.40    4.10
  -7  -6  -2   62.49   12.30
   7   6   2   58.19   11.70
   7   6   2   63.79   18.00
  -8  -6  -2   -6.20    6.60
   8   6   2    2.00   11.00
   8   6   2    2.20    3.70
   8   6   2    2.10    4.80
  -9  -6  -2   10.00    6.50
   9   6   2    0.80    4.50
   9   6   2   10.70    4.90
  -9   7   2    2.40    3.30
  -9   7   2    0.40    4.60
  -9   7   2   24.50   14.90
  -9   7   2   -8.40    4.20
  -8   7   2   56.99   17.70
  -8   7   2   28.50    5.60
  -8   7   2   31.00    7.20
  -8   7   2   28.30    6.50
  -7   7   2  117.99   13.40
  -7   7   2  106.49   14.50
  -7   7   2  126.29   22.70
  -7   7   2  110.29   14.20
  -6   7   2    6.70    3.30
  -6   7   2   -1.50    4.40
  -6   7   2   -5.40    3.90
  -6   7   2   -2.00    6.10
  -5   7   2   45.10   11.50
  -5   7   2   66.69   12.60
  -5   7   2   54.49    9.50
  -5   7   2   59.79    9.70
  -4   7   2   57.79    9.40
  -4   7   2   60.19    9.20
  -4   7   2   65.29   10.90
  -4   7   2   43.20   10.40
  -4   7   2   44.10    7.60
  -3   7   2  167.48   19.40
  -3   7   2  170.98   22.10
  -3   7   2  185.28   19.60
  -3   7   2  179.48   20.00
  -3   7   2  191.68   20.70
  -2   7   2 1185.98  116.19
  -2   7   2 1180.68  112.99
  -2   7   2 1058.59  113.09
  -2   7   2 1197.98  113.99
  -2   7   2 1163.48  113.29
  -1   7   2   94.39   13.60
  -1   7   2  124.89   14.40
  -1   7   2  123.09   17.50
  -1   7   2  154.58   14.40
  -1   7   2  132.69   16.40
   0   7   2   42.40   10.80
   0   7   2   58.49   11.20
   0   7   2   54.79    7.80
   0   7   2   51.79   13.70
   0   7   2   47.30    8.00
   0   7   2   45.00    6.80
   1   7   2  364.16   36.20
   1   7   2  296.27   35.60
   1   7   2  276.37   31.30
   1   7   2  297.97   35.30
   1   7   2  292.27   32.30
   1   7   2  338.07   31.90
   2   7   2  127.39   18.70
   2   7   2  167.78   21.70
   2   7   2  132.69   16.60
   2   7   2  138.79   15.50
   3   7   2   14.80    4.30
   3   7   2   15.70    5.40
   3   7   2   22.80    5.40
   3   7   2   13.50    7.00
   3   7   2   29.50   11.60
   3   7   2   16.40    6.50
  -4  -7  -2  247.68   26.00
   4   7   2  191.98   22.40
   4   7   2  229.38   28.50
   4   7   2  247.88   23.60
   4   7   2  161.68   24.10
  -5  -7  -2   35.40    9.40
   5   7   2   35.20   10.00
   5   7   2   37.30   13.60
   5   7   2   28.90    8.90
   5   7   2   41.00    8.20
   5   7   2   35.20    9.30
  -6  -7  -2   58.99   10.90
   6   7   2   30.20    9.80
   6   7   2   43.60   10.50
   6   7   2   52.49   15.40
  -7  -7  -2   51.99    9.30
   7   7   2   19.60    8.10
   7   7   2   37.50    8.90
   7   7   2   42.90   16.70
  -8  -7  -2    5.90    5.20
   8   7   2    2.10    3.60
   8   7   2   -2.30    4.40
  -9   8   2   19.50   12.40
  -9   8   2    9.80    4.60
  -8   8   2   45.10   16.30
  -7   8   2   44.90   13.90
  -7   8   2   14.60    6.30
  -7   8   2   23.10    6.50
  -6   8   2   20.90    6.20
  -6   8   2   40.80   12.40
  -6   8   2   22.40    6.10
  -5   8   2   -2.60    4.30
  -5   8   2   -0.70    4.50
  -5   8   2   -0.40    4.00
  -5   8   2   -5.60    6.40
  -4   8   2   23.80    7.70
  -4   8   2   20.00    5.40
  -4   8   2   17.30    6.20
  -4   8   2   24.90    8.30
  -4   8   2   24.90    7.50
  -3   8   2   -0.20    3.90
  -3   8   2    1.90    4.50
  -3   8   2    0.20    4.90
  -3   8   2    2.40    5.10
  -2   8   2  124.89   17.70
  -2   8   2  141.39   15.80
  -2   8   2  141.19   18.70
  -2   8   2  122.39   15.60
  -1   8   2    4.80    3.60
  -1   8   2    2.30    3.20
  -1   8   2    1.30    2.70
  -1   8   2    0.60    7.20
  -1   8   2    0.30    4.00
   0   8   2  196.68   24.70
   0   8   2  277.57   26.00
   0   8   2  264.47   29.20
   0   8   2  212.08   27.80
   1   8   2    5.20    9.90
   1   8   2    7.40    3.50
   1   8   2    6.10    4.10
   1   8   2    4.10    3.90
   1   8   2    8.60    6.00
   2   8   2   28.50    9.50
   2   8   2   46.00    7.40
   2   8   2   51.69    7.90
   2   8   2   72.29   15.50
   2   8   2   31.30    7.60
  -3  -8  -2   10.50    7.20
   3   8   2    5.20    5.10
   3   8   2    9.70    5.20
   3   8   2    8.00    5.40
   3   8   2    7.70    5.10
   3   8   2   13.30    4.30
   3   8   2   12.60   10.70
  -4  -8  -2   84.09   14.20
   4   8   2   70.99   12.90
   4   8   2   65.79   10.00
   4   8   2   75.19   11.60
   4   8   2   84.69   14.30
   4   8   2   85.29   17.50
  -5  -8  -2   12.60    6.90
   5   8   2    3.20    5.70
   5   8   2    6.30    8.30
   5   8   2    9.00    5.20
   5   8   2    8.20   11.70
   5   8   2    3.10    5.50
  -6  -8  -2    6.00    6.30
   6   8   2    1.40    4.90
   6   8   2   10.50    5.00
  -7  -8  -2   -0.30    5.20
  -7  -8  -2   -3.10    7.00
   7   8   2    1.10    3.70
   7   8   2    2.30    4.20
  -8   9   2    1.40    4.80
  -8   9   2    3.40   11.50
  -7   9   2    1.80    5.30
  -7   9   2    2.10    9.10
  -6   9   2   66.39   14.30
  -6   9   2   45.50    8.50
  -5   9   2   34.50    8.60
  -5   9   2   37.20   10.50
  -5   9   2   24.40    9.00
  -4   9   2  127.79   17.40
  -4   9   2   93.19   15.40
  -4   9   2  111.19   16.00
  -3   9   2  361.06   40.10
  -3   9   2  417.66   43.30
  -2   9   2   10.20    5.80
  -2   9   2    6.80    4.20
  -2   9   2   10.50    5.60
  -2   9   2    7.90    4.50
  -1   9   2   -1.70    4.60
  -1   9   2    1.40    4.30
  -1   9   2    4.10    3.90
  -1   9   2    5.00    3.80
   0   9   2   53.39    9.60
   0   9   2   58.59    9.00
   0   9   2   54.39    8.80
   0   9   2   34.20    9.70
   1   9   2   75.79   13.40
   1   9   2   82.79   11.10
   1   9   2   85.39   12.30
   1   9   2  104.19   13.00
  -2  -9  -2   70.79   13.40
   2   9   2   75.39   10.60
   2   9   2   70.69   12.80
   2   9   2   93.59   12.90
   2   9   2   94.39   17.10
   2   9   2   82.49   13.30
  -3  -9  -2  133.89   16.70
   3   9   2  111.09   15.80
   3   9   2  141.79   15.90
   3   9   2  137.99   25.70
   3   9   2   93.99   16.20
   3   9   2   99.29   13.90
  -4  -9  -2    1.30    7.00
   4   9   2    8.30    6.40
   4   9   2    2.30    4.70
   4   9   2    3.90    5.20
  -5  -9  -2   47.90    8.20
   5   9   2   19.60    7.10
  -6  -9  -2   38.70    9.30
   6   9   2   18.00    5.90
  -6  10   2   27.50   10.10
  -5  10   2   12.20    7.80
  -4  10   2   28.80    8.10
  -4  10   2   54.49   11.40
  -3  10   2   39.60    9.00
  -3  10   2   49.00    9.80
  -3  10   2   68.79   11.50
  -2  10   2   22.70    7.20
  -2  10   2   24.90    7.90
  -2  10   2   22.30    6.50
  -1  10   2    0.00    4.30
  -1  10   2   -0.10    5.40
  -1  10   2    4.10    4.10
  -1  10   2   -2.80    4.50
   0  10   2   44.10    8.00
   0  10   2   42.10    9.00
   0  10   2   35.90    8.20
   0  10   2   45.20    9.60
   1  10   2    0.30    3.40
   1  10   2   -2.40    4.40
   1  10   2   -2.30    6.00
   1  10   2    4.00    4.30
   2  10   2    0.70    4.40
   2  10   2    0.80    3.80
   2  10   2    3.60    4.90
   2  10   2    4.00    6.10
   3  10   2   23.30    6.90
   3  10   2   33.00    8.20
   4  10   2   -2.50    3.50
  -4  11   2   21.70    7.60
  -3  11   2   -0.50    4.10
  -2  11   2    1.80    6.80
  -2  11   2    8.30    5.00
  -2  11   2    6.30    4.30
  -1  11   2   27.70    6.70
  -1  11   2   38.10    8.50
  -1  11   2   17.50    6.30
   0  11   2   12.60    5.60
   0  11   2   10.00    7.80
   0  11   2    4.80    4.20
   1  11   2   78.79   11.40
   1  11   2   81.29   13.00
  -2 -13   3   -6.90    5.50
   1  13  -3    4.20    4.10
  -1 -13   3   -2.90    6.10
   0  13  -3  120.19   14.80
  -1  13  -3   51.59    8.60
   1 -13   3   32.30   10.40
  -2  13  -3   24.90    6.60
   2 -13   3    9.40    7.00
  -3  13  -3   57.29    9.40
   3 -13   3   13.40    7.60
  -4  13  -3    3.30    5.00
  -5 -12   3   23.60    6.90
   4  12  -3   23.70    6.10
  -4 -12   3   15.20    7.30
   3  12  -3   58.09   11.90
   3  12  -3   29.80    6.80
  -3 -12   3   12.40    7.50
   2  12  -3    2.50    4.30
   2  12  -3    8.70    7.00
  -2 -12   3    3.10    6.70
   1  12  -3   -2.60    4.10
   1  12  -3    4.30    5.40
   1  12  -3    9.40    8.50
  -1 -12   3    3.40    6.80
   0  12  -3  290.67   28.30
   0  12  -3  254.97   28.70
   0 -12   3  203.78   28.60
  -1  12  -3   72.09   10.90
  -1  12  -3   60.39   11.90
  -2  12  -3    3.40    6.10
  -2  12  -3    5.00    4.80
  -3  12  -3   79.89   13.00
  -4  12  -3   -2.40    5.70
   4 -12   3    1.90    6.40
  -5  12  -3    6.60    7.10
  -6  12  -3   29.60   11.40
   6 -12   3  -11.30    9.70
  -7  12  -3   -9.20   13.20
   7 -12   3   -4.90   10.30
   6  11  -3    1.40    7.20
  -6 -11   3    4.30    5.60
  -6 -11   3   -0.20    5.10
   5  11  -3   10.20    5.60
   5  11  -3   24.00    8.90
  -5 -11   3    3.00    6.40
   4  11  -3   35.60    8.30
   4  11  -3   54.69   11.10
  -4 -11   3   12.10    8.30
   3  11  -3    2.30    7.70
   3  11  -3   -0.60    4.50
   3  11  -3   -0.90    5.90
  -3 -11   3    0.20    7.40
   2  11  -3    8.60    6.00
   2  11  -3   23.80    8.00
   2  11  -3   11.60    5.50
   2  11  -3   23.80    9.30
  -2 -11   3   16.50    9.10
   1  11  -3  115.69   17.10
   1  11  -3   91.99   16.00
   1  11  -3  118.29   15.10
  -1 -11   3  103.29   17.30
   0  11  -3   10.40    7.10
   0  11  -3   10.50    5.40
   0  11  -3    6.10    5.30
   0  11  -3    4.30    7.80
   0 -11   3    8.40    7.80
  -1  11  -3   98.89   14.00
  -1  11  -3   98.79   13.70
  -1  11  -3   84.29   15.20
   1 -11   3   74.49   15.00
  -2  11  -3   48.80   11.50
  -2  11  -3   57.09   10.50
  -3  11  -3   70.69   12.50
  -3  11  -3   72.79   12.70
  -4  11  -3   72.59   13.50
  -4  11  -3   64.89   13.50
  -4  11  -3   39.00   11.80
  -5  11  -3   52.49   13.80
  -5  11  -3   53.29   10.20
  -6  11  -3    1.70    9.10
  -6  11  -3   -0.80    5.40
  -7  11  -3   63.29   11.30
  -7  11  -3   79.09   18.40
  -8  11  -3   27.00   12.80
   8 -11   3   -2.30   12.30
   8  10  -3   16.70    8.50
  -8 -10   3    3.00    5.70
   7  10  -3  188.58   21.90
  -7 -10   3  151.58   18.90
   6  10  -3   35.70    9.90
   6  10  -3   21.60    7.40
  -6 -10   3   35.90    7.30
  -6 -10   3    8.00    7.10
   5  10  -3   10.30    7.00
   5  10  -3    7.90    5.70
  -5 -10   3   14.00    6.10
  -5 -10   3    1.10    7.60
   4  10  -3   87.79   15.30
   4  10  -3  124.19   17.70
   4  10  -3  123.69   15.70
  -4 -10   3  104.29   14.90
   3  10  -3    5.10    5.70
   3  10  -3    6.90    4.90
   3  10  -3    1.30    5.70
   3  10  -3   -0.20    7.60
  -3 -10   3   -0.30    7.50
   2  10  -3   44.20   11.30
   2  10  -3   56.59   10.30
   2  10  -3   55.09   10.00
   2  10  -3   43.40   10.40
  -2 -10   3   33.40   11.60
   1  10  -3  604.54   56.69
   1  10  -3  492.55   55.29
   1  10  -3  485.25   54.79
   0  10  -3   53.69   13.00
   0  10  -3   78.29   11.30
   0  10  -3   68.39   11.50
   0  10  -3   48.20   11.00
   0  10  -3   54.89   11.50
   0 -10   3   87.79   15.60
  -1  10  -3    2.20    7.10
  -1  10  -3    9.60    5.70
  -1  10  -3    0.60    5.60
  -1  10  -3    1.80    4.50
  -1  10  -3    5.00    7.10
   1 -10   3   14.50    7.80
  -2  10  -3  132.79   19.40
  -2  10  -3  148.99   18.20
  -2  10  -3  118.19   17.10
  -3  10  -3   -0.10    4.50
  -3  10  -3   18.00    8.70
  -3  10  -3    0.00    4.80
  -3  10  -3   -2.70    4.50
  -4  10  -3   91.29   12.50
  -4  10  -3   69.09   12.50
   4 -10   3   70.59   17.50
  -5  10  -3   47.80   13.30
  -5  10  -3   45.60    9.30
  -6  10  -3   18.70    6.20
  -6  10  -3   20.80   11.80
  -6  10  -3   26.40    7.50
  -7  10  -3  124.79   17.70
  -7  10  -3  140.29   16.30
  -7  10  -3  148.69   27.00
  -8  10  -3   38.60    7.20
  -8  10  -3   75.09   18.80
  -8  10  -3   61.99   10.60
  -9  10  -3   14.30    4.40
   9 -10   3  -11.10   12.90
   9   9  -3    1.30    7.10
  -9  -9   3   -9.00    3.80
   8   9  -3   78.29   13.90
  -8  -9   3   62.69   10.10
   7   9  -3   16.40    6.90
   7   9  -3   43.50   11.40
  -7  -9   3   30.00    7.10
  -7  -9   3    7.10    7.10
   6   9  -3   -1.40    5.00
   6   9  -3    4.80    7.10
  -6  -9   3    0.40    5.40
  -6  -9   3   -1.50    7.10
   5   9  -3    2.60    5.10
   5   9  -3    5.80    6.80
  -5  -9   3    2.60    7.40
  -5  -9   3    1.20    5.60
   4   9  -3   -1.00    4.70
   4   9  -3    4.30    6.20
   4   9  -3   -3.50    5.50
   4   9  -3    0.00    8.00
  -4  -9   3    9.70    5.40
  -4  -9   3    2.80    7.50
   3   9  -3   78.39   13.80
   3   9  -3  124.39   14.30
   3   9  -3  110.29   14.60
   3   9  -3   83.19   14.70
  -3  -9   3   96.89   13.40
  -3  -9   3   54.19   15.30
   2   9  -3  104.09   14.00
   2   9  -3   91.09   14.30
   2   9  -3   94.79   14.60
   2   9  -3   99.39   15.00
  -2  -9   3   88.29   17.10
   1   9  -3   50.29   11.10
   1   9  -3   33.40    8.80
   1   9  -3   47.30   10.10
   1   9  -3   45.80    9.50
   1   9  -3   25.50    8.30
  -1  -9   3   48.50   12.70
   0   9  -3   72.59   11.10
   0   9  -3   54.29   11.00
   0   9  -3   79.49   11.50
   0   9  -3   47.00   10.50
   0   9  -3   63.09   13.00
   0  -9   3   76.09   14.50
  -1   9  -3    4.00    6.00
  -1   9  -3    2.80    7.40
  -1   9  -3    6.40    4.60
  -1   9  -3    8.70    5.10
  -1   9  -3    4.60    4.90
   1  -9   3    3.30    7.20
  -2   9  -3   68.59   10.50
  -2   9  -3   53.79    9.70
  -2   9  -3   41.30    9.10
  -2   9  -3   52.89   10.50
  -2   9  -3   33.20    8.90
  -3   9  -3  141.19   16.80
  -3   9  -3  106.89   16.60
  -3   9  -3  119.59   15.70
  -3   9  -3   95.49   14.30
  -4   9  -3   79.79   13.10
  -4   9  -3   63.99   11.80
  -4   9  -3   74.89   11.20
  -5   9  -3    0.90    4.10
  -5   9  -3   -0.80    5.40
  -5   9  -3   -2.90    5.60
  -5   9  -3    0.50    4.50
   5  -9   3    0.20    8.90
  -6   9  -3   56.29   11.40
  -6   9  -3   55.19   15.40
  -6   9  -3   76.99   11.10
  -7   9  -3   14.30    5.00
  -7   9  -3   12.50   12.50
  -7   9  -3    1.20    4.70
   7  -9   3  -11.40   10.00
  -8   9  -3   -0.20    4.50
  -8   9  -3   -9.10    4.80
  -8   9  -3   27.80   15.20
   8  -9   3   -9.90   14.20
   9  -9   3    4.80   16.80
 -10   9  -3    3.30    3.80
  10  -9   3   -5.10   11.90
  10  -9   3   50.29   30.70
   9   8  -3  133.09   18.60
  -9  -8   3  104.49   14.40
   8   8  -3  194.58   24.70
  -8  -8   3  169.68   20.80
   7   8  -3    1.60    5.30
   7   8  -3    1.50    7.40
  -7  -8   3    1.60    7.00
  -7  -8   3    3.20    5.00
   6   8  -3   27.80    8.70
   6   8  -3   25.10    8.40
   6   8  -3   28.60   10.90
   5   8  -3  439.96   48.70
   5   8  -3  490.25   48.80
   5   8  -3  394.36   47.40
  -5  -8   3  494.15   46.80
   4   8  -3   -0.80    5.70
   4   8  -3    0.60    4.30
   4   8  -3    1.10    6.10
   4   8  -3   -0.20    4.50
   4   8  -3    8.70    7.50
  -4  -8   3   -3.50    7.00
  -4  -8   3   -2.20    4.90
   3   8  -3  332.47   34.60
   3   8  -3  274.17   33.80
   3   8  -3  356.96   34.30
   3   8  -3  311.97   34.80
   3   8  -3  327.67   35.10
  -3  -8   3  274.37   33.00
   2   8  -3  288.27   30.30
   2   8  -3  303.97   30.60
   2   8  -3  288.47   30.70
   2   8  -3  284.87   31.20
  -2  -8   3  221.88   29.30
   1   8  -3    9.00    5.20
   1   8  -3    4.70    5.60
   1   8  -3    5.80    4.80
   1   8  -3    3.60    4.40
   1   8  -3    4.30    4.70
   0   8  -3  362.46   38.30
   0   8  -3  326.67   38.40
   0   8  -3  395.36   40.30
   0   8  -3  408.16   39.70
   0  -8   3  352.26   40.10
  -1   8  -3  225.78   24.50
  -1   8  -3  255.67   24.80
  -1   8  -3  234.38   26.00
  -1   8  -3  208.08   23.80
  -1   8  -3  188.08   24.00
  -1   8  -3  188.68   23.40
   1  -8   3  198.18   25.00
  -2   8  -3    8.40    6.40
  -2   8  -3    6.10    4.30
  -2   8  -3    8.30    4.40
  -2   8  -3   10.90    4.80
  -2   8  -3    6.50    4.40
  -3   8  -3  336.47   34.80
  -3   8  -3  273.17   35.20
  -3   8  -3  358.06   34.40
  -3   8  -3  316.67   35.10
  -4   8  -3   14.10    5.20
  -4   8  -3   20.80    7.10
  -4   8  -3   20.00    6.60
  -4   8  -3   17.90    5.40
   4  -8   3   19.70    9.70
  -5   8  -3   10.10    4.40
  -5   8  -3    6.00    6.10
  -5   8  -3    7.80    5.70
  -5   8  -3    4.30    4.50
   5  -8   3    5.80    9.30
  -6   8  -3  564.24   57.19
  -6   8  -3  568.54   62.39
  -7   8  -3   23.40    6.30
  -7   8  -3   35.30    7.30
  -7   8  -3   44.30   16.20
   7  -8   3   -0.10   11.10
  -8   8  -3    4.90    4.40
  -8   8  -3   19.80   15.10
  -8   8  -3    3.00    5.00
   8  -8   3  -10.40   14.90
  -9   8  -3   53.89    8.70
  -9   8  -3   43.80    9.50
 -10   8  -3    2.50    4.30
  10  -8   3    1.00   15.30
  10  -8   3   29.60   37.60
 -11   8  -3   28.40    6.00
  10   7  -3    0.20    8.50
 -10  -7   3    0.60    4.10
   9   7  -3   28.60   10.40
   9   7  -3    8.80    6.80
  -9  -7   3   18.40    5.60
   8   7  -3   72.39   17.30
   8   7  -3   62.79   12.00
  -8  -7   3   56.89   10.40
   7   7  -3   -0.50    9.00
   7   7  -3   11.10    6.10
  -7  -7   3    1.70    4.80
  -7  -7   3    2.60    7.50
   6   7  -3    4.70    5.70
   6   7  -3   11.30    5.60
   6   7  -3   -2.20    8.90
   6   7  -3   -6.30    7.60
  -6  -7   3    6.70    4.80
  -6  -7   3    1.60    6.60
   5   7  -3   31.10    8.10
   5   7  -3   44.50   11.20
   5   7  -3   35.70    8.70
   5   7  -3   28.00   10.30
  -5  -7   3   48.00    8.50
  -5  -7   3   25.30    8.90
   4   7  -3  111.89   14.90
   4   7  -3  124.89   14.40
   4   7  -3  106.99   15.40
   4   7  -3  105.59   15.90
   4   7  -3   68.99   14.40
  -4  -7   3  106.19   14.00
   3   7  -3   15.80    6.10
   3   7  -3   12.70    6.40
   3   7  -3   12.30    6.00
   3   7  -3   10.30    4.80
   3   7  -3    7.80    4.80
  -3  -7   3    1.10    4.50
   2   7  -3  120.09   14.80
   2   7  -3  126.59   14.50
   2   7  -3  109.19   14.50
   2   7  -3  110.39   15.40
   2   7  -3  110.39   14.40
  -2  -7   3   79.09   13.30
   1   7  -3  101.99   12.90
   1   7  -3  107.59   14.20
   1   7  -3   74.79   12.80
   1   7  -3   96.49   12.80
   1   7  -3   97.29   12.40
  -1  -7   3   78.59   11.30
   0   7  -3    4.70    5.70
   0   7  -3    4.20    4.10
   0   7  -3    4.00    4.20
   0   7  -3    4.80    4.60
   0   7  -3    3.90    4.10
   0  -7   3    8.20    3.80
  -1   7  -3   15.00    5.30
  -1   7  -3   20.20    7.40
  -1   7  -3   14.20    5.00
  -1   7  -3   15.40    5.10
  -1   7  -3   20.30    5.80
   1  -7   3   25.90    7.50
   1  -7   3   16.40    4.50
  -2   7  -3  218.08   23.20
  -2   7  -3  170.98   22.60
  -2   7  -3  240.38   22.80
  -2   7  -3  229.48   23.60
  -2   7  -3  170.68   23.50
  -3   7  -3   45.80    8.10
  -3   7  -3   30.00   10.10
  -3   7  -3   58.19    9.40
  -3   7  -3   57.09    8.10
  -4   7  -3    8.90    4.50
  -4   7  -3    4.30    3.80
  -4   7  -3    7.80    4.40
  -4   7  -3   11.20    4.80
   4  -7   3    6.00    8.30
  -5   7  -3    6.80    5.60
  -5   7  -3    2.30    3.30
  -5   7  -3    4.90    4.60
  -5   7  -3    2.50    3.80
   5  -7   3   10.10    8.90
  -6   7  -3  285.47   35.70
  -6   7  -3  298.27   30.50
  -6   7  -3  282.17   31.30
  -7   7  -3    6.90    4.30
  -7   7  -3   14.80    5.50
  -7   7  -3   30.10   13.50
  -7   7  -3   10.60    5.00
   7  -7   3   -5.20   10.30
  -8   7  -3   88.19   13.40
  -8   7  -3  159.38   27.80
  -8   7  -3   91.09   13.70
  -8   7  -3   96.69   12.40
  -9   7  -3   10.10    4.70
  -9   7  -3   23.40    7.40
  -9   7  -3   12.90    6.00
   9  -7   3    4.00   19.70
 -10   7  -3   20.80    5.60
 -10   7  -3    6.60    4.30
  10  -7   3    1.30   18.00
  10  -7   3   31.40   44.10
 -11   7  -3   -0.10    3.50
 -11   7  -3    5.80    4.00
  11  -7   3   47.20   36.20
  11  -7   3   -5.10   11.30
  11   6  -3   19.00    9.70
 -10  -6   3   76.69   11.70
   9   6  -3   51.79   11.60
   9   6  -3   76.19   15.50
  -9  -6   3   40.00   10.40
   8   6  -3   74.69   13.90
   8   6  -3   64.29   16.70
  -8  -6   3   54.79   10.80
   7   6  -3  305.37   35.90
   7   6  -3  300.17   33.00
   7   6  -3  265.27   34.50
  -7  -6   3  303.87   31.60
   6   6  -3  607.14   66.69
   6   6  -3  626.94   66.09
  -6  -6   3  658.33   63.59
   5   6  -3  -11.40    8.10
   5   6  -3    3.30    4.50
   5   6  -3   -2.00    5.50
   5   6  -3    2.50    4.70
  -5  -6   3   -1.40    6.00
  -5  -6   3   -2.60    3.80
   4   6  -3  348.37   36.50
   4   6  -3  357.96   37.00
   4   6  -3  320.27   35.80
   4   6  -3  338.87   37.70
  -4  -6   3  350.16   35.50
   3   6  -3   89.09   12.40
   3   6  -3   73.59   12.20
  -3  -6   3   77.89    9.90
  -3  -6   3   70.89   10.60
  -2  -6   3   15.10    4.10
  -1  -6   3 1129.69  113.39
  -1  -6   3 1075.69  107.09
   0  -6   3   79.09    9.50
   1  -6   3   99.69   11.30
  -2   6  -3  673.93   80.69
   2  -6   3  962.90   80.29
  -3   6  -3   10.00    3.50
  -3   6  -3    9.70    3.90
   3  -6   3    6.70    3.90
  -4   6  -3   53.59    8.60
  -4   6  -3   66.59   10.40
  -4   6  -3   57.19    8.20
  -4   6  -3   59.59    9.10
   4  -6   3   38.80   11.60
   4  -6   3   45.60    8.10
  -5   6  -3  518.35   52.79
  -5   6  -3  511.85   55.39
  -5   6  -3  478.15   52.09
  -5   6  -3  613.24   53.69
  -5   6  -3  514.35   53.79
  -6   6  -3    5.30    7.00
  -6   6  -3    1.80    3.60
  -6   6  -3    2.70    2.80
  -6   6  -3    0.30    4.20
  -7   6  -3   99.69   13.40
  -7   6  -3  151.78   26.40
  -7   6  -3  111.49   12.60
  -7   6  -3   82.99   12.80
  -8   6  -3  256.87   27.90
  -8   6  -3  267.17   26.50
  -8   6  -3  228.68   26.80
  -9   6  -3    2.70    5.10
  -9   6  -3    1.50    5.00
  -9   6  -3    1.00    4.60
   9  -6   3   -0.30   19.20
  10  -6   3   47.30   48.80
  10  -6   3  134.89   29.80
 -11   6  -3   69.69   10.00
 -11   6  -3   60.69    8.70
  11  -6   3   55.89   17.00
  11  -6   3   55.89   40.50
  11   5  -3   -3.00    8.90
 -11  -5   3   -0.60    3.90
 -11  -5   3   13.70   13.40
 -11  -5   3   -6.80    7.80
  10   5  -3   11.00    7.30
  10   5  -3   26.80   12.30
 -10  -5   3    2.80   14.50
 -10  -5   3   16.70    8.10
 -10  -5   3   16.90    6.30
   9   5  -3   51.79   11.90
   9   5  -3   60.29   15.30
   9   5  -3   29.60   20.40
  -9  -5   3   54.19   11.10
  -9  -5   3   85.49   10.80
  -9  -5   3   26.30   16.80
   8   5  -3   22.20   14.30
   8   5  -3   16.40    9.60
   8   5  -3   16.10    7.80
  -8  -5   3   24.00    7.10
  -8  -5   3   41.70   18.00
   7   5  -3  136.19   19.00
   7   5  -3   86.59   21.00
  -7  -5   3  115.29   14.50
  -7  -5   3   83.49   22.50
   6   5  -3  115.29   24.10
   6   5  -3  168.18   21.30
  -6  -5   3  158.78   25.70
  -6  -5   3  165.98   18.10
   5   5  -3  109.29   14.80
   5   5  -3   81.59   17.70
  -5  -5   3   87.79   12.10
   4   5  -3  473.05   54.49
   4   5  -3  567.14   53.59
  -4  -5   3  608.64   51.49
  -4  -5   3  517.75   51.89
  -4  -5   3  419.36   53.09
  -3  -5   3  263.47   26.50
  -2  -5   3  186.48   28.30
  -2  -5   3  186.38   19.10
   1   5  -3  281.67   28.00
  -1  -5   3  270.97   28.20
  -1  -5   3  286.77   34.10
  -1  -5   3  276.17   28.00
   0   5  -3    2.10    2.30
   0  -5   3   -1.70    2.40
   0  -5   3    2.30    2.70
   1  -5   3  101.99   11.10
   1  -5   3   91.09   10.70
   2  -5   3  347.37   34.70
   3  -5   3  205.38   21.30
  -4   5  -3  135.09   15.90
   4  -5   3  153.88   15.90
  -5   5  -3  636.04   57.79
  -5   5  -3  567.64   60.49
  -5   5  -3  532.65   56.79
  -5   5  -3  568.24   58.39
  -6   5  -3   70.09    9.70
  -6   5  -3   66.39    9.30
  -6   5  -3   67.09   15.40
  -7   5  -3   27.90    6.60
  -7   5  -3   37.50    7.50
  -7   5  -3   35.10   15.30
  -8   5  -3  141.59   15.60
  -8   5  -3  122.79   14.10
  -8   5  -3   93.89   14.20
  -9   5  -3   18.40    5.40
  -9   5  -3   18.90    5.40
  -9   5  -3    9.70    6.00
   9  -5   3   -9.00   16.60
   9  -5   3   11.90   42.70
 -10   5  -3   46.30    7.90
 -10   5  -3   40.90    8.60
  10  -5   3   89.79   49.00
  10  -5   3   49.60   20.70
 -11   5  -3   58.99    9.60
 -11   5  -3   57.99    8.30
  11  -5   3   47.10   40.50
  11  -5   3   46.00   15.00
 -12   5  -3   32.70    5.40
  12   4  -3   14.90   10.00
 -12  -4   3    4.60   13.80
  11   4  -3   80.69   15.80
 -11  -4   3   43.10    7.40
 -11  -4   3   12.50   15.40
 -11  -4   3   41.60   10.10
  10   4  -3   40.80   13.80
 -10  -4   3   26.70    8.70
 -10  -4   3   29.60   17.00
 -10  -4   3   23.70    6.90
   9   4  -3   30.00   13.20
   9   4  -3   15.60   16.70
  -9  -4   3   33.40    9.00
  -9  -4   3   29.80   15.60
  -9  -4   3   25.90    7.50
   8   4  -3  231.18   31.90
  -8  -4   3  246.88   26.10
  -8  -4   3  217.28   34.50
   7   4  -3  230.98   30.80
  -7  -4   3  250.87   33.20
  -7  -4   3  213.98   25.20
   6   4  -3  149.19   22.70
  -6  -4   3  155.28   18.50
  -6  -4   3  188.68   25.30
   5   4  -3  583.94   58.99
  -5  -4   3  543.45   56.09
  -4  -4   3    8.10    3.10
   3   4  -3   42.30    5.90
  -3  -4   3   38.70    5.20
  -3  -4   3   35.20    5.50
  -3  -4   3   51.29   16.80
   2   4  -3 1171.68  114.69
   2   4  -3 1244.28  114.79
  -2  -4   3 1145.89  114.69
  -2  -4   3 1170.98  114.69
   1   4  -3   18.40    3.30
   1   4  -3   -3.00    8.40
   1   4  -3   13.80    3.20
  -1  -4   3   18.70    3.40
  -1  -4   3   14.70    3.10
   0   4  -3  664.33   65.19
   0   4  -3  691.73   65.09
   0  -4   3  666.43   65.09
   0  -4   3  645.94   65.09
  -1   4  -3 1726.13  169.88
   1  -4   3 1781.62  170.08
   1  -4   3 1767.92  170.18
  -2   4  -3   14.70    3.10
   2  -4   3   16.80    3.40
   2  -4   3   22.80    3.60
  -3   4  -3  112.09   12.80
   3  -4   3  143.49   13.30
   3  -4   3  106.49   14.80
   4  -4   3  310.87   31.30
  -5   4  -3    4.30    6.20
  -5   4  -3    3.80    2.90
   5  -4   3    2.40    4.40
   5  -4   3    7.30    6.80
  -6   4  -3  352.86   36.50
  -6   4  -3  408.46   38.80
  -6   4  -3  375.26   36.20
  -6   4  -3  318.07   41.50
   6  -4   3  306.47   37.40
  -7   4  -3   40.60    9.20
  -7   4  -3   52.29    8.50
  -7   4  -3   53.19    8.50
  -7   4  -3   18.30   24.80
  -8   4  -3   10.30    7.00
  -8   4  -3   -2.00   24.10
  -8   4  -3   -1.80    4.10
  -8   4  -3    0.50    4.40
   8  -4   3   -4.10   13.60
  -9   4  -3  331.47   33.40
  -9   4  -3  292.87   35.00
  -9   4  -3  346.07   34.10
  -9   4  -3  319.07   35.00
 -10   4  -3    4.30   21.80
 -10   4  -3   31.50    6.40
 -10   4  -3   30.80    9.20
 -10   4  -3   25.50    6.80
  10  -4   3   38.20   17.40
  10  -4   3  114.69   48.20
 -11   4  -3   37.00    6.10
 -11   4  -3    8.40   31.60
 -11   4  -3   22.80    6.80
  11  -4   3   26.30   11.30
  11  -4   3   44.10   36.90
 -12   4  -3   32.00    5.00
  12  -4   3    6.00   23.50
  12  -4   3   25.00    9.00
  12   3  -3    0.20    9.40
 -12  -3   3    5.30   13.40
 -12  -3   3    4.70    7.00
  11   3  -3  144.99   23.10
 -11  -3   3  112.49   17.90
  10   3  -3   30.80   15.80
  10   3  -3   -2.20   18.90
 -10  -3   3    4.90    5.70
 -10  -3   3   21.90    8.50
 -10  -3   3    0.80   14.80
   9   3  -3    7.50   14.10
   9   3  -3   31.20   22.00
  -9  -3   3   -0.80    6.80
  -9  -3   3  -11.10    5.90
  -9  -3   3   12.70   14.10
   8   3  -3  506.25   65.29
  -8  -3   3  579.04   66.99
  -8  -3   3  673.23   59.79
   7   3  -3  141.19   24.60
   6   3  -3   -7.20   11.70
   6   3  -3   -6.20    9.80
  -6  -3   3   29.20   12.50
  -6  -3   3   14.40    5.60
   5   3  -3 1095.19  106.89
   4   3  -3  193.68   20.40
  -4  -3   3  200.68   20.10
   3   3  -3  111.49   11.60
   3   3  -3  113.49   11.70
  -3  -3   3  113.59   11.30
  -3  -3   3   94.29   11.60
   2   3  -3  753.42   73.39
   2   3  -3  787.22   73.49
  -2  -3   3  696.53   73.29
  -2  -3   3  778.92   73.39
   1   3  -3    1.40    1.80
   1   3  -3    1.70    7.90
   1   3  -3    5.00    1.80
  -1  -3   3    3.50    1.90
  -1  -3   3    5.00    2.00
   0   3  -3  380.56   36.20
   0   3  -3  358.06   36.20
   0  -3   3  359.36   36.20
   0  -3   3  372.46   36.30
  -1   3  -3 1710.63  166.68
   1  -3   3 1738.13  166.88
   1  -3   3 1729.23  166.88
  -2   3  -3   29.10    4.00
  -2   3  -3   32.00    4.40
   2  -3   3   30.00    4.20
   2  -3   3   23.20    3.80
  -3   3  -3  697.13   68.89
   3  -3   3  751.72   69.09
   3  -3   3  676.33   68.99
  -4   3  -3  704.13   69.89
   5  -3   3    6.80    6.50
  -6   3  -3   99.69   12.70
  -6   3  -3  144.09   29.40
  -7   3  -3  104.09   12.00
  -7   3  -3   84.79   12.10
  -8   3  -3    6.10   22.00
  -8   3  -3   -3.60    4.00
   8  -3   3   -6.40   11.30
   8  -3   3    3.80   29.50
  -9   3  -3  408.76   44.90
  -9   3  -3  367.16   57.99
  -9   3  -3  452.75   43.50
   9  -3   3  453.85   52.59
 -10   3  -3   29.60    6.10
 -10   3  -3   28.30    7.20
 -10   3  -3   58.49   10.50
 -10   3  -3   12.10   18.70
  10  -3   3   76.49   42.20
  10  -3   3   43.60   13.80
 -11   3  -3   21.40    5.50
 -11   3  -3   24.90    9.10
 -11   3  -3   10.80   19.50
  11  -3   3   20.20    9.40
  11  -3   3   36.10   32.40
 -12   3  -3   35.20    5.40
 -12   3  -3    6.60   19.30
  12  -3   3    7.40   21.70
  12  -3   3   15.30    8.00
  12   2  -3   45.20   14.80
  11   2  -3   25.50   15.90
  11   2  -3   -2.90   19.60
 -11  -2   3   14.20    7.70
 -11  -2   3    0.90   14.30
  10   2  -3   47.50   25.80
  10   2  -3   23.80   18.00
 -10  -2   3    3.50    4.80
 -10  -2   3   15.00   15.10
 -10  -2   3    2.90    3.80
 -10  -2   3    3.70    7.60
   9   2  -3  172.58   33.70
  -9  -2   3  153.78   19.80
  -9  -2   3  190.48   22.10
  -9  -2   3  176.48   29.60
   8   2  -3   25.90   19.70
   8   2  -3   10.90   17.30
  -8  -2   3   20.20    7.40
  -8  -2   3   14.90    4.50
  -8  -2   3   29.50    8.40
  -8  -2   3   29.20   14.90
  -7  -2   3  255.57   25.00
  -7  -2   3  198.28   23.30
  -7  -2   3  238.08   25.60
   6   2  -3  308.67   33.30
  -6  -2   3  284.27   33.40
  -6  -2   3  383.86   39.70
   5   2  -3  171.08   18.30
   4   2  -3   43.20    6.10
   4   2  -3   33.30   15.00
   4   2  -3   44.30    6.30
  -4  -2   3   48.90    5.80
   3   2  -3  917.01   85.19
   3   2  -3  887.31   85.19
  -3  -2   3  830.82   84.99
   2   2  -3    7.50    1.90
   2   2  -3    4.10    1.80
   2   2  -3    6.00    8.90
  -2  -2   3    7.10    1.80
  -2  -2   3    4.60    2.00
   1   2  -3  216.98   21.10
   1   2  -3  214.78   21.10
  -1  -2   3  223.08   21.10
  -1  -2   3  191.38   21.10
   0   2  -3  135.49   14.40
   0   2  -3  146.39   14.60
   0  -2   3  144.39   14.60
   0  -2   3  125.59   14.50
  -1   2  -3    3.80    2.10
  -1   2  -3    3.40    1.50
   1  -2   3    8.30    1.70
   1  -2   3    6.50    1.90
  -2   2  -3  271.67   25.70
  -2   2  -3  251.97   25.80
   2  -2   3  287.47   25.90
   2  -2   3  231.98   25.60
  -3   2  -3   41.30    5.10
  -3   2  -3   36.00    5.10
   3  -2   3   37.20    5.10
  -4   2  -3   16.80    3.60
   4  -2   3   30.30    5.00
   4  -2   3   12.60    4.20
   7  -2   3  128.59   25.20
  -8   2  -3  211.88   37.30
  -8   2  -3  237.68   25.20
   8  -2   3  246.38   32.80
  -9   2  -3    2.70    5.20
  -9   2  -3   -1.90   22.20
   9  -2   3    5.30    8.60
   9  -2   3   47.20   34.90
 -10   2  -3   -3.20   20.50
 -10   2  -3    5.20    3.70
 -10   2  -3   12.40    8.30
  10  -2   3    7.90    8.50
  10  -2   3   54.59   35.00
 -11   2  -3  132.79   16.20
 -11   2  -3   87.99   11.60
  11  -2   3   81.29   15.00
  11  -2   3   81.39   29.20
 -12   2  -3    8.90   15.40
 -12   2  -3   -4.10    3.80
  12  -2   3   18.30   22.00
  12  -2   3    0.30    5.40
  12   1  -3  -24.10   18.20
 -12  -1   3   24.50    5.00
 -12  -1   3   17.30   14.20
  11   1  -3   25.20   19.80
  11   1  -3   25.40   25.10
 -11  -1   3   -0.10    7.50
  10   1  -3   33.50   30.90
  10   1  -3   41.20   23.10
 -10  -1   3   11.90    4.60
 -10  -1   3   24.20   16.30
 -10  -1   3   45.40   10.70
  -9  -1   3  535.65   45.40
  -9  -1   3  381.36   47.30
  -9  -1   3  423.66   56.09
  -8  -1   3   32.70    6.00
  -8  -1   3   40.10    7.60
  -8  -1   3   56.29   11.00
  -8  -1   3   43.30   16.40
  -7  -1   3   75.69   10.70
  -7  -1   3   87.89   12.30
  -7  -1   3   64.89    9.50
  -7  -1   3   98.19   19.60
  -6  -1   3  703.53   69.99
  -6  -1   3  671.53   69.09
  -6  -1   3  738.03   74.69
  -6  -1   3  687.33   68.19
   5   1  -3    5.70    3.10
   4   1  -3  498.05   47.10
   4   1  -3  462.75   47.00
   3   1  -3 1750.92  190.68
   3   1  -3 2031.60  185.08
   3   1  -3 2068.69  185.08
  -3  -1   3 1807.82  184.78
   2   1  -3  276.77   25.30
   2   1  -3  238.88   25.20
  -2  -1   3  264.87   25.10
  -2  -1   3  239.28   25.30
   1   1  -3 3548.04  327.37
  -1  -1   3 3278.47  327.27
  -1  -1   3 3364.86  327.27
   0   1  -3  467.05   52.69
   0   1  -3  605.54   52.89
   0  -1   3  560.54   52.69
  -1   1  -3  103.79   11.80
  -1   1  -3   92.59    9.90
  -1   1  -3   92.29   10.10
   1  -1   3   90.59    9.90
   1  -1   3  105.99   10.10
  -2   1  -3  654.53   62.49
  -2   1  -3  601.44   62.49
  -2   1  -3  741.53   64.39
   2  -1   3  577.14   62.39
  -3   1  -3  229.68   21.10
  -3   1  -3  208.18   21.20
   3  -1   3  201.48   22.40
   3  -1   3  216.68   21.20
   3  -1   3  195.88   21.00
  -4   1  -3   75.99    8.70
   4  -1   3   68.39    9.10
   5  -1   3  260.87   31.60
  -6   1  -3   10.70   15.70
   6  -1   3  -19.70   16.10
   6  -1   3    9.30    8.30
   6  -1   3    9.50    4.20
  -7   1  -3  246.18   33.40
   7  -1   3  177.68   27.20
  -8   1  -3  826.22   91.49
   8  -1   3  832.72   86.99
  -9   1  -3   -3.80   17.90
   9  -1   3   33.30   28.80
   9  -1   3   -3.00    6.10
 -10   1  -3   -3.70   19.70
  10  -1   3    6.60    6.70
  10  -1   3   15.20   26.30
 -11   1  -3  121.69   14.80
 -11   1  -3  166.18   19.00
  11  -1   3  114.79   18.10
 -12   1  -3    3.00   16.10
 -12   1  -3    0.20    4.10
  12  -1   3    4.20    7.20
  12   0  -3   -7.50   20.60
  12   0  -3   62.99   21.70
 -12   0   3   18.40    4.40
 -12   0   3   41.70    9.20
 -12   0   3    6.60   15.30
  11   0  -3  102.19   31.20
 -11   0   3  139.19   28.60
 -11   0   3  119.19   17.20
  10   0  -3    9.40   24.30
  10   0  -3   55.89   30.90
 -10   0   3    1.20   15.60
 -10   0   3    2.70    3.40
 -10   0   3    3.00    7.30
  -9   0   3  118.29   18.60
  -9   0   3  112.29   28.10
  -9   0   3  162.18   15.50
  -8   0   3   27.50    8.80
  -8   0   3   23.40    4.80
   7   0  -3   -8.50    9.20
  -7   0   3   14.10    5.60
  -7   0   3   10.60    3.10
  -7   0   3    8.20    3.20
  -7   0   3   15.20   14.10
  -7   0   3    7.20    4.10
   6   0  -3  187.78   17.20
  -6   0   3  151.68   17.20
  -6   0   3  166.58   16.60
  -6   0   3  125.09   24.60
  -6   0   3  156.98   18.90
   5   0  -3  185.78   17.70
  -5   0   3  153.48   19.20
   4   0  -3   24.90    3.70
   4   0  -3   20.60   15.70
   4   0  -3   25.30    3.50
  -4   0   3   16.20    2.90
   3   0  -3   82.79    8.70
   3   0  -3   91.59    8.90
  -3   0   3   77.89    8.40
   2   0  -3   15.40    2.30
   2   0  -3   11.60    1.90
   1   0  -3   44.50    5.60
   1   0  -3   57.39    5.80
   0   0  -3 1112.79   96.59
   0   0  -3 1007.40   94.59
   0   0  -3  864.11   94.59
   0   0   3  968.40   94.49
   0   0   3  948.31   94.69
  -1   0  -3 1268.57  120.49
  -1   0  -3 1163.18  120.49
  -1   0  -3 1402.96  122.69
   1   0   3 1116.49  120.39
   1   0   3 1297.87  120.69
  -2   0  -3  125.79   12.30
  -2   0  -3  111.59   12.40
   2   0   3   99.69   12.40
   2   0   3  145.29   14.50
  -3   0  -3   30.30    4.80
  -3   0  -3   40.00    5.10
  -3   0  -3   57.49   11.10
   3   0   3   30.60    5.10
   3   0   3   39.10    7.70
  -4   0  -3  345.67   29.70
   4   0   3  249.68   32.00
  -5   0  -3  315.87   31.40
  -5   0  -3  333.67   39.10
   5   0   3  284.47   34.50
  -6   0  -3  132.29   24.40
   6   0   3   82.19   11.80
   6   0   3  106.29   12.90
   6   0   3  128.49   17.10
  -7   0  -3   17.60   16.40
   7   0   3   -0.90   20.10
   7   0   3   31.20   10.00
  -8   0  -3   36.10   20.50
   8   0   3   35.60   24.20
   9   0   3   83.49   14.80
   9   0   3   89.79   28.00
  10   0   3   45.50   21.00
  10   0   3   44.90   11.10
 -11   0  -3    8.10   16.80
 -11   0  -3   20.70    8.60
 -11   0  -3   14.90    4.70
  11   0   3    7.00    5.60
  11   0   3   16.40   14.70
 -12   0  -3   10.50   15.40
  12   0   3   -1.00    5.40
  12  -1  -3   15.70   23.90
  12  -1  -3    9.40   20.10
 -12   1   3    5.90    6.30
 -12   1   3   -1.10   16.30
 -12   1   3    1.30    2.90
  11  -1  -3   45.00   30.40
  11  -1  -3   26.90   27.00
 -11   1   3   35.70    9.60
 -11   1   3   23.20   20.00
 -11   1   3   19.20    4.80
 -10   1   3  264.67   26.60
 -10   1   3  261.67   30.10
 -10   1   3  234.38   41.20
  -9   1   3   -4.50    6.60
  -9   1   3    0.20   16.50
  -9   1   3    2.40    3.70
  -9   1   3   -0.90    3.20
  -8   1   3  106.39   16.30
  -8   1   3  109.09   12.90
  -8   1   3  119.19   26.50
  -8   1   3  108.19   12.60
  -7   1   3  181.18   20.60
  -7   1   3  168.08   17.60
  -7   1   3  157.98   17.60
  -6   1   3  -12.00    6.50
  -6   1   3    0.90    2.40
  -6   1   3    5.50    4.60
  -6   1   3    1.80   11.30
  -6   1   3    2.70    2.20
   5  -1  -3  551.74   51.29
  -5   1   3  494.35   53.19
   4  -1  -3  264.07   25.40
   4  -1  -3  272.07   25.60
   4  -1  -3  203.38   38.40
   1  -1  -3  207.48   22.70
   0  -1  -3  132.89   16.00
  -1  -1  -3 1120.39  104.19
  -1  -1  -3 1013.70  101.49
  -1  -1  -3 1050.39  101.49
   1   1   3 1018.80  101.59
  -2  -1  -3   42.00    8.30
  -2  -1  -3   27.10    3.90
  -2  -1  -3   26.60    3.90
   2   1   3   17.30    3.90
   2   1   3   37.70    7.20
  -3  -1  -3  327.47   37.40
  -3  -1  -3  297.37   30.70
  -4  -1  -3 1329.37  128.89
  -5  -1  -3   35.80    6.60
  -5  -1  -3   36.30   16.90
   5   1   3   17.80   21.30
   5   1   3   30.50    5.70
   5   1   3   55.79    9.70
   5   1   3   39.50    6.90
  -6  -1  -3  113.99   24.70
   6   1   3   70.49   22.40
   6   1   3   55.09    8.80
   6   1   3   93.69   13.10
   6   1   3   72.09   10.40
  -7  -1  -3  277.97   40.50
  -7  -1  -3  265.77   31.80
   7   1   3  299.57   33.20
   7   1   3  296.77   41.40
  -8  -1  -3    4.80   16.60
  -8  -1  -3    7.30   10.90
   8   1   3   10.90    6.10
   8   1   3    6.70   16.90
  -9  -1  -3   19.60   18.20
   9   1   3   31.10   17.80
   9   1   3   39.10    9.80
  10   1   3  122.99   23.60
  10   1   3   95.99   15.70
 -11  -1  -3   -3.70    6.80
 -11  -1  -3   -3.70    4.20
 -11  -1  -3    5.00   16.40
  11   1   3    1.10    4.30
  11   1   3   -2.30    5.40
  12  -2  -3   42.50   24.20
  12  -2  -3   -0.70   24.20
 -12   2   3    9.10   15.70
 -12   2   3   51.59    8.70
 -12   2   3   26.80    4.70
  11  -2  -3   28.20   30.20
 -11   2   3   74.09   11.20
 -11   2   3   15.80   18.80
 -11   2   3   44.20    6.70
 -10   2   3  223.38   27.20
 -10   2   3  219.28   24.60
 -10   2   3  258.07   24.90
  -9   2   3   13.30    8.60
  -9   2   3   51.99   22.10
  -9   2   3   21.10    5.10
  -9   2   3   19.50    4.60
   8  -2  -3   10.10   12.00
  -8   2   3   33.00    5.50
  -8   2   3   38.60    6.00
  -8   2   3   23.10    8.90
  -8   2   3   34.40   20.20
  -7   2   3   14.40    3.90
  -7   2   3    6.40    9.10
  -7   2   3   18.10    4.00
  -7   2   3   11.70   16.30
  -7   2   3   18.10    7.60
  -6   2   3  148.69   25.80
  -6   2   3  109.29   11.40
  -6   2   3   84.59   13.90
  -6   2   3   97.39   11.30
  -6   2   3   83.09   16.10
  -5   2   3   73.99    8.20
  -5   2   3   78.59   20.40
  -5   2   3   72.69   10.70
  -5   2   3   61.99    8.10
  -4   2   3  226.78   24.30
   3  -2  -3   85.79   12.30
   2  -2  -3  919.21   91.69
   1  -2  -3    2.40    4.40
   0  -2  -3  236.98   26.50
  -1  -2  -3  396.86   41.20
  -1  -2  -3  406.56   41.10
  -1  -2  -3  471.45   45.00
  -2  -2  -3   12.90    2.70
  -3  -2  -3   85.59    9.90
  -4  -2  -3  193.48   30.40
  -4  -2  -3  226.58   22.30
   4   2   3  211.48   24.30
   4   2   3  217.18   21.80
   4   2   3  214.18   23.00
  -5  -2  -3    2.50   14.60
   5   2   3   -0.60    3.30
   5   2   3    8.20    5.00
   5   2   3    8.90   10.20
   5   2   3    7.50    3.40
  -6  -2  -3   22.70   18.20
   6   2   3    8.00    4.00
   6   2   3   14.10   11.90
   6   2   3    7.60    3.80
   6   2   3    5.20    5.40
  -7  -2  -3   78.29   12.60
  -7  -2  -3   55.39   21.60
   7   2   3   65.49   17.90
   7   2   3   50.79   10.20
   7   2   3   60.39   11.30
  -8  -2  -3   28.10   19.40
  -8  -2  -3   92.49   13.80
   8   2   3   93.59   20.30
   8   2   3   56.69   11.50
  -9  -2  -3   -3.30    9.20
  -9  -2  -3    8.80   18.00
   9   2   3    6.20    5.00
   9   2   3    3.30   13.00
 -10  -2  -3   36.90    6.30
 -10  -2  -3   -0.80   18.80
  10   2   3   31.90    9.30
  10   2   3   51.29   10.00
 -11  -2  -3    0.70   15.00
  11   2   3    4.30    4.60
  11   2   3    0.90    4.90
  12  -3  -3   22.60   24.00
  12  -3  -3   12.30   22.70
 -12   3   3   27.80    4.60
 -12   3   3   44.70    7.80
  11  -3  -3   15.90   29.50
 -11   3   3   18.20    6.80
 -11   3   3    9.40    3.70
 -11   3   3   -2.20   14.90
 -11   3   3   10.80    4.50
  10  -3  -3  -12.10   27.70
 -10   3   3    1.70    3.50
 -10   3   3   -0.40    3.20
 -10   3   3   -6.50    6.60
 -10   3   3   -0.70   16.80
  -9   3   3   73.99    9.80
  -9   3   3   46.80   23.30
  -9   3   3   99.49   14.10
  -8   3   3    8.10    3.70
  -8   3   3    3.10   18.40
  -8   3   3    2.70    3.70
  -8   3   3   11.10    6.70
  -8   3   3   11.00   11.20
  -7   3   3   15.20    4.10
  -7   3   3    9.50    4.00
  -7   3   3   22.60    7.10
  -7   3   3   17.10    9.90
  -7   3   3   -1.90   18.20
  -6   3   3  365.86   36.20
  -6   3   3  370.46   38.30
  -6   3   3  382.86   36.20
  -6   3   3  315.37   39.40
  -5   3   3    6.60    2.80
  -5   3   3   -0.70   15.10
  -5   3   3    4.50    2.50
  -5   3   3    2.40    4.50
  -5   3   3    9.80    4.10
  -4   3   3   27.70    6.10
  -4   3   3   31.40    4.60
  -4   3   3   27.70    4.70
   3  -3  -3  493.75   54.99
  -3   3   3  559.74   52.69
   2  -3  -3   18.10    7.50
  -2   3   3   13.50    3.90
   1  -3  -3   65.19   12.40
   1   3   3    0.30    3.30
   1   3   3   -0.90    2.00
  -2  -3  -3 1088.99  103.79
   2   3   3 1061.59  104.49
   2   3   3 1028.10  105.19
   2   3   3 1104.19  103.99
  -3  -3  -3  649.34   59.29
   3   3   3  582.14   59.79
   3   3   3  504.75   58.69
   3   3   3  563.54   58.29
   3   3   3  701.23   61.99
   3   3   3  560.24   60.69
   3   3   3  576.54   58.99
   3   3   3  645.54   58.39
  -4  -3  -3   23.50   17.20
   4   3   3   39.50    7.80
   4   3   3   30.20    5.90
   4   3   3   14.70    7.60
   4   3   3   34.30    6.60
   4   3   3   20.10    4.30
   4   3   3   23.70    4.50
  -5  -3  -3   39.40   19.60
   5   3   3   50.99   11.40
   5   3   3   34.30    7.60
   5   3   3   48.50    9.50
   5   3   3   30.60   12.90
   5   3   3   47.00    7.70
   5   3   3   37.80    6.20
  -6  -3  -3   22.90   19.40
   6   3   3   49.60   16.00
   6   3   3   47.10    7.60
   6   3   3   76.39   13.90
   6   3   3   59.89    9.20
   6   3   3   51.09   10.40
  -7  -3  -3   59.39   11.40
  -7  -3  -3   30.90   19.30
   7   3   3   38.30   15.90
   7   3   3   17.90    9.40
   7   3   3   27.50    8.90
   7   3   3   37.60    8.10
  -8  -3  -3   79.89   24.60
   8   3   3  119.59   17.30
   8   3   3  162.68   25.60
  -9  -3  -3    8.70    9.80
  -9  -3  -3    4.90   18.80
   9   3   3   15.40    6.30
   9   3   3   12.90    7.60
 -10  -3  -3  -11.80   17.90
  10   3   3    0.20    5.20
  10   3   3   -2.00    3.80
 -12   4   3   41.90    6.10
 -11   4   3   79.59   10.70
 -11   4   3   83.59   10.10
 -11   4   3   90.19   12.90
  10  -4  -3  -33.30   24.70
 -10   4   3    5.70    6.60
 -10   4   3    6.80    3.40
 -10   4   3   -2.90   14.00
 -10   4   3    3.40    4.20
  -9   4   3   75.49   10.00
  -9   4   3   87.49   13.20
  -9   4   3   55.69    9.10
  -8   4   3   10.10    6.80
  -8   4   3    6.00    3.80
  -8   4   3   19.60   20.80
  -8   4   3   17.80   13.00
  -8   4   3    3.40    3.50
  -7   4   3   -3.50    3.20
  -7   4   3    2.70    5.20
  -7   4   3   -0.40    3.10
  -7   4   3    2.10   19.90
  -7   4   3    3.30    8.40
  -6   4   3  214.68   22.40
  -6   4   3  205.28   24.00
  -6   4   3  220.18   26.80
  -6   4   3  209.88   22.20
  -5   4   3    7.90    4.70
  -5   4   3    4.60   15.50
  -5   4   3    7.50    4.50
  -5   4   3    7.80    3.00
  -5   4   3    5.00    3.00
  -5   4   3    0.10    5.50
  -4   4   3  104.99   14.60
  -4   4   3  133.49   13.90
  -4   4   3  122.29   16.10
  -4   4   3  141.69   15.50
  -4   4   3  136.09   14.10
  -3   4   3  511.45   61.19
  -3   4   3  654.93   59.59
  -3   4   3  665.93   60.49
  -3   4   3  570.24   58.99
  -3   4   3  633.24   59.39
  -3   4   3  650.03   59.39
  -3   4   3  547.95   59.49
  -2   4   3   70.99    8.30
  -2   4   3   74.59    9.30
  -2   4   3   64.29    7.90
  -2   4   3   68.29    8.10
  -2   4   3   58.59    7.80
  -2   4   3   70.69    8.30
  -2   4   3   49.10   10.30
  -1   4   3    4.40    2.60
  -1   4   3    3.20    3.70
  -1   4   3    2.60    4.10
  -1   4   3    7.50    2.30
  -1   4   3    6.80    2.50
   0   4   3  426.66   43.10
   0   4   3  459.25   41.60
   0   4   3  363.66   44.10
   0   4   3  459.85   42.10
   0   4   3  389.56   42.50
   0   4   3  427.16   41.50
   1   4   3    2.70    2.20
   1   4   3    5.30    1.90
   1   4   3    1.70    3.10
   1   4   3   -0.60    4.10
   1   4   3   -1.30    4.10
   1   4   3    1.00    2.50
   1   4   3    6.30    2.10
   2   4   3   96.09   12.20
   2   4   3  109.59   13.20
   2   4   3  115.09   11.80
   2   4   3  108.89   12.40
   2   4   3   99.89   14.10
   2   4   3  108.39   11.60
   2   4   3  102.39   15.00
   3   4   3  300.17   30.60
   3   4   3  229.18   29.60
   3   4   3  264.17   31.50
   3   4   3  292.07   29.60
   3   4   3  337.57   33.10
   3   4   3  304.77   28.90
   3   4   3  270.67   28.80
  -4  -4  -3   62.59   20.60
   4   4   3   64.09    9.10
   4   4   3   84.59   12.60
   4   4   3   67.29   10.30
   4   4   3   72.29    9.50
   4   4   3   80.49   10.80
   4   4   3   93.89   14.10
  -5  -4  -3  117.39   27.30
   5   4   3   91.09   11.90
   5   4   3   82.19   19.70
   5   4   3  113.49   16.10
   5   4   3  110.29   14.40
   5   4   3  108.99   14.00
   5   4   3  119.59   17.60
  -6  -4  -3   28.80   19.00
   6   4   3   25.40   14.20
   6   4   3   37.80    9.30
   6   4   3   25.00    8.10
   6   4   3   28.80    9.80
   6   4   3   37.30    7.90
   6   4   3   21.60    5.40
  -7  -4  -3    9.80    9.10
  -7  -4  -3  -10.10   17.00
   7   4   3   14.10   14.90
   7   4   3   14.00    8.30
   7   4   3    8.90    5.90
  -8  -4  -3  126.39   18.30
   8   4   3  116.69   17.30
   8   4   3  102.69   18.10
  -9  -4  -3   60.79   12.00
 -10  -4  -3   -3.00   14.60
  10   4   3    0.40    3.40
  10   4   3    5.50    4.80
  11  -5  -3  -13.60   24.40
 -11   5   3    2.60    4.60
 -11   5   3   -1.40    2.70
 -11   5   3    3.90    3.80
 -10   5   3  123.39   14.50
 -10   5   3  123.39   13.70
 -10   5   3  119.39   15.90
  -9   5   3    9.30    4.30
  -9   5   3   12.00    4.00
  -9   5   3   19.10    6.50
  -8   5   3   23.80    5.30
  -8   5   3   23.80    7.10
  -8   5   3   20.80   14.20
  -7   5   3  197.08   28.30
  -7   5   3  183.28   20.60
  -7   5   3  197.08   22.50
  -6   5   3    0.80    3.40
  -6   5   3    5.10    5.50
  -6   5   3    1.50    6.30
  -6   5   3    4.10    3.30
  -5   5   3  127.89   14.90
  -5   5   3   95.29   15.70
  -5   5   3  125.49   13.40
  -5   5   3  110.09   16.40
  -5   5   3  118.19   13.70
  -4   5   3   25.90    7.00
  -4   5   3   23.70    6.00
  -4   5   3   34.20    6.80
  -4   5   3   25.30    4.80
  -4   5   3   28.40    5.10
  -3   5   3   17.70    6.00
  -3   5   3   15.90    4.00
  -3   5   3   18.10    3.90
  -3   5   3   21.00    4.00
  -3   5   3   21.80    5.30
  -3   5   3   29.70    5.80
  -3   5   3   21.80    4.20
  -2   5   3  139.69   18.20
  -2   5   3  139.69   17.00
  -2   5   3  150.68   15.90
  -2   5   3  174.88   16.10
  -2   5   3  144.59   15.60
  -2   5   3  148.49   16.10
  -2   5   3  130.69   15.50
  -1   5   3  172.88   19.90
  -1   5   3  185.48   16.60
  -1   5   3  156.88   16.70
  -1   5   3  133.49   16.40
  -1   5   3  143.49   16.80
  -1   5   3  154.98   16.30
  -1   5   3  135.49   17.90
   0   5   3    6.60    4.40
   0   5   3    4.90    4.40
   0   5   3    1.20    3.90
   0   5   3    3.90    2.40
   0   5   3    4.60    2.30
   0   5   3    1.70    2.30
   1   5   3  435.76   43.50
   1   5   3  444.56   43.40
   1   5   3  436.76   44.20
   1   5   3  471.15   45.90
   1   5   3  404.56   46.50
   1   5   3  438.06   47.00
   2   5   3   64.79    8.30
   2   5   3   58.69    8.70
   2   5   3   66.89    9.50
   2   5   3   58.89   10.60
   2   5   3   69.89    7.80
   2   5   3   45.10   11.00
  -3  -5  -3   27.40   20.30
   3   5   3   68.79    8.50
   3   5   3   59.79    7.80
   3   5   3   67.19    9.10
   3   5   3   68.19    9.80
   3   5   3   48.60   11.40
   3   5   3   60.89   10.80
  -4  -5  -3  156.78   33.80
   4   5   3  213.78   25.60
   4   5   3  211.68   23.30
   4   5   3  212.28   22.60
   4   5   3  208.78   25.00
   4   5   3  201.98   21.20
   4   5   3  181.28   20.80
  -5  -5  -3   75.49   24.30
   5   5   3  115.59   14.30
   5   5   3   81.79   16.10
   5   5   3  107.69   16.70
   5   5   3  135.99   13.00
   5   5   3  145.99   16.30
  -6  -5  -3   17.20    8.40
  -6  -5  -3    1.00   17.10
   6   5   3   11.50    7.40
   6   5   3   12.70    6.50
   6   5   3   20.60    8.10
  -7  -5  -3  169.38   20.60
   7   5   3  151.08   20.70
   7   5   3  140.09   20.90
  -8  -5  -3    3.30    7.30
  -8  -5  -3    6.50   17.80
   8   5   3    0.70    3.50
   8   5   3    0.30    5.60
  -9  -5  -3   10.10    6.60
  -9  -5  -3   -9.20   17.40
   9   5   3    2.90    3.70
   9   5   3    2.30    4.70
  10  -6  -3  -14.80   21.60
 -10   6   3   56.79    6.60
 -10   6   3   33.40    6.40
 -10   6   3   39.60    7.60
  -9   6   3    0.60    4.90
  -9   6   3    0.20    3.30
  -9   6   3   16.30   13.90
  -9   6   3   -0.60    4.00
  -8   6   3   10.40    4.50
  -8   6   3   26.40   14.90
  -8   6   3   16.10    6.40
  -8   6   3   17.30    4.80
  -7   6   3  190.38   19.70
  -7   6   3  205.38   21.80
  -7   6   3  211.88   27.90
  -7   6   3  142.79   19.80
  -6   6   3    0.10    3.20
  -6   6   3   -2.20    4.80
  -6   6   3   -5.40    5.70
  -6   6   3   -3.40    3.70
  -6   6   3    3.50    8.10
  -5   6   3   11.90    7.90
  -5   6   3   16.20    7.20
  -5   6   3   20.00    4.30
  -5   6   3   12.80    4.80
  -5   6   3   20.30    5.80
  -4   6   3  261.47   27.50
  -4   6   3  275.67   30.60
  -4   6   3  290.87   28.80
  -4   6   3  240.98   27.10
  -4   6   3  235.98   28.50
  -4   6   3  279.87   28.30
  -3   6   3   13.70    3.90
  -3   6   3   19.80    4.60
  -3   6   3   19.60    4.50
  -3   6   3   15.00    5.90
  -3   6   3   15.80    5.00
  -3   6   3   16.40    4.40
  -3   6   3   14.10    5.50
  -2   6   3   65.79    9.00
  -2   6   3   64.29   10.80
  -2   6   3   63.09   11.10
  -2   6   3   67.19    9.90
  -2   6   3   87.69    9.40
  -2   6   3   71.19    9.20
  -1   6   3  137.19   17.90
  -1   6   3  109.29   18.20
  -1   6   3  174.38   16.00
  -1   6   3  152.78   15.80
   0   6   3  223.78   22.60
   0   6   3  214.48   25.20
   0   6   3  195.18   26.60
   0   6   3  218.48   22.40
   0   6   3  219.88   23.00
   1   6   3  765.52   83.69
   1   6   3  899.01   80.29
   1   6   3  796.52   83.99
   1   6   3  870.21   80.99
   1   6   3  747.03   79.89
   2   6   3   22.30    7.10
   2   6   3   23.10    7.80
   2   6   3   16.40    4.90
   2   6   3   25.30    4.80
   2   6   3   26.60    5.00
   3   6   3   48.50   10.40
   3   6   3   69.19    8.70
   3   6   3   52.59    9.60
   3   6   3   40.60   11.20
   3   6   3   57.79    7.80
   4   6   3  250.47   30.00
   4   6   3  258.37   25.80
   4   6   3  248.28   27.30
   4   6   3  248.78   29.60
   4   6   3  212.48   25.10
  -5  -6  -3   69.69   14.40
   5   6   3   93.69   15.10
   5   6   3   80.49   11.10
   5   6   3   96.69   14.10
   5   6   3  112.09   13.10
  -6  -6  -3    9.10    8.00
   6   6   3    7.20    6.50
   6   6   3    6.80    6.20
   6   6   3    9.20    5.80
  -7  -6  -3   97.09   14.90
   7   6   3   89.89   14.60
  -8  -6  -3   20.00    7.60
   8   6   3   10.90    6.20
   8   6   3   22.90    6.60
 -10   7   3    3.10    3.90
  -9   7   3    4.10    3.40
  -9   7   3    8.10    4.80
  -9   7   3   15.20    5.30
  -8   7   3   -1.40    4.90
  -8   7   3    7.00    5.10
  -8   7   3    5.30    3.70
  -8   7   3    8.40   13.10
  -7   7   3   11.90   10.30
  -7   7   3    4.40    5.30
  -7   7   3    1.70    4.70
  -7   7   3    0.10    3.60
  -6   7   3    2.60    5.00
  -6   7   3    6.90    8.40
  -6   7   3    1.00    3.90
  -6   7   3    9.30    8.50
  -6   7   3   10.60    5.60
  -5   7   3    2.90    5.10
  -5   7   3   -1.50    4.20
  -5   7   3    0.40    4.60
  -5   7   3    4.80    7.00
  -5   7   3    6.70    3.80
  -4   7   3    4.30    5.20
  -4   7   3   13.80    5.70
  -4   7   3   -3.00    3.60
  -4   7   3    0.90    4.40
  -4   7   3    4.20    4.60
  -3   7   3  136.29   18.80
  -3   7   3  139.39   16.00
  -3   7   3  143.89   16.60
  -3   7   3  141.89   17.50
  -3   7   3  128.99   16.10
  -3   7   3  138.29   15.60
  -2   7   3   15.00    6.40
  -2   7   3   19.10    6.60
  -2   7   3   16.00    4.50
  -2   7   3   19.40    4.50
  -2   7   3   15.70    4.50
  -1   7   3   51.39   10.80
  -1   7   3   54.59   10.40
  -1   7   3   54.99    7.60
  -1   7   3   45.90    7.40
  -1   7   3   34.10    6.70
   0   7   3    5.60    3.30
   0   7   3    2.50    2.40
   0   7   3    4.30    5.10
   0   7   3   16.40    7.90
   0   7   3    0.90    3.00
   1   7   3    2.50    4.40
   1   7   3    2.00    5.00
   1   7   3    1.70    2.30
   1   7   3    1.20    3.10
   1   7   3   -0.50    2.60
   2   7   3    5.70    3.40
   2   7   3    4.10    4.40
   2   7   3    4.10    3.10
   2   7   3    0.40    4.60
   2   7   3    1.00    2.70
   3   7   3  276.87   30.00
   3   7   3  316.27   30.60
   3   7   3  292.37   34.50
   3   7   3  277.27   34.10
  -4  -7  -3    3.70    7.20
   4   7   3    1.30    4.80
   4   7   3    2.60    5.70
   4   7   3    4.80    3.40
   4   7   3    7.70    4.90
   4   7   3    6.00    4.80
  -5  -7  -3   35.60    9.50
   5   7   3   33.60    7.30
   5   7   3   14.20    7.60
   5   7   3   32.80    9.40
   5   7   3   39.00    9.20
   5   7   3   18.10    6.60
  -6  -7  -3   63.29   12.00
   6   7   3   68.19   12.10
  -7  -7  -3   40.90    7.80
   7   7   3   26.50    8.00
  -9   8   3   29.10    5.90
  -8   8   3  108.99   14.20
  -8   8   3  115.79   21.70
  -7   8   3   -5.20    8.80
  -7   8   3   -2.50    4.80
  -7   8   3   -9.80    5.20
  -6   8   3   27.60    7.20
  -6   8   3   28.70    7.60
  -6   8   3   56.49   13.20
  -5   8   3   14.50    7.70
  -5   8   3   11.00    6.30
  -5   8   3    9.30    5.90
  -5   8   3    6.30    7.70
  -4   8   3   -0.60    4.50
  -4   8   3    8.10    6.50
  -4   8   3   -4.10    5.00
  -4   8   3   -2.70    5.30
  -4   8   3   -2.70    6.20
  -3   8   3  142.29   19.40
  -3   8   3  156.18   17.00
  -3   8   3  133.29   17.10
  -3   8   3  132.79   18.20
  -2   8   3  113.89   13.90
  -2   8   3  121.09   16.50
  -2   8   3  115.99   17.00
  -2   8   3  102.79   13.60
  -1   8   3  238.98   23.60
  -1   8   3  189.78   22.70
   0   8   3  513.55   58.79
   0   8   3  678.13   63.09
   0   8   3  597.04   59.79
   1   8   3    9.10    4.40
   1   8   3    5.20    4.90
   1   8   3    1.00    3.30
   1   8   3    2.60    3.10
   2   8   3    1.80    3.40
   2   8   3    2.10    4.10
   2   8   3    1.30    3.40
   2   8   3    0.40    4.80
  -3  -8  -3  108.59   16.50
   3   8   3  109.19   16.50
   3   8   3  109.29   14.80
   3   8   3   99.19   12.70
   3   8   3  109.09   14.30
  -4  -8  -3  124.09   16.80
   4   8   3   77.19   15.50
   4   8   3   87.99   15.10
   4   8   3  110.69   15.40
   4   8   3  104.29   12.80
   4   8   3  140.29   17.60
  -5  -8  -3   64.59   10.50
   5   8   3   53.49   10.40
   5   8   3   28.30    8.70
   5   8   3   34.50    9.20
  -6  -8  -3   45.20    7.50
   6   8   3   18.50    6.60
   6   8   3   33.10    7.80
  -7   9   3    2.20    9.90
  -7   9   3   10.40    5.60
  -6   9   3   12.30    6.00
  -6   9   3   10.70    8.40
  -5   9   3   -0.60    6.10
  -5   9   3    4.10    6.90
  -4   9   3   20.00    7.30
  -4   9   3   19.60    7.30
  -3   9   3   12.40    7.50
  -3   9   3   35.80    9.20
  -3   9   3   24.10    6.80
  -3   9   3   14.30    7.00
  -2   9   3    2.90    5.30
  -2   9   3    2.20    3.80
  -2   9   3    4.30    4.40
  -2   9   3   -0.50    4.50
  -1   9   3   16.40    5.30
  -1   9   3   15.80    5.00
  -1   9   3    4.20    5.20
  -1   9   3   12.30    6.70
   0   9   3   33.50    7.40
   0   9   3   31.30    8.30
   0   9   3   29.40    7.50
   0   9   3   38.80    7.40
   1   9   3   -1.00    5.10
   1   9   3    3.80    4.00
   1   9   3    6.90    4.20
   1   9   3    1.60    4.30
  -2  -9  -3   18.00    9.40
   2   9   3   32.50    6.50
   2   9   3   26.20    8.00
   2   9   3   35.10    8.60
   2   9   3   25.70    7.80
  -3  -9  -3   26.50    7.90
   3   9   3   20.80    5.80
   3   9   3   26.00    6.50
   3   9   3   29.90    7.10
   3   9   3   16.00    7.00
  -4  -9  -3    4.10    6.40
   4   9   3    6.30    6.50
   4   9   3    8.80    5.00
  -5  10   3   25.50    8.60
  -4  10   3  146.69   19.40
  -3  10   3   -0.90    5.10
  -3  10   3   -0.80    4.40
  -3  10   3    7.70    6.90
  -2  10   3   19.10    5.80
  -2  10   3    6.90    6.30
  -2  10   3   15.20    6.20
  -1  10   3   87.19   13.90
  -1  10   3   89.29   13.40
  -1  10   3   97.49   12.30
  -1  10   3   85.19   12.80
   0  10   3    4.50    4.00
   0  10   3    6.50    4.40
   0  10   3    1.60    4.50
   0  10   3   11.00    6.60
   1  10   3   20.20    6.30
   1  10   3   26.60    6.60
   1  10   3   19.60    6.30
   1  10   3   32.70    8.00
   2  10   3   29.70    7.10
   2  10   3   38.30    8.80
   2  10   3   26.50    7.00
  -3 -13   4   12.50    6.00
  -3 -13   4   20.50   11.60
  -2 -13   4  102.39   14.50
   1  13  -4    1.80    5.80
  -1 -13   4    2.90    5.90
   0  13  -4    8.40    4.90
   0  13  -4    2.70    5.60
   0 -13   4   -2.60    7.90
   0 -13   4   -3.40    6.00
  -1  13  -4   16.30    5.70
  -1  13  -4   25.00    6.70
   1 -13   4    2.30    8.00
  -2  13  -4    4.50    5.50
  -2  13  -4   11.20    5.50
   2 -13   4    5.10    6.70
  -3  13  -4  100.89   14.50
  -4  13  -4   65.99   12.40
   5  12  -4   55.79   10.80
   4  12  -4  172.48   21.10
   3  12  -4   -2.30    6.80
   3  12  -4    5.20    5.50
  -3 -12   4   -0.50    6.50
   2  12  -4   -0.90    4.80
   2  12  -4    0.90    4.70
   2  12  -4   -1.80    6.40
  -2 -12   4   -2.30    6.90
   1  12  -4  123.09   15.60
   1  12  -4  128.09   16.20
   1  12  -4  133.69   16.80
  -1 -12   4   92.59   17.30
   0  12  -4   11.40    5.40
   0  12  -4    7.00    5.00
   0 -12   4    8.70    7.10
  -1  12  -4    2.60    4.60
  -1  12  -4    2.20    4.60
  -2  12  -4  211.08   25.40
  -2  12  -4  220.48   24.90
  -3  12  -4   21.50    7.50
  -3  12  -4   30.60    8.50
   3 -12   4   11.20    8.40
  -4  12  -4   43.60   10.60
   4 -12   4   10.80    7.90
  -5  12  -4   54.69   10.30
  -5  12  -4   64.19   13.20
  -6  12  -4    0.30    9.60
  -6  12  -4   10.50    5.60
   6 -12   4  -15.10   11.00
  -7  12  -4   15.60   11.70
   7 -12   4    8.30   12.40
   7  11  -4   25.20    8.80
  -6 -11   4   66.29    9.60
  -6 -11   4   35.90    9.30
   5  11  -4   37.40    9.50
  -5 -11   4    7.30    7.30
   4  11  -4  148.49   20.00
   4  11  -4  187.98   21.50
   3  11  -4   39.80    9.80
   3  11  -4   22.40    7.30
  -3 -11   4   17.10    8.60
   2  11  -4    6.10    5.40
   2  11  -4    6.20    5.10
   2  11  -4   19.30    9.20
   2  11  -4   13.90    6.90
  -2 -11   4   10.20    8.30
   1  11  -4  152.48   21.10
   1  11  -4  142.59   17.60
   1  11  -4  126.79   18.90
   1  11  -4  154.28   18.40
  -1 -11   4  139.09   20.40
   0  11  -4   11.40    8.50
   0  11  -4    0.10    4.50
   0  11  -4    5.30    6.70
   0  11  -4    0.40    4.40
   0 -11   4    1.90    6.60
  -1  11  -4   42.20   10.20
  -1  11  -4   36.40    8.50
  -1  11  -4   33.40    8.80
   1 -11   4   33.10    9.70
  -2  11  -4  424.76   51.09
  -2  11  -4  561.84   51.89
  -3  11  -4   47.80   10.20
  -3  11  -4   36.50    8.70
  -3  11  -4   45.60   11.10
   3 -11   4   27.70   11.90
  -4  11  -4    3.00    5.60
  -4  11  -4    3.90    6.50
  -4  11  -4    1.20    4.60
   4 -11   4   -4.20    7.00
  -5  11  -4   89.29   13.30
  -5  11  -4   98.79   18.30
  -6  11  -4    1.40   10.00
  -6  11  -4   -2.50    4.70
  -7  11  -4    4.00    5.20
  -7  11  -4    0.90   11.70
   7 -11   4  -15.30   12.70
  -8  11  -4   13.70    5.40
  -8  11  -4   33.60    6.90
   8 -11   4   -2.30   13.60
   8  10  -4   34.60    9.70
  -8 -10   4   21.10    5.10
   7  10  -4   -0.30    6.70
  -7 -10   4    2.20    4.50
  -7 -10   4    0.30    5.60
   6  10  -4    7.60    7.40
  -6 -10   4   -2.20    6.40
  -6 -10   4    5.70    4.90
   5  10  -4   67.59   12.60
   5  10  -4   67.79   12.40
  -5 -10   4   72.69   11.70
   4  10  -4    6.20    5.70
   4  10  -4   12.40    6.90
   4  10  -4   12.20    6.70
  -4 -10   4    7.90    6.20
  -4 -10   4    8.00    7.90
   3  10  -4   -0.10    5.30
   3  10  -4   -0.90    4.80
   3  10  -4    1.10    4.70
   3  10  -4   -1.70    7.90
  -3 -10   4   -6.90    6.70
   2  10  -4  100.79   14.90
   2  10  -4   98.29   15.30
   2  10  -4  144.29   19.20
   2  10  -4  132.69   15.90
  -2 -10   4   89.59   17.90
   1  10  -4   11.80    8.70
   1  10  -4    5.80    5.30
   1  10  -4    7.40    6.80
   1  10  -4    9.50    5.70
  -1 -10   4    6.50    7.70
   0  10  -4   30.40   10.10
   0  10  -4   16.70    6.10
   0  10  -4   24.70    9.10
   0  10  -4   20.10    7.20
   0 -10   4   20.80    8.70
  -1  10  -4   24.70    7.10
  -1  10  -4   19.30    7.20
  -1  10  -4   34.60   10.30
  -1  10  -4   38.20    9.40
   1 -10   4   29.00    9.10
  -2  10  -4   10.40    5.40
  -2  10  -4    2.50    5.30
  -2  10  -4   31.30    9.20
  -2  10  -4    2.20    4.60
  -3  10  -4   91.39   15.60
  -3  10  -4  157.58   17.80
  -3  10  -4  121.59   15.60
   3 -10   4  139.69   21.30
  -4  10  -4   77.09   12.40
  -4  10  -4   85.69   13.80
  -4  10  -4   54.79   12.20
   4 -10   4   43.00   14.20
  -5  10  -4   55.29   12.10
  -5  10  -4   85.79   15.30
   5 -10   4   28.50   12.50
  -6  10  -4  117.09   21.90
  -6  10  -4  103.89   14.20
  -6  10  -4   91.99   14.30
  -7  10  -4   21.10    7.00
  -7  10  -4   13.40    6.20
  -7  10  -4   25.30   14.80
  -8  10  -4   -1.70   11.90
  -8  10  -4    3.40    4.90
  -8  10  -4    7.00    4.50
   8 -10   4  -10.50   16.20
  -9  10  -4   49.20    7.30
   9 -10   4    4.90   15.10
   9   9  -4    6.60    8.30
  -9  -9   4    8.10    3.90
   8   9  -4  225.88   25.50
  -8  -9   4  177.28   21.80
   7   9  -4  187.68   23.70
  -7  -9   4  165.68   20.10
   6   9  -4   86.29   15.20
   6   9  -4   70.79   13.50
  -6  -9   4   95.49   12.80
   5   9  -4  350.56   43.00
   5   9  -4  418.06   43.00
  -5  -9   4  429.96   41.50
   4   9  -4    6.10    5.00
   4   9  -4  -15.90    8.00
   4   9  -4    0.10    5.60
   4   9  -4    5.40    6.00
  -4  -9   4   -1.00    5.00
  -4  -9   4    2.30    6.90
   3   9  -4   76.29   12.90
   3   9  -4   83.09   14.80
   3   9  -4   91.69   13.50
   3   9  -4  101.49   13.50
  -3  -9   4   66.49   14.30
  -3  -9   4   70.89   12.30
   2   9  -4  525.15   57.19
   2   9  -4  512.75   56.59
   2   9  -4  559.54   57.39
   2   9  -4  629.64   57.79
  -2  -9   4  529.75   58.79
   1   9  -4    3.40    4.80
   1   9  -4    1.60    5.70
   1   9  -4   -7.90    6.30
   1   9  -4   -1.90    4.40
  -1  -9   4    7.40    6.80
   0   9  -4  411.76   41.60
   0   9  -4  421.86   42.50
   0   9  -4  381.46   42.70
   0  -9   4  365.26   42.90
  -1   9  -4  563.24   54.39
  -1   9  -4  480.15   52.89
  -1   9  -4  551.84   53.89
  -1   9  -4  493.65   53.99
  -1   9  -4  508.55   54.79
   1  -9   4  520.25   54.59
  -2   9  -4   11.00    8.00
  -2   9  -4   -1.00    4.00
  -2   9  -4   -1.80    3.80
  -2   9  -4    2.60    4.20
  -3   9  -4  109.49   15.00
  -3   9  -4  102.39   13.90
  -3   9  -4  100.29   14.10
  -4   9  -4   35.80    9.70
  -4   9  -4   42.40    8.80
  -4   9  -4   35.90    9.20
  -4   9  -4   34.40    9.00
  -5   9  -4   41.80   11.50
  -5   9  -4   34.50    7.60
  -5   9  -4   48.70   10.70
  -5   9  -4   29.20    6.90
   5  -9   4   15.40   10.40
  -6   9  -4  121.49   20.20
  -6   9  -4   78.59   11.90
   6  -9   4   50.19   15.00
  -7   9  -4   51.79    9.10
  -7   9  -4   62.49   19.30
  -7   9  -4   56.39   10.80
  -8   9  -4    3.60    5.10
  -8   9  -4   30.70   15.10
  -8   9  -4    6.60    5.10
   8  -9   4  -16.30   15.40
  -9   9  -4  177.68   21.00
  -9   9  -4  178.18   19.90
 -10   9  -4    5.80    3.90
  10  -9   4   12.40   13.50
  10  -9   4   33.50   30.40
  10   8  -4   -1.40    7.90
 -10  -8   4    2.30    3.30
   9   8  -4    6.00    8.60
  -9  -8   4   -7.50    4.30
   8   8  -4  242.68   29.20
  -8  -8   4  226.18   25.50
   7   8  -4   -0.30    8.00
   7   8  -4    2.40    8.00
  -7  -8   4    1.50    6.60
  -7  -8   4   -0.20    4.90
   6   8  -4   45.20   12.50
   6   8  -4   36.60   11.10
  -6  -8   4   55.29    9.30
   5   8  -4   29.60    9.30
   5   8  -4   31.80    9.70
  -5  -8   4   13.80    8.50
   4   8  -4    7.00    5.60
   4   8  -4    0.70    5.80
   4   8  -4   -1.70    5.50
   4   8  -4   -1.00    8.60
  -4  -8   4    1.30    6.40
  -4  -8   4    4.60    4.70
   3   8  -4   38.30   10.30
   3   8  -4   58.69   10.00
   3   8  -4   48.40    9.90
   3   8  -4   34.30    8.00
  -3  -8   4   45.30   10.50
  -3  -8   4   38.30    7.60
   2   8  -4  135.59   20.50
   2   8  -4  172.28   19.80
   2   8  -4  162.48   20.20
   2   8  -4  175.78   20.10
  -2  -8   4  168.88   21.30
   1   8  -4   89.99   15.20
   1   8  -4  137.09   15.30
   1   8  -4  113.19   14.70
   1   8  -4  106.39   15.50
  -1  -8   4  103.39   15.60
   0   8  -4   -4.50    5.40
   0   8  -4    4.60    4.80
   0   8  -4    4.90    5.90
   0   8  -4    7.70    4.70
   0   8  -4    2.10    4.50
   0  -8   4    4.40    5.40
  -1   8  -4  176.98   21.20
  -1   8  -4  207.48   22.40
  -1   8  -4  181.18   22.80
  -1   8  -4  204.98   22.10
  -1   8  -4  177.18   23.20
   1  -8   4  200.88   23.00
  -2   8  -4  122.29   14.70
  -2   8  -4  132.39   17.80
  -2   8  -4  127.99   15.60
  -2   8  -4  107.69   15.00
   2  -8   4  119.49   20.20
  -3   8  -4   23.20    6.70
  -3   8  -4   25.60    6.50
  -3   8  -4   19.90    6.50
   3  -8   4   19.40    9.30
  -4   8  -4   62.79   10.00
  -4   8  -4   44.40    8.30
  -4   8  -4   73.69   10.20
  -4   8  -4   72.79   11.70
   4  -8   4   43.10   12.90
  -5   8  -4  272.37   31.10
  -5   8  -4  292.67   30.20
  -5   8  -4  307.37   34.40
  -5   8  -4  278.57   32.10
  -6   8  -4    9.30    9.70
  -6   8  -4   11.10    4.80
  -6   8  -4   10.70    4.60
   6  -8   4    5.10    8.80
  -7   8  -4    0.30   12.70
  -7   8  -4   -0.40    3.50
  -7   8  -4   -2.10    4.30
   7  -8   4   -7.50   11.00
  -8   8  -4   10.70    4.80
  -8   8  -4    2.90    4.70
   8  -8   4   -8.20   17.30
  -9   8  -4  126.59   15.70
  -9   8  -4  114.49   16.20
 -10   8  -4   29.30    5.80
  10  -8   4   12.30   17.00
  10  -8   4   32.30   36.70
  10   7  -4   34.40   11.70
 -10  -7   4   25.30    5.60
   9   7  -4  220.98   27.30
  -9  -7   4  199.38   23.20
   8   7  -4    4.90    9.50
   8   7  -4   25.30   12.80
  -8  -7   4   22.00    5.80
   7   7  -4  141.19   20.00
   7   7  -4  129.39   19.20
  -7  -7   4   93.09   14.80
   6   7  -4  259.67   31.90
   6   7  -4  275.47   32.30
  -6  -7   4  273.87   29.20
   5   7  -4   34.00   10.20
   5   7  -4   42.30   10.20
  -5  -7   4   14.80    8.50
  -5  -7   4   39.20    7.60
   4   7  -4  451.35   46.40
   4   7  -4  443.56   46.80
  -4  -7   4  417.56   44.40
   3   7  -4  606.64   58.49
   3   7  -4  577.44   57.99
   3   7  -4  538.85   57.69
  -3  -7   4  595.94   59.09
  -3  -7   4  506.75   56.09
   2   7  -4   -0.90    3.90
   2   7  -4   -0.80    4.80
   2   7  -4   -3.30    5.80
  -2  -7   4   -6.90    4.40
  -2  -7   4   -0.60    3.90
  -2  -7   4    3.00    4.90
   1   7  -4  642.24   62.59
   1   7  -4  514.35   61.39
   1   7  -4  685.83   62.89
  -1  -7   4  590.24   60.69
  -1  -7   4  630.74   62.99
   0   7  -4  236.98   24.10
   0   7  -4  170.38   23.70
   0   7  -4  212.18   24.50
   0  -7   4  234.88   24.50
   0  -7   4  204.08   22.50
  -1   7  -4   10.20    6.00
  -1   7  -4    4.30    4.70
  -1   7  -4    9.60    6.60
  -1   7  -4    9.70    4.70
   1  -7   4    4.50    4.20
   1  -7   4    9.50    5.70
  -2   7  -4  414.16   41.00
  -2   7  -4  427.06   40.10
  -2   7  -4  366.86   40.20
  -2   7  -4  401.96   40.50
   2  -7   4  337.47   39.10
  -3   7  -4   58.19    8.30
  -3   7  -4   55.09    8.60
  -3   7  -4   38.50    7.40
   3  -7   4   46.90   11.40
  -4   7  -4   23.90    7.20
  -4   7  -4   23.40    6.40
  -4   7  -4   19.70    5.30
  -4   7  -4   30.80    6.50
   4  -7   4   17.40    8.90
  -5   7  -4  429.86   45.50
  -5   7  -4  451.65   47.60
  -5   7  -4  423.36   44.50
  -5   7  -4  417.16   43.60
  -6   7  -4   15.40   10.60
  -6   7  -4    5.60    3.70
  -6   7  -4    6.00    4.20
   6  -7   4    1.70    8.20
   6  -7   4    7.20    9.70
  -7   7  -4    4.60    3.70
  -7   7  -4   -4.10    4.90
  -7   7  -4   -2.50    3.80
  -7   7  -4    7.00   12.40
   7  -7   4  -13.40   10.50
  -8   7  -4  243.98   25.10
  -8   7  -4  213.58   23.80
  -8   7  -4  195.88   22.90
  -9   7  -4    0.90    5.00
  -9   7  -4   -2.60    4.30
  -9   7  -4    5.20    4.80
   9  -7   4    6.30   19.60
 -10   7  -4    3.30    3.80
 -10   7  -4   -1.30    4.70
  10  -7   4   12.40   17.80
  10  -7   4   62.19   42.40
 -11   7  -4   62.89    9.30
 -11   7  -4   60.59    7.90
  11  -7   4    0.60   30.90
  11  -7   4   58.19   15.30
  11   6  -4   26.60    9.80
 -11  -6   4   11.60    4.20
  10   6  -4   36.30   10.70
 -10  -6   4   17.20    5.70
   9   6  -4  427.76   47.50
  -9  -6   4  423.96   43.90
   8   6  -4   -0.70   10.70
   8   6  -4   -0.10    8.70
  -8  -6   4    7.30    4.50
   7   6  -4   16.70    9.50
   7   6  -4   29.60   12.80
  -7  -6   4   16.10    6.20
   6   6  -4   81.79   17.10
   6   6  -4   66.79   14.10
  -6  -6   4   82.19   11.40
   5   6  -4   19.50    8.20
   5   6  -4   15.00    9.50
  -5  -6   4   18.50    5.40
  -5  -6   4    7.70    6.30
   4   6  -4   80.39   12.60
   4   6  -4   60.19   10.80
  -4  -6   4   52.29   10.60
  -4  -6   4   57.09    9.00
   3   6  -4  152.38   19.60
   3   6  -4  177.68   20.50
  -3  -6   4  167.38   17.70
  -3  -6   4  146.59   17.80
  -3  -6   4  179.58   20.10
   2   6  -4  116.69   14.20
  -2  -6   4   95.49   13.70
  -2  -6   4  101.29   12.40
   1   6  -4  115.59   20.70
   0  -6   4  388.16   38.80
   1  -6   4  388.86   38.90
   2  -6   4   34.20    6.00
  -3   6  -4    3.90    3.20
  -3   6  -4    5.70    4.00
   3  -6   4    4.10    4.10
   3  -6   4    5.70    6.20
  -4   6  -4   55.69    8.90
  -4   6  -4   46.50    7.90
  -4   6  -4   66.39   10.50
   4  -6   4   35.90   11.40
  -5   6  -4  137.59   14.50
  -5   6  -4  114.29   15.70
  -5   6  -4  122.29   18.40
  -5   6  -4  133.89   15.00
   5  -6   4   88.89   19.60
  -6   6  -4    8.80    4.40
  -6   6  -4   13.10    4.30
  -6   6  -4    5.40   10.20
   6  -6   4   -4.30   10.10
   6  -6   4    1.30    7.60
  -7   6  -4   17.50    5.00
  -7   6  -4   20.10   14.30
  -7   6  -4   13.40    5.40
  -7   6  -4   17.80    5.40
   7  -6   4   -0.30   13.20
  -8   6  -4  179.68   18.80
  -8   6  -4  143.69   16.50
  -8   6  -4  124.09   17.00
  -9   6  -4   23.40    6.00
  -9   6  -4   19.20    6.40
  -9   6  -4   17.10    5.40
   9  -6   4   -1.00   19.40
   9  -6   4   63.59   46.20
 -10   6  -4    2.70    4.40
 -10   6  -4    8.30    5.70
  10  -6   4   38.20   43.80
  10  -6   4   18.50   17.10
 -11   6  -4   19.40    4.60
 -11   6  -4   25.10    5.70
  11  -6   4    3.50   32.30
  11  -6   4   22.60   12.00
  11   5  -4  131.19   19.70
 -11  -5   4  115.19   14.10
  10   5  -4   50.99   14.60
  10   5  -4   19.20   12.00
 -10  -5   4   21.40    9.00
 -10  -5   4   43.20    7.60
 -10  -5   4   31.70   16.30
   9   5  -4    0.90   13.20
   9   5  -4   20.40   11.60
  -9  -5   4   18.90   16.10
  -9  -5   4   10.10    7.90
  -9  -5   4   10.10    6.10
   8   5  -4  231.88   27.70
  -8  -5   4  212.78   23.30
  -8  -5   4  193.78   24.40
  -8  -5   4  175.78   32.60
   7   5  -4   30.60   16.00
   7   5  -4   41.50   12.10
  -7  -5   4   40.60    8.30
  -7  -5   4   43.90   17.10
   6   5  -4   60.09   12.90
   6   5  -4   38.50   16.00
  -6  -5   4   89.59   19.10
  -6  -5   4   64.79    9.90
   5   5  -4  391.76   40.80
  -5  -5   4  370.26   38.90
   4   5  -4  571.04   56.19
  -4  -5   4  511.35   54.69
  -4  -5   4  569.84   56.69
  -3  -5   4   34.80    5.70
   2   5  -4  993.30   95.29
  -2  -5   4  959.50   95.19
   1   5  -4    3.10   11.00
   1   5  -4   15.40    3.70
  -1  -5   4   20.50    4.10
   0   5  -4   75.09    8.90
   0  -5   4   74.49    9.00
   0  -5   4   76.09    9.90
  -1   5  -4  521.45   53.09
   1  -5   4  560.94   53.39
   2  -5   4    1.30    2.90
   3  -5   4  445.86   44.40
  -4   5  -4  836.32   82.49
  -5   5  -4   15.50    6.10
  -5   5  -4   11.00    8.60
  -5   5  -4   16.40    4.70
   5  -5   4    6.70    7.40
   5  -5   4    3.10    7.80
   5  -5   4   10.40    5.60
  -6   5  -4   20.50    4.90
  -6   5  -4   -0.60    9.90
   6  -5   4   10.60    6.80
   6  -5   4   -5.20    8.90
  -7   5  -4   95.29   13.40
  -7   5  -4  113.99   13.70
  -8   5  -4   34.10    7.40
  -8   5  -4   24.80    6.60
   8  -5   4    1.90   14.00
  -9   5  -4  222.78   23.50
  -9   5  -4  223.48   24.50
  -9   5  -4  209.08   25.50
 -10   5  -4   56.79    9.80
 -10   5  -4   62.49    9.30
  10  -5   4   87.29   22.70
  10  -5   4   54.29   44.70
 -11   5  -4    2.00    5.20
 -11   5  -4    4.20    4.30
  11  -5   4   12.60   30.90
  11  -5   4   12.80   10.00
  12   4  -4    9.50    9.80
 -12  -4   4    5.00   14.70
  11   4  -4   70.89   15.10
  11   4  -4    5.60   13.10
 -11  -4   4   40.80    6.60
 -11  -4   4   24.30    8.70
  10   4  -4  141.69   22.30
 -10  -4   4  128.29   15.60
 -10  -4   4  121.69   18.20
   9   4  -4    5.50   11.30
   9   4  -4   20.10   19.30
  -9  -4   4    0.90   14.50
  -9  -4   4    6.40    7.20
  -9  -4   4    0.40    4.60
   8   4  -4  200.58   28.10
  -8  -4   4  178.58   22.60
  -8  -4   4  195.28   21.90
   7   4  -4   10.80   10.70
   7   4  -4   13.20   17.30
  -7  -4   4   12.20    4.70
  -7  -4   4    6.50    6.40
  -7  -4   4   12.50   12.60
   6   4  -4   34.80   12.00
   6   4  -4    5.50   13.60
  -6  -4   4   65.79   15.30
  -6  -4   4   37.70    7.10
   5   4  -4  877.31   92.69
  -5  -4   4 1025.70   95.09
  -5  -4   4  866.81   90.49
   4   4  -4  299.57   30.80
   3   4  -4   47.10    6.60
  -3  -4   4   41.90    6.10
   2   4  -4  785.42   71.79
   2   4  -4  727.63   71.79
  -2  -4   4  660.63   71.59
  -2  -4   4  762.02   71.69
   1   4  -4   54.79    6.90
   1   4  -4   68.69   15.80
   1   4  -4   52.29    7.50
  -1  -4   4   54.09    7.00
  -1  -4   4   45.70    7.20
   0   4  -4  138.99   13.60
   0   4  -4  125.29   14.00
   0  -4   4  113.09   13.80
   0  -4   4  136.59   13.90
  -1   4  -4  923.41   88.19
   1  -4   4  893.81   88.49
   1  -4   4  902.41   88.39
  -2   4  -4    7.60    2.60
   2  -4   4   11.60    3.00
   2  -4   4    7.00    3.20
  -3   4  -4   34.90    6.40
   3  -4   4   29.40    4.80
  -5   4  -4   16.30   11.20
  -5   4  -4   41.90    6.50
   5  -4   4   24.90    6.90
   5  -4   4    3.60    7.40
   5  -4   4   41.90    8.70
  -6   4  -4   18.80   37.90
   6  -4   4    0.40    9.20
  -7   4  -4  239.28   26.40
  -7   4  -4  225.78   26.70
  -7   4  -4  307.47   40.10
  -8   4  -4   40.20    8.00
  -8   4  -4   42.50    7.60
  -8   4  -4   33.60   26.30
   8  -4   4    7.20   14.10
   8  -4   4   11.80   33.40
  -9   4  -4   19.60    6.20
  -9   4  -4  -11.80   23.70
   9  -4   4   45.60   44.20
   9  -4   4   22.50   16.00
 -10   4  -4   29.00    6.10
 -10   4  -4   36.40    6.90
 -10   4  -4   17.20   20.90
  10  -4   4   61.69   41.10
  10  -4   4   34.60   14.40
 -11   4  -4   11.90    5.80
 -11   4  -4    4.40    4.30
  11  -4   4   10.40    9.00
  11  -4   4  -17.60   27.00
 -12   4  -4   43.70    6.50
  12   3  -4   85.99   16.00
 -12  -3   4   24.30   15.00
  11   3  -4   13.10   16.50
  11   3  -4    2.70   10.90
 -11  -3   4   -4.40    7.00
 -11  -3   4    4.50   14.10
 -11  -3   4    1.20    5.90
  10   3  -4   27.10   23.70
  10   3  -4   69.49   18.90
 -10  -3   4   30.30    7.00
 -10  -3   4   34.60    9.60
 -10  -3   4   29.70   17.90
   9   3  -4  189.48   32.00
  -9  -3   4  184.98   21.70
  -9  -3   4  199.38   23.80
  -9  -3   4  200.38   32.70
   8   3  -4   20.00   21.70
   8   3  -4    2.00   13.30
  -8  -3   4    5.10    6.60
  -8  -3   4    1.10   14.10
  -8  -3   4   -2.20    4.30
   7   3  -4   -9.00   11.30
   7   3  -4    6.90   15.50
  -7  -3   4    0.20    4.00
  -7  -3   4    2.80    6.00
  -7  -3   4   -3.60   11.20
  -6  -3   4  398.36   42.60
  -6  -3   4  447.26   48.40
   5   3  -4   -4.10    8.50
   5   3  -4    9.80    4.70
  -5  -3   4    7.00    5.50
  -5  -3   4    4.10    3.30
   4   3  -4  400.46   40.00
   3   3  -4 1282.87  115.89
   3   3  -4 1011.70  122.19
   3   3  -4 1229.58  115.79
  -3  -3   4 1227.38  115.59
   2   3  -4   43.90    5.80
   2   3  -4   34.80    5.50
   2   3  -4   42.00   14.70
  -2  -3   4   37.50    5.50
  -2  -3   4   40.80    5.60
   1   3  -4  285.87   27.10
   1   3  -4  251.77   32.60
   1   3  -4  269.27   27.10
  -1  -3   4  252.87   27.00
  -1  -3   4  283.97   27.20
   0   3  -4 1796.22  168.88
   0   3  -4 1780.72  169.08
   0  -3   4 1765.32  168.98
   0  -3   4 1645.34  168.98
  -1   3  -4   30.50    4.40
  -1   3  -4   33.60    5.10
   1  -3   4   30.30    4.60
   1  -3   4   25.90    4.50
  -2   3  -4  388.76   34.80
  -2   3  -4  344.17   35.00
   2  -3   4  372.56   34.90
   2  -3   4  301.87   34.60
  -3   3  -4  811.42   80.39
   3  -3   4  875.11   80.59
   3  -3   4  791.02   80.49
   4  -3   4   35.00    6.00
  -6   3  -4   72.29   24.20
  -6   3  -4   48.70    8.20
   6  -3   4   56.89    8.90
   6  -3   4   29.90   17.20
  -7   3  -4   53.59   23.90
   7  -3   4    3.20   24.00
   7  -3   4   30.60   15.80
  -8   3  -4  335.67   49.40
  -8   3  -4  429.46   37.70
   8  -3   4  286.77   45.20
  -9   3  -4    9.80    7.80
  -9   3  -4    6.10   24.00
  -9   3  -4   10.00    6.00
   9  -3   4   13.80   11.80
   9  -3   4   44.50   39.80
 -10   3  -4   39.20    9.90
 -10   3  -4   37.40    6.80
 -10   3  -4   -2.30   20.10
 -10   3  -4   36.90    7.30
  10  -3   4   50.69   14.00
  10  -3   4   16.60   33.60
 -11   3  -4   99.89   12.00
  11  -3   4   96.99   16.60
 -12   3  -4   -3.90    3.60
  12   2  -4   -2.00   14.20
 -12  -2   4   29.60   14.50
  11   2  -4   -3.80   22.00
  11   2  -4   81.69   20.40
 -11  -2   4   49.30   10.30
  10   2  -4   18.90   17.90
  10   2  -4   13.30   25.40
 -10  -2   4    4.30   14.30
 -10  -2   4   -0.40    4.40
 -10  -2   4   -1.50    3.80
 -10  -2   4    2.10    6.90
   9   2  -4  148.79   31.30
  -9  -2   4  109.49   27.30
  -9  -2   4  137.49   15.60
  -9  -2   4  167.78   17.30
   8   2  -4  -11.50   14.70
   8   2  -4   25.00   21.10
  -8  -2   4    2.10    4.00
  -8  -2   4    4.80    6.80
  -8  -2   4   17.00   14.60
  -8  -2   4   -1.80    3.30
  -7  -2   4   32.50    5.20
   6   2  -4 1866.41  165.58
  -6  -2   4 1553.64  165.98
  -6  -2   4 1691.03  165.48
  -5  -2   4   95.69   12.40
   4   2  -4   17.30    4.00
   3   2  -4  381.16   48.90
   3   2  -4  418.66   41.30
   3   2  -4  430.46   41.40
  -3  -2   4  435.66   41.10
   2   2  -4    5.20    2.60
   2   2  -4   10.10    2.60
  -2  -2   4    7.90    2.20
   1   2  -4 1413.66  126.09
   1   2  -4 1300.87  125.99
  -1  -2   4 1216.48  125.89
  -1  -2   4 1273.37  125.99
   0   2  -4 3060.89  281.67
   0   2  -4 2945.01  281.77
   0  -2   4 2986.10  281.77
   0  -2   4 2690.73  281.57
  -1   2  -4  101.99    9.70
  -1   2  -4   88.59   10.00
  -1   2  -4   97.39   11.80
   1  -2   4   88.79    9.80
   1  -2   4   74.29    9.50
  -2   2  -4  745.43   67.39
  -2   2  -4  671.23   67.49
   2  -2   4  658.43   67.39
  -3   2  -4  241.28   27.80
  -3   2  -4  293.47   27.70
   3  -2   4  293.87   27.90
  -4   2  -4   40.00    6.10
  -5   2  -4  335.97   42.10
   5  -2   4  336.47   34.80
   6  -2   4  106.89   20.20
  -7   2  -4    3.80   17.20
   7  -2   4   -1.70    8.60
   7  -2   4  -12.30   24.90
  -8   2  -4   90.69   13.00
  -8   2  -4   99.19   28.10
   8  -2   4   99.29   20.80
  -9   2  -4   19.10   21.50
   9  -2   4   19.50   32.40
 -10   2  -4    8.20    8.30
 -10   2  -4   -6.10   21.50
  10  -2   4    9.70    7.30
  10  -2   4  -14.00   26.60
 -11   2  -4  160.78   18.40
 -11   2  -4  200.28   21.70
  11  -2   4  156.88   22.00
  12   1  -4   -4.30   17.70
  12   1  -4   18.70   13.40
 -12  -1   4    9.00   13.20
 -12  -1   4   10.10    6.80
  11   1  -4   36.20   19.80
  11   1  -4   19.50   25.90
 -11  -1   4   30.20    8.70
  10   1  -4   40.30   31.40
  10   1  -4  126.09   30.00
 -10  -1   4  126.19   17.40
 -10  -1   4  120.09   26.30
   9   1  -4   -6.70   19.20
   9   1  -4   -0.40   21.20
  -9  -1   4    9.30    3.70
  -9  -1   4    3.70   14.40
  -9  -1   4   15.10    7.40
  -9  -1   4    9.90    4.70
  -8  -1   4   77.19   12.60
  -8  -1   4   65.09    9.70
  -8  -1   4   63.49    8.60
  -7  -1   4  131.59   17.20
  -7  -1   4  126.69   15.20
  -7  -1   4  120.79   14.20
  -7  -1   4  174.58   26.10
  -6  -1   4  118.59   12.30
  -6  -1   4  133.29   22.10
  -6  -1   4  119.29   14.90
  -6  -1   4   96.79   13.10
   5   1  -4   65.69    8.20
  -5  -1   4   50.69    8.90
   4   1  -4  262.47   26.30
   3   1  -4  118.19   12.80
   3   1  -4  129.09   13.10
  -3  -1   4  123.99   12.60
   2   1  -4  385.06   37.90
   2   1  -4  371.46   38.10
  -2  -1   4  400.16   37.80
   1   1  -4 1683.43  157.38
   1   1  -4 1609.04  157.38
  -1  -1   4 1591.94  157.28
   0   1  -4  110.59   10.60
   0  -1   4   90.19   10.80
  -1   1  -4   85.69    8.60
  -1   1  -4   73.49    8.70
  -1   1  -4   78.49   11.50
  -2   1  -4   15.30    2.80
  -2   1  -4   10.70    2.80
   2  -1   4    9.60    3.00
  -3   1  -4  146.49   19.70
  -3   1  -4  140.29   15.00
  -4   1  -4  682.63   66.99
  -5   1  -4   16.30   14.30
   5  -1   4    1.30    2.60
   5  -1   4    2.30    6.30
  -6   1  -4    3.40   15.50
   6  -1   4   -2.20    6.60
   6  -1   4   -0.20    2.70
  -7   1  -4  439.16   54.29
   7  -1   4  488.65   49.90
   7  -1   4  417.56   45.00
   7  -1   4  352.26   76.09
  -8   1  -4  137.09   16.00
   8  -1   4  104.39   19.00
   8  -1   4  154.38   36.60
  -9   1  -4   47.10   21.30
   9  -1   4   30.60   31.30
   9  -1   4   26.30    9.20
 -10   1  -4   -4.20   19.50
  10  -1   4    7.00    6.20
 -11   1  -4   13.30    8.50
 -11   1  -4    4.20    4.00
 -11   1  -4   11.40   17.30
  11  -1   4    6.90    5.20
  12   0  -4   12.30   20.00
  12   0  -4    5.20   15.50
 -12   0   4    4.20    3.00
 -12   0   4    2.80    6.20
 -12   0   4    2.30   12.80
  11   0  -4    7.90   21.30
  11   0  -4   10.50   27.90
 -11   0   4    2.10    3.30
 -11   0   4   11.30    6.90
 -11   0   4   -0.60   14.60
  10   0  -4   72.29   27.80
  10   0  -4   30.20   27.10
 -10   0   4  104.99   25.70
   9   0  -4  -26.80   18.90
  -9   0   4   10.20    3.90
  -9   0   4   10.60   15.60
  -9   0   4   19.60    7.50
  -8   0   4  320.17   31.80
  -8   0   4  236.78   28.40
  -8   0   4  292.57   28.10
  -7   0   4  656.63   62.39
  -7   0   4  634.94   59.79
  -7   0   4  597.04   68.79
  -7   0   4  603.74   59.79
  -7   0   4  557.24   60.19
   6   0  -4    6.60    8.60
  -6   0   4   10.60    2.70
  -6   0   4    5.30    5.20
  -6   0   4    7.20    3.00
  -6   0   4   30.20   13.90
  -6   0   4    9.90    3.70
   5   0  -4  233.98   20.30
  -5   0   4  179.88   19.80
  -5   0   4  176.78   21.60
   4   0  -4  601.84   58.69
   3   0  -4   43.70    5.50
   3   0  -4   48.20    6.10
   2   0  -4 1061.79  102.59
   2   0  -4 1056.89  102.39
   1   0  -4  347.37   33.50
   1   0  -4  334.37   33.40
   0   0  -4  172.28   18.60
   0   0  -4  199.38   18.70
   0   0  -4  213.78   22.00
   0   0   4  160.98   18.80
  -1   0  -4 1498.95  138.99
  -1   0  -4 1498.25  141.79
  -1   0  -4 1319.67  138.89
  -2   0  -4  552.64   52.99
  -2   0  -4  556.74   53.19
  -2   0  -4  515.55   56.09
  -3   0  -4   -1.90    2.40
  -4   0  -4  517.65   48.00
   4   0   4  540.55   51.79
   4   0   4  470.95   48.90
   4   0   4  422.36   47.70
  -5   0  -4   57.89   18.30
   5   0   4   41.60    7.40
   5   0   4   40.40    6.40
   5   0   4   51.89   11.10
   6   0   4  123.19   14.90
   6   0   4  134.89   16.20
   6   0   4  156.98   20.10
  -7   0  -4  321.17   43.20
   7   0   4  259.57   34.60
   7   0   4  332.17   32.90
  -8   0  -4    3.60   18.30
   8   0   4   24.10    8.80
  -9   0  -4   22.80   18.50
   9   0   4   16.70    7.60
 -11   0  -4    1.50    4.00
 -11   0  -4    0.70    7.20
 -11   0  -4   -2.60   17.20
  11   0   4   -0.70    3.90
  12  -1  -4   -2.40   17.40
  12  -1  -4   15.30   23.10
 -12   1   4   13.90    6.30
 -12   1   4   -8.90   14.90
 -12   1   4    3.90    2.70
  11  -1  -4   14.00   23.40
  11  -1  -4   17.60   28.40
 -11   1   4   12.20    7.30
 -11   1   4    4.60    3.20
 -11   1   4    5.00   16.80
  10  -1  -4  -10.50   23.70
 -10   1   4   13.10    4.00
 -10   1   4    5.50   16.90
 -10   1   4   14.60    7.60
  -9   1   4   98.59   25.90
  -9   1   4   38.40   10.50
  -9   1   4   46.20    7.30
  -9   1   4   55.49    8.20
  -8   1   4   16.60    4.40
  -8   1   4   16.10    8.10
  -8   1   4   37.30   19.00
  -8   1   4   12.30    4.20
  -7   1   4  380.46   36.90
  -7   1   4  361.96   37.00
  -7   1   4  363.96   39.30
  -6   1   4  104.09   11.50
  -6   1   4  112.19   11.50
  -6   1   4   94.79   11.80
  -6   1   4   93.19   14.00
  -5   1   4   33.20   15.40
  -5   1   4   20.80    5.60
  -5   1   4   18.00    3.70
  -5   1   4   20.20    3.50
  -4   1   4  124.29   14.70
   2  -1  -4    3.30    4.60
   1  -1  -4   89.89   13.60
   0  -1  -4    6.30    5.00
  -1  -1  -4 1090.49  111.09
  -1  -1  -4 1207.68  111.19
  -2  -1  -4   81.59    9.20
  -3  -1  -4  361.16   34.70
   3   1   4  335.17   34.50
   3   1   4  348.57   35.70
  -4  -1  -4  148.09   16.50
   4   1   4  146.59   18.60
   4   1   4  133.99   15.40
   4   1   4  156.48   17.00
   4   1   4  154.28   15.60
  -5  -1  -4   12.00   14.30
   5   1   4    1.50    2.90
   5   1   4    5.90    3.30
   5   1   4    1.00    4.20
  -6  -1  -4   56.69   22.60
   6   1   4   72.09   12.20
   6   1   4   61.89    9.70
   6   1   4   51.89    7.90
  -7  -1  -4  147.49   29.30
  -7  -1  -4  110.09   19.30
   7   1   4  146.09   19.60
   7   1   4  145.99   17.50
  -8  -1  -4  -16.70   16.50
  -8  -1  -4   40.50   16.90
   8   1   4    1.20    4.20
  -9  -1  -4    9.10   17.10
   9   1   4    0.90    4.40
 -10  -1  -4  -13.00   18.70
  10   1   4    0.40    4.30
  10   1   4    1.30    6.30
 -11  -1  -4    4.20   17.10
  11   1   4   18.30    5.50
  11   1   4    6.30    5.60
  12  -2  -4    6.80   20.50
  12  -2  -4    3.40   23.00
 -12   2   4    4.60   13.40
 -12   2   4   11.90    3.10
 -11   2   4  172.88   18.30
  10  -2  -4  -27.60   23.00
 -10   2   4    2.20   16.90
 -10   2   4    6.20    7.00
 -10   2   4    6.70    3.40
 -10   2   4    7.90    3.70
  -9   2   4   99.89   28.00
  -9   2   4  132.19   13.20
  -9   2   4   78.99   12.10
  -9   2   4  118.09   16.00
  -8   2   4   65.39    9.40
  -8   2   4   84.49   10.10
  -8   2   4   74.19   12.80
  -7   2   4   -3.10    9.50
  -7   2   4    3.50    5.10
  -7   2   4  -10.40   16.50
  -7   2   4    0.90    2.60
  -7   2   4    0.90    2.90
  -6   2   4  401.96   42.40
  -6   2   4  417.56   40.30
  -6   2   4  407.56   51.29
  -6   2   4  391.76   40.30
  -5   2   4  146.49   15.60
  -5   2   4  150.28   15.50
  -5   2   4  144.69   17.60
  -4   2   4    9.20    2.60
  -4   2   4   11.90    2.80
  -4   2   4   47.10   17.40
  -4   2   4   10.60    4.40
  -3   2   4  365.46   36.40
  -3   2   4  368.56   37.40
  -2   2   4   12.00    3.90
  -1   2   4   74.39   10.00
   0   2   4 1022.40  100.59
  -1  -2  -4   15.60    3.20
   1   2   4   15.90    3.10
   1   2   4   12.60    4.80
  -2  -2  -4  118.09   11.70
   2   2   4   89.99   14.50
   2   2   4   87.49   12.30
   2   2   4  115.39   11.50
   2   2   4  115.49   12.20
   2   2   4  115.89   12.90
   2   2   4   99.79   11.40
   3   2   4  529.95   59.09
   3   2   4  638.94   56.89
   3   2   4  528.75   57.19
   3   2   4  629.94   58.49
   3   2   4  604.24   60.09
   3   2   4  553.54   57.29
   3   2   4  562.14   56.59
  -4  -2  -4   48.40   19.20
   4   2   4   35.40    6.00
   4   2   4   42.50   10.10
   4   2   4   55.29    9.30
   4   2   4   55.69    8.00
   4   2   4   45.80    6.50
   4   2   4   40.60    7.40
  -5  -2  -4  326.87   39.60
   5   2   4  276.87   30.10
   5   2   4  286.97   32.00
   5   2   4  319.47   33.80
   5   2   4  231.08   28.10
  -6  -2  -4  214.68   38.00
   6   2   4  203.08   24.50
   6   2   4  259.57   29.10
   6   2   4  275.77   27.10
  -7  -2  -4   16.60   19.00
  -7  -2  -4   33.20   11.30
   7   2   4   33.10    7.50
   7   2   4   23.10    8.40
   7   2   4   16.90    5.00
  -8  -2  -4   81.29   13.20
  -8  -2  -4    6.40   19.00
   8   2   4   44.50   10.60
   8   2   4   53.39   13.60
   9   2   4   58.29   13.40
   9   2   4   82.19   13.10
 -10  -2  -4  -11.00   18.20
  10   2   4    1.30    5.80
  10   2   4    6.30    4.30
  12  -3  -4   11.20   23.20
 -12   3   4    6.50    3.00
  11  -3  -4  -37.80   23.50
 -11   3   4    7.70   13.10
 -10   3   4   15.70   16.30
 -10   3   4   24.80    5.30
 -10   3   4   20.40    4.50
 -10   3   4   25.30    8.00
  -9   3   4   78.19   12.80
  -8   3   4  213.88   29.90
  -8   3   4  154.28   17.80
  -8   3   4  162.58   20.70
  -7   3   4   44.10   23.30
  -7   3   4   46.30   13.90
  -7   3   4   48.00    7.30
  -7   3   4   37.60    6.40
  -7   3   4   42.10    9.10
  -6   3   4   94.49   11.00
  -6   3   4   91.29   15.50
  -6   3   4   82.09   13.20
  -6   3   4   68.49   24.40
  -6   3   4  103.29   10.90
  -5   3   4   63.09   10.50
  -5   3   4   67.99   11.60
  -5   3   4   68.29    8.60
  -5   3   4   72.39    8.50
  -4   3   4   11.30    4.40
  -4   3   4   -3.70   17.20
  -4   3   4    9.40    3.10
  -4   3   4   10.70    4.40
  -4   3   4    9.20    3.00
  -4   3   4    9.80    2.70
  -4   3   4   12.30    4.40
  -3   3   4  214.38   22.30
  -3   3   4  232.18   22.30
  -3   3   4  185.88   21.90
  -3   3   4  200.98   23.50
  -3   3   4  222.68   22.20
  -3   3   4  243.38   22.80
  -3   3   4  235.08   22.60
  -2   3   4   17.60    4.70
  -2   3   4   23.10    4.30
  -2   3   4   20.80    3.80
  -2   3   4   17.70    3.30
  -2   3   4   14.10    3.70
  -2   3   4   22.80    4.20
  -1   3   4  256.97   24.60
  -1   3   4  220.28   23.30
  -1   3   4  212.68   23.00
  -1   3   4  225.68   23.20
  -1   3   4  217.08   23.40
  -1   3   4  220.18   24.60
  -1   3   4  259.67   23.90
   0   3   4  854.61   83.79
   0   3   4  907.41   82.19
   0   3   4  831.32   81.99
   0   3   4  787.32   82.99
   0   3   4  763.72   82.29
   0   3   4  931.11   83.69
   0   3   4  808.62   82.79
   0   3   4  863.11   82.69
   1   3   4   21.70    6.10
   1   3   4   16.50    4.50
   1   3   4    7.00    5.20
   1   3   4   16.10    3.20
   1   3   4   18.40    3.30
   1   3   4   14.40    7.00
   1   3   4   12.00    5.00
   1   3   4   17.20    3.90
   1   3   4   17.10    4.20
   2   3   4  113.09   14.70
   2   3   4  141.49   14.80
   2   3   4  119.99   16.60
   2   3   4  132.59   15.50
   2   3   4  130.69   14.20
   2   3   4  148.39   14.10
   3   3   4  452.75   46.60
   3   3   4  453.85   45.90
   3   3   4  494.15   47.90
   3   3   4  421.76   48.70
   3   3   4  440.56   46.60
   3   3   4  501.25   49.80
   3   3   4  483.35   46.00
  -4  -3  -4   -8.70   16.60
   4   3   4   10.60    3.50
   4   3   4    8.30    4.00
   4   3   4    8.20    3.70
   4   3   4    7.10    3.50
   4   3   4    7.10    7.60
   4   3   4    4.90    4.80
  -5  -3  -4  115.19   26.20
   5   3   4   77.29   12.00
   5   3   4   86.99   12.20
   5   3   4   65.39   10.00
   5   3   4   90.99   12.10
   5   3   4   90.49   14.30
   5   3   4   91.69   16.40
  -6  -3  -4  100.09   26.80
   6   3   4   83.69   14.80
   6   3   4   97.59   11.20
   6   3   4   82.39   16.30
  -7  -3  -4   99.99   17.50
   7   3   4  100.79   14.40
   7   3   4  106.59   16.30
   7   3   4  114.79   19.10
  -8  -3  -4    8.60   18.00
  -8  -3  -4   20.50    9.60
   8   3   4    3.80    4.50
   8   3   4   -1.00    6.60
  -9  -3  -4   -0.50   16.40
  -9  -3  -4   18.00   10.20
   9   3   4   22.00    7.00
   9   3   4   17.30    7.30
 -10  -3  -4   -6.90   15.80
  10   3   4    2.90    5.10
  10   3   4    1.80    3.70
 -11   4   4   -5.10    4.60
 -11   4   4    7.50    3.90
 -11   4   4   -3.40    2.80
 -10   4   4   61.49    8.40
 -10   4   4   77.69   11.70
 -10   4   4   59.39    9.50
  -9   4   4    7.30    6.30
  -9   4   4   -9.00   15.30
  -9   4   4   -0.20    3.00
  -9   4   4    0.70    3.50
  -8   4   4    1.60    5.70
  -8   4   4   -0.50    3.00
  -8   4   4    5.20   11.80
  -8   4   4   -4.60    3.30
  -8   4   4  -15.10   16.30
  -7   4   4  140.39   17.70
  -7   4   4  192.48   17.90
  -6   4   4    0.50    2.80
  -6   4   4    7.20   18.20
  -6   4   4    1.90    2.90
  -6   4   4    1.60    5.50
  -6   4   4    4.20    5.00
  -5   4   4    3.30    4.60
  -5   4   4   -1.50    2.70
  -5   4   4   -1.70    3.00
  -5   4   4   -0.40    4.40
  -4   4   4  487.95   45.50
  -4   4   4  398.76   47.30
  -4   4   4  468.95   45.40
  -4   4   4  405.26   45.80
  -4   4   4  465.05   46.80
  -4   4   4  497.85   45.30
  -3   4   4    0.80    2.90
  -3   4   4   -0.40    2.60
  -3   4   4    0.80    3.40
  -3   4   4    1.90    3.80
  -3   4   4    0.40    2.20
  -3   4   4    2.90    2.40
  -3   4   4   -0.40    2.70
  -2   4   4    7.70    3.00
  -2   4   4    5.60    3.20
  -2   4   4    9.00    2.80
  -2   4   4    4.20    3.90
  -2   4   4    7.70    2.90
  -2   4   4    3.80    2.50
  -2   4   4    8.20    4.00
  -1   4   4  140.09   16.50
  -1   4   4  153.38   18.20
  -1   4   4  163.48   16.10
  -1   4   4  140.99   16.10
  -1   4   4  176.38   16.90
  -1   4   4  149.29   16.70
   0   4   4    7.60    3.70
   0   4   4   11.60    4.80
   0   4   4    5.40    4.50
   0   4   4    9.30    4.70
   0   4   4   13.70    3.30
   0   4   4   10.20    4.90
   0   4   4   10.40    2.80
   0   4   4   11.50    2.90
   0   4   4    9.40    3.50
   1   4   4  223.68   25.30
   1   4   4  187.48   25.10
   1   4   4  233.08   22.50
   1   4   4  223.58   23.10
   1   4   4  234.08   22.40
   1   4   4  212.08   23.80
   1   4   4  209.28   23.00
   2   4   4  197.18   19.20
   2   4   4  192.78   23.20
   2   4   4  158.38   19.50
   2   4   4  162.28   21.80
   2   4   4  184.18   20.80
   2   4   4  189.88   19.00
   2   4   4  180.98   19.90
   3   4   4    5.10    3.40
   3   4   4    5.40    3.00
   3   4   4    2.50    3.10
   3   4   4    1.70    5.10
   3   4   4    5.90    4.60
   3   4   4    1.60    3.20
   3   4   4    0.20    4.80
  -4  -4  -4  243.18   36.60
   4   4   4  209.38   25.30
   4   4   4  255.07   25.60
   4   4   4  255.37   26.90
   4   4   4  271.77   30.20
   4   4   4  259.37   27.80
   4   4   4  243.38   29.60
  -5  -4  -4   21.60   19.50
   5   4   4   33.50    5.80
   5   4   4   43.90   10.60
   5   4   4   27.50    9.10
   5   4   4   34.80    6.30
   5   4   4   38.50    8.30
   5   4   4   40.10    8.40
  -6  -4  -4   44.80   20.90
   6   4   4   92.19   13.90
   6   4   4   86.69   15.40
   6   4   4   51.39   12.90
   6   4   4   53.19    8.40
  -7  -4  -4  111.39   16.80
   7   4   4   99.19   16.70
   7   4   4   68.39   13.50
  -8  -4  -4   18.40   15.60
   8   4   4   31.50    8.40
  -9  -4  -4  -17.50   15.40
  -9  -4  -4    4.60    8.00
   9   4   4    5.10    4.10
   9   4   4   -1.40    5.10
 -11   5   4    1.50    2.40
 -10   5   4   32.20    7.20
 -10   5   4   36.80    5.20
 -10   5   4   22.00    5.50
  -9   5   4   36.90    6.80
  -9   5   4   38.20    8.40
  -9   5   4   38.40    6.30
  -8   5   4    9.10   12.70
  -8   5   4    1.40    3.50
  -8   5   4    1.00    3.60
  -8   5   4    2.60    5.30
  -7   5   4  110.09   20.60
  -7   5   4   82.89   11.80
  -7   5   4  110.69   12.10
  -7   5   4   91.19   13.80
  -6   5   4    2.40    3.40
  -6   5   4   -1.40    6.00
  -6   5   4    0.80    5.00
  -6   5   4    5.70    3.50
  -5   5   4   33.70    8.90
  -5   5   4   39.60    6.70
  -5   5   4   33.20    8.00
  -5   5   4   37.10    6.00
  -5   5   4   49.50    9.80
  -4   5   4  292.97   32.40
  -4   5   4  362.86   33.90
  -4   5   4  318.17   34.00
  -4   5   4  334.37   32.80
  -4   5   4  351.46   32.70
  -4   5   4  265.67   34.60
  -3   5   4    6.90    4.70
  -3   5   4    5.90    4.00
  -3   5   4    2.60    2.70
  -3   5   4    5.90    3.20
  -3   5   4    1.10    3.40
  -3   5   4    4.10    2.90
  -3   5   4   10.60    4.10
  -2   5   4   25.00    4.90
  -2   5   4   27.10    5.70
  -2   5   4   20.20    6.10
  -2   5   4   25.20    7.20
  -2   5   4   27.70    4.80
  -2   5   4   33.60    5.60
  -2   5   4   33.00    5.70
  -1   5   4  263.67   27.60
  -1   5   4  209.88   29.20
  -1   5   4  266.97   27.20
  -1   5   4  289.47   27.50
  -1   5   4  244.58   29.00
  -1   5   4  280.97   27.00
  -1   5   4  274.17   26.80
   0   5   4   20.70    7.80
   0   5   4   18.60    6.90
   0   5   4   18.20    5.00
   0   5   4   21.80    4.50
   0   5   4   26.20    5.40
   0   5   4   17.80    6.70
   0   5   4   28.40    4.70
   1   5   4   26.70    4.80
   1   5   4   22.00    5.40
   1   5   4   21.20    4.40
   1   5   4   18.10    6.70
   1   5   4   28.60    5.70
   1   5   4   35.40    9.60
   1   5   4   16.20    6.70
   2   5   4  167.68   17.40
   2   5   4  142.19   16.80
   2   5   4  181.78   22.00
   2   5   4  149.79   20.50
   2   5   4  158.58   19.10
   2   5   4  153.98   18.00
  -3  -5  -4  112.19   27.60
   3   5   4  125.69   14.00
   3   5   4   90.69   14.10
   3   5   4   81.69   16.30
   3   5   4  103.19   12.40
   3   5   4  125.79   13.00
   3   5   4  121.09   16.70
  -4  -5  -4  323.27   44.90
   4   5   4  349.07   34.70
   4   5   4  294.77   32.80
   4   5   4  320.07   33.10
   4   5   4  334.87   37.50
  -5  -5  -4   -1.80   18.00
   5   5   4   24.50    6.10
   5   5   4   19.30    8.30
   5   5   4   23.80    8.20
   5   5   4   27.50    7.60
   5   5   4   22.60    5.20
  -6  -5  -4    3.30   17.40
  -6  -5  -4   25.70    9.30
   6   5   4   28.60    9.50
   6   5   4   32.10    9.60
   6   5   4   27.60    5.30
   6   5   4   20.90    8.70
  -7  -5  -4   43.50   10.00
  -7  -5  -4   19.10   16.50
   7   5   4   42.80   10.60
  -8  -5  -4   -0.30   16.50
  -8  -5  -4   30.70    8.00
   8   5   4    7.40    6.40
   8   5   4   21.20    6.40
 -10   6   4   15.40    3.90
 -10   6   4   16.70    4.60
  -9   6   4    1.80    3.20
  -9   6   4   -5.80    4.10
  -9   6   4    6.00    4.70
  -8   6   4   77.69   11.90
  -8   6   4   61.29   10.80
  -8   6   4   88.39   19.70
  -8   6   4   71.39    9.60
  -7   6   4   -3.70    4.00
  -7   6   4    1.40    5.00
  -7   6   4    2.40    8.90
  -7   6   4   -3.20    3.60
  -6   6   4   17.60    8.70
  -6   6   4   12.20    4.70
  -6   6   4   11.50    5.20
  -6   6   4   17.00    6.30
  -5   6   4   44.60   10.80
  -5   6   4   45.30   10.80
  -5   6   4   49.30    7.40
  -5   6   4   46.60    9.20
  -5   6   4   45.10    8.00
  -4   6   4   27.10    7.60
  -4   6   4   27.90    5.70
  -4   6   4   31.50    8.30
  -4   6   4   26.60    6.50
  -4   6   4   38.40    8.50
  -4   6   4   44.50    7.40
  -3   6   4   15.80    6.70
  -3   6   4   15.50    5.30
  -3   6   4   14.90    6.20
  -3   6   4   11.30    4.30
  -3   6   4   20.90    5.80
  -3   6   4   23.20    5.00
  -3   6   4   19.80    4.70
  -2   6   4   10.70    4.70
  -2   6   4   10.20    4.30
  -2   6   4   13.20    3.80
  -2   6   4   10.80    3.90
  -2   6   4   15.20    6.00
  -2   6   4    8.10    6.10
  -2   6   4   14.20    4.10
  -1   6   4    0.50    4.00
  -1   6   4    4.90    3.10
  -1   6   4    7.00    6.20
  -1   6   4    5.10    2.70
  -1   6   4    5.30    3.30
   0   6   4  219.28   25.70
   0   6   4  191.38   21.20
   0   6   4  197.68   21.90
   1   6   4   -2.40    4.80
   1   6   4    0.80    4.20
   1   6   4    1.70    2.40
   1   6   4    2.10    2.90
   1   6   4    3.60    2.60
   2   6   4   63.49   12.10
   2   6   4   48.50    9.20
   2   6   4   61.29    8.60
   2   6   4   52.59   12.50
   2   6   4   50.89    7.70
   3   6   4   43.90    9.20
   3   6   4   54.09   12.20
   3   6   4   63.89    9.20
   3   6   4   60.19    8.30
   3   6   4   69.89   12.70
   4   6   4    3.80    3.40
   4   6   4   11.40    6.20
   4   6   4    1.80    6.00
   4   6   4    9.30    4.80
   4   6   4    5.30    4.40
  -5  -6  -4    3.20    6.80
   5   6   4   -1.00    5.20
   5   6   4   -1.20    3.00
   5   6   4   -1.80    5.70
   5   6   4    0.40    4.10
   5   6   4    3.10    5.10
  -6  -6  -4  129.89   17.70
   6   6   4  151.88   18.70
   6   6   4  114.59   18.30
   6   6   4   86.79   17.70
  -7  -6  -4   10.90    7.00
   7   6   4   13.60    5.70
   7   6   4    2.10    5.80
   8   6   4   16.40    5.90
  -9   7   4    7.40    4.50
  -9   7   4    2.30    4.00
  -8   7   4   33.60    7.20
  -8   7   4   30.30    6.50
  -8   7   4   25.50    4.70
  -7   7   4   -0.50    3.10
  -7   7   4    2.00   10.00
  -7   7   4   -4.90    5.00
  -7   7   4    1.40    5.10
  -6   7   4   71.09   12.30
  -6   7   4   89.59   12.40
  -6   7   4   90.19   16.20
  -6   7   4   73.09   10.40
  -5   7   4  139.59   20.10
  -5   7   4  160.18   19.10
  -5   7   4  154.28   18.10
  -5   7   4  146.09   16.80
  -5   7   4  155.08   21.00
  -4   7   4   -4.80    4.10
  -4   7   4   -4.20    5.00
  -4   7   4    2.30    5.80
  -4   7   4    2.10    4.60
  -4   7   4    7.30    6.10
  -3   7   4   26.30    8.10
  -3   7   4   21.30    5.00
  -3   7   4   21.60    7.70
  -3   7   4   22.00    6.20
  -3   7   4   22.40    6.40
  -3   7   4   29.00    6.20
  -2   7   4   35.20    6.70
  -2   7   4   33.40    7.30
  -2   7   4   47.20   10.20
  -2   7   4   34.00    9.80
  -2   7   4   46.20    7.10
  -1   7   4   17.70    4.80
  -1   7   4   35.10    9.20
  -1   7   4   14.70    6.30
  -1   7   4   16.50    4.80
  -1   7   4   12.50    4.10
   0   7   4   82.29   10.10
   0   7   4   56.89    8.50
   0   7   4   73.09   12.90
   0   7   4   61.29    9.40
   1   7   4   31.10    6.50
   1   7   4   45.20   11.30
   1   7   4   36.50    6.70
   1   7   4   41.10    7.80
   2   7   4  131.49   14.50
   2   7   4  106.79   15.20
   2   7   4  138.99   19.20
   2   7   4  120.99   14.90
   2   7   4  127.49   18.80
   3   7   4  417.96   43.50
   3   7   4  356.66   38.50
   3   7   4  394.46   40.20
   3   7   4  368.26   38.30
   3   7   4  354.46   42.30
  -4  -7  -4   16.40    8.10
   4   7   4    8.10    5.50
   4   7   4    7.00    3.80
   4   7   4   11.10    6.60
   4   7   4   14.50    5.80
   4   7   4   15.60    7.00
  -5  -7  -4    1.00    6.90
   5   7   4    4.20    3.70
   5   7   4    6.90    5.20
   5   7   4    4.80    5.30
   5   7   4    2.20    4.60
   5   7   4    2.00    7.10
  -6  -7  -4   73.49   12.00
   6   7   4   74.79   12.40
  -7   8   4    3.70    5.30
  -7   8   4    2.90    5.00
  -7   8   4   -2.20   11.30
  -6   8   4    6.20    8.50
  -6   8   4    3.30    5.30
  -6   8   4    3.40    5.90
  -5   8   4   18.00    7.30
  -5   8   4   14.90    8.20
  -5   8   4   36.90   10.40
  -5   8   4   27.30    7.20
  -4   8   4   36.10    9.30
  -4   8   4   34.90    8.30
  -4   8   4   27.40    8.00
  -4   8   4   13.00    9.40
  -3   8   4   -3.90    4.40
  -3   8   4    4.20    4.60
  -3   8   4    1.50    3.50
  -3   8   4    2.70    4.70
  -3   8   4    2.00    6.10
  -2   8   4    0.90    4.60
  -2   8   4    5.40    6.80
  -2   8   4   -1.70    3.80
  -2   8   4    1.30    3.40
  -2   8   4   -1.70    4.30
  -1   8   4   81.99   14.30
  -1   8   4  100.49   12.00
  -1   8   4   75.39   11.00
  -1   8   4   97.19   11.90
   0   8   4   52.29    8.20
   0   8   4   32.00    8.60
   0   8   4   34.00    7.00
   0   8   4   37.70    7.60
   1   8   4   34.30    6.80
   1   8   4   25.20    8.20
   1   8   4   36.50    6.50
   1   8   4   24.60    6.50
  -2  -8  -4    4.80    7.60
   2   8   4    2.70    5.50
   2   8   4    1.90    4.10
   2   8   4    7.10    4.40
   2   8   4    6.50    3.70
  -3  -8  -4    8.40    7.00
   3   8   4    0.30    3.30
   3   8   4    1.70    4.70
   3   8   4    2.70    4.60
   3   8   4    4.60    4.90
  -4  -8  -4   61.49   10.20
   4   8   4   40.10    7.10
   4   8   4   33.30    8.30
   4   8   4   61.19    9.80
   4   8   4   36.30    9.40
  -5  -8  -4   15.10    6.80
   5   8   4   12.90    6.00
  -5   9   4   11.80    7.30
  -4   9   4   56.99   11.40
  -3   9   4   28.40    7.50
  -3   9   4   37.50    8.90
  -3   9   4   34.20    7.80
  -2   9   4    5.30    4.70
  -2   9   4    7.50    5.30
  -2   9   4    0.00    4.30
  -2   9   4    6.30    5.30
  -1   9   4   90.79   12.50
  -1   9   4  105.59   13.30
  -1   9   4   73.99   13.30
  -1   9   4   88.59   11.90
   0   9   4   29.70    7.50
   0   9   4   41.30    7.30
   0   9   4   26.20    7.90
   0   9   4   37.30    7.50
   1   9   4   37.30    8.70
   1   9   4   51.99    8.90
   1   9   4   53.99    8.40
   1   9   4   31.80    8.20
   2   9   4   98.29   13.30
   2   9   4  131.39   14.50
   2   9   4   76.79   13.10
   2   9   4   99.59   12.30
   3   9   4    5.80    4.60
   3   9   4    4.50    4.60
   3   9   4   -5.10    6.20
   0 -14   5    2.10    8.50
   1 -14   5   26.80    9.00
  -4 -13   5    9.60    5.40
   3  13  -5   86.39   13.40
  -3 -13   5   82.19   16.10
   2  13  -5   73.79   10.20
  -2 -13   5   63.69   11.30
  -2 -13   5   45.80   14.70
   1  13  -5   89.69   11.10
  -1 -13   5   39.70   15.40
  -1 -13   5   70.99   12.00
   0  13  -5    7.10    4.80
   0 -13   5   -0.50    5.80
   0 -13   5   -3.10    9.30
  -1  13  -5   -2.80    4.40
   1 -13   5   -1.00    7.80
  -2  13  -5  152.38   18.50
  -3  13  -5    5.30    5.40
   3 -13   5    6.50    7.00
   4 -13   5    1.10    5.60
   5 -13   5    1.20   10.70
   5  12  -5   28.10    8.00
  -5 -12   5    7.20    5.40
   4  12  -5   18.90    6.90
  -4 -12   5   13.40   10.10
  -4 -12   5   15.50    7.30
   3  12  -5  104.39   14.20
   3  12  -5   81.99   12.70
  -3 -12   5   68.79   14.40
   2  12  -5    2.60    4.20
   2  12  -5   -1.00    6.50
  -2 -12   5   -1.70    6.80
   1  12  -5   28.10    7.10
   1  12  -5   26.60    8.20
  -1 -12   5   17.70    8.40
   0  12  -5   60.09    9.80
   0 -12   5   42.60   10.50
  -1  12  -5    4.20    4.30
   1 -12   5   -2.00    7.60
   1 -12   5    7.40    9.80
  -2  12  -5   47.10    9.00
   2 -12   5   27.60   12.10
  -3  12  -5    5.00    5.60
  -3  12  -5    9.40    6.90
   3 -12   5   -0.70    7.50
  -4  12  -5    2.10    4.50
  -4  12  -5    0.80    6.90
  -4  12  -5   -0.20    5.70
   4 -12   5   -9.40    6.40
  -5  12  -5  131.99   20.70
  -5  12  -5  155.18   16.30
   5 -12   5   91.99   18.70
  -6  12  -5   -1.50   10.60
  -6  12  -5   16.40    5.60
   6 -12   5  -12.30   13.00
  -7  12  -5   10.30    5.00
   7 -12   5    3.10   13.00
   7  11  -5    5.60    7.30
  -7 -11   5   12.30    4.10
  -7 -11   5    4.80    5.20
   6  11  -5    4.60    6.70
  -6 -11   5    4.30    5.20
  -6 -11   5    5.80    4.40
   5  11  -5  116.09   15.60
   4  11  -5    9.90    6.20
   4  11  -5   17.20    7.60
  -4 -11   5   10.70    6.90
   3  11  -5    2.90    5.00
   3  11  -5    0.20    5.70
  -3 -11   5   -4.00    6.30
   2  11  -5  179.38   21.70
   2  11  -5  206.78   21.90
  -2 -11   5  129.49   22.70
   1  11  -5    3.90    7.00
   1  11  -5    6.10    4.70
  -1 -11   5   -0.30    7.20
   0  11  -5   62.09   11.30
   0  11  -5   74.79   12.90
   0 -11   5   73.29   13.10
  -1  11  -5  149.79   18.90
  -2  11  -5    4.10    5.50
  -2  11  -5    0.10    4.10
  -2  11  -5   -1.40    4.60
   2 -11   5    1.90    7.80
  -3  11  -5    9.40    5.00
  -3  11  -5   10.30    5.60
  -3  11  -5   18.90    6.90
   3 -11   5    1.90    7.90
  -4  11  -5   53.69   10.00
  -4  11  -5   88.59   14.10
  -4  11  -5   53.79   12.10
   4 -11   5   26.30   11.60
  -5  11  -5    6.90    9.20
  -5  11  -5    1.70    4.70
   5 -11   5    0.30    6.60
  -6  11  -5   59.59    9.60
  -6  11  -5   50.79   15.70
   6 -11   5   31.40   11.00
  -7  11  -5   32.50    7.50
  -7  11  -5   16.00   12.80
  -7  11  -5   15.80    7.30
   7 -11   5   -4.40   15.70
  -8  11  -5   11.80    4.40
  -8  11  -5   -2.10    4.20
   8 -11   5    6.90   15.10
   8  10  -5   66.79   11.90
  -8 -10   5   46.40    8.00
   7  10  -5   10.20    7.90
  -7 -10   5    8.30    4.40
  -7 -10   5    2.10    5.30
   6  10  -5   -2.30    5.60
   6  10  -5   -2.40    6.60
  -6 -10   5   -0.70    5.80
  -6 -10   5   -1.90    4.50
   5  10  -5  265.17   29.50
   5  10  -5  235.48   28.80
  -5 -10   5  262.77   27.60
   4  10  -5  272.97   31.20
   4  10  -5  278.27   31.30
  -4 -10   5  280.27   29.60
   3  10  -5   32.60    8.50
   3  10  -5   36.30    9.20
  -3 -10   5   16.30    8.30
   2  10  -5  233.48   26.40
   2  10  -5  244.38   26.30
  -2 -10   5  187.58   26.90
   1  10  -5   -1.20    6.00
   1  10  -5    1.20    4.20
  -1 -10   5    3.80    6.60
   0  10  -5   43.10   10.10
   0  10  -5   62.79   13.20
   0 -10   5   48.60   11.30
  -1  10  -5  821.02   75.29
  -1  10  -5  728.53   75.89
   1 -10   5  691.33   76.19
  -2  10  -5    0.40    4.10
  -2  10  -5    4.40    4.90
  -2  10  -5    3.20    5.00
   2 -10   5    3.60    6.70
  -3  10  -5   65.49   11.90
  -3  10  -5   32.90    8.60
  -3  10  -5   66.99   11.00
   3 -10   5   36.70   12.60
  -4  10  -5  425.76   43.30
  -4  10  -5  331.67   41.40
  -4  10  -5  414.56   41.20
  -5  10  -5    1.80    6.10
  -5  10  -5    1.20    3.50
  -5  10  -5    8.30    9.40
  -5  10  -5   11.10    9.10
   5 -10   5   -2.10    6.50
  -6  10  -5    2.70    6.10
  -6  10  -5   10.80   12.60
  -6  10  -5    7.70    4.80
   6 -10   5    1.70    6.90
   6 -10   5   -7.00   11.50
  -7  10  -5   48.50   17.20
  -7  10  -5   41.40    8.20
  -7  10  -5   62.49   10.60
  -8  10  -5    2.60    4.50
  -8  10  -5   12.70    4.50
   8 -10   5   11.80   18.40
  -9  10  -5   47.50    8.10
  -9  10  -5   33.20    5.70
   9 -10   5    0.10   15.00
   9   9  -5   54.99   11.50
  -9  -9   5   35.40    6.20
   8   9  -5   18.60    9.20
  -8  -9   5   16.20    5.00
   7   9  -5   -4.40    6.50
   7   9  -5    1.40    7.60
  -7  -9   5    4.70    5.90
  -7  -9   5    0.70    4.60
   6   9  -5   46.90   10.50
   6   9  -5   50.39   11.90
  -6  -9   5   24.40    9.40
  -6  -9   5   48.40    8.30
   5   9  -5  239.28   29.60
   5   9  -5  259.77   29.70
  -5  -9   5  270.37   27.80
   4   9  -5    5.50    6.10
   4   9  -5    2.20    5.80
  -4  -9   5    3.70    6.60
  -4  -9   5    1.30    4.70
   3   9  -5  181.88   19.20
   3   9  -5  148.09   18.70
  -3  -9   5  136.49   17.10
  -3  -9   5  115.19   19.00
   2   9  -5   42.20    9.50
   2   9  -5   39.10    8.90
  -2  -9   5   41.90   10.50
   1   9  -5   56.39   11.30
   1   9  -5   52.09   10.90
  -1  -9   5   45.10   10.70
   0   9  -5  358.26   36.40
   0   9  -5  319.87   36.30
   0   9  -5  313.97   34.80
   0  -9   5  339.67   36.90
  -1   9  -5   26.00    7.50
  -1   9  -5   21.30    6.50
  -1   9  -5   24.80    8.70
   1  -9   5   19.90    7.50
  -2   9  -5  149.79   17.90
  -2   9  -5  132.79   18.70
  -2   9  -5  168.08   17.60
   2  -9   5  113.49   20.20
   2  -9   5  132.29   22.80
  -3   9  -5    2.60    4.40
  -3   9  -5    9.40    5.70
  -3   9  -5   10.20    4.90
   3  -9   5    2.00    6.60
  -4   9  -5   84.59   12.20
  -4   9  -5   88.09   13.00
  -4   9  -5   92.79   15.00
  -4   9  -5   82.69   11.60
   4  -9   5   48.80   15.00
  -5   9  -5  108.99   16.20
  -5   9  -5  111.39   20.20
  -5   9  -5  121.79   14.50
  -6   9  -5   73.39   18.70
  -6   9  -5   40.30    9.20
  -6   9  -5   61.89    9.90
   6  -9   5   40.20   12.70
  -7   9  -5   -0.20    3.80
  -7   9  -5   -1.40    4.50
  -7   9  -5    4.00   13.70
   7  -9   5  -10.50   13.80
  -8   9  -5  107.69   14.70
  -8   9  -5  116.29   14.80
  -9   9  -5   -2.10    4.50
  -9   9  -5   -1.90    4.60
   9  -9   5   17.10   18.80
 -10   9  -5   -0.10    4.00
  10  -9   5   11.80   12.90
  10   8  -5    0.10    8.30
 -10  -8   5   -2.60    3.20
   9   8  -5  114.49   17.70
  -9  -8   5  112.99   13.70
   8   8  -5    1.10    7.90
   8   8  -5   16.90    9.30
  -8  -8   5   -0.70    4.60
   7   8  -5   81.59   15.10
   6   8  -5  334.87   40.10
   6   8  -5  348.27   40.10
  -6  -8   5  391.66   37.60
   5   8  -5  171.08   22.60
   5   8  -5  169.68   22.00
  -5  -8   5  176.98   20.00
   4   8  -5  137.69   17.60
   4   8  -5  127.59   16.90
  -4  -8   5  114.49   15.20
  -4  -8   5  114.29   17.20
   3   8  -5  531.85   51.79
   3   8  -5  482.65   51.19
  -3  -8   5  559.64   53.09
  -3  -8   5  417.46   49.30
   2   8  -5    3.10    4.90
   2   8  -5    4.70    4.20
  -2  -8   5    2.90    5.20
   1   8  -5  376.56   38.10
   1   8  -5  308.27   37.80
   1   8  -5  369.06   37.60
  -1  -8   5  388.46   39.00
   0   8  -5  835.02   97.19
   0   8  -5 1031.20   96.89
   0   8  -5 1039.10   97.89
   0  -8   5 1022.60   98.29
  -1   8  -5   19.10    8.30
  -1   8  -5   30.30    7.30
  -1   8  -5   26.90    6.60
   1  -8   5   26.80    7.70
  -2   8  -5  396.26   37.80
  -2   8  -5  369.26   38.30
   2  -8   5  335.67   38.40
   2  -8   5  329.87   40.90
  -3   8  -5  458.45   43.40
  -3   8  -5  439.66   43.80
  -3   8  -5  362.56   42.30
  -3   8  -5  434.16   44.30
   3  -8   5  388.16   46.80
  -4   8  -5    8.70    4.80
  -4   8  -5   11.60    6.10
  -4   8  -5    2.90    4.40
  -4   8  -5    9.50    4.70
   4  -8   5    6.00    7.50
  -5   8  -5  179.18   25.50
  -5   8  -5  183.08   20.30
  -5   8  -5  175.68   22.20
  -6   8  -5   60.69   18.00
  -6   8  -5   30.20    7.60
   6  -8   5   52.99   13.60
  -7   8  -5   -7.40   13.00
  -7   8  -5    2.70    4.20
  -7   8  -5    2.90    3.60
   7  -8   5    3.60   14.10
  -8   8  -5  223.68   25.30
  -8   8  -5  245.08   26.60
  -9   8  -5    7.30    5.30
   9  -8   5   85.59   39.20
   9  -8   5    0.30   19.00
 -10   8  -5    3.60    4.70
  10  -8   5   11.80   32.90
  10  -8   5   10.10   15.30
  10   7  -5    4.30    9.20
 -10  -7   5    9.80    3.90
   9   7  -5   -5.40    8.50
   9   7  -5   22.40   10.70
  -9  -7   5   10.30    4.60
   8   7  -5    3.20   11.00
   8   7  -5   14.00    8.90
  -8  -7   5    2.40    4.90
   7   7  -5    1.50    9.20
   7   7  -5    3.80    9.00
  -7  -7   5    5.20    4.50
  -7  -7   5   -0.10    6.00
   6   7  -5  787.52   78.49
   6   7  -5  693.53   76.99
  -6  -7   5  773.82   74.79
   5   7  -5   14.00    7.60
   5   7  -5   12.80    8.30
  -5  -7   5   15.20    5.30
  -5  -7   5    7.20    6.60
   4   7  -5   24.20    7.90
   4   7  -5   24.90    7.70
  -4  -7   5   21.90    5.50
  -4  -7   5   20.00    6.90
   3   7  -5  299.37   29.50
   3   7  -5  239.18   28.40
  -3  -7   5  223.08   26.70
  -3  -7   5  289.07   29.70
   2   7  -5  132.39   15.80
   2   7  -5  153.78   16.80
   2   7  -5  102.59   15.40
  -2  -7   5  105.49   13.40
  -2  -7   5  127.89   15.70
   1   7  -5    2.60    5.50
   1   7  -5    4.20    4.30
   1   7  -5    2.40    5.10
  -1  -7   5   12.00    4.40
  -1  -7   5    4.30    4.50
   0   7  -5  122.79   13.80
   0   7  -5  100.09   13.10
   0   7  -5   78.39   14.10
   0  -7   5  119.09   14.00
   0  -7   5   85.59   12.30
  -1   7  -5   38.40    7.50
  -1   7  -5   24.70    8.60
  -1   7  -5   37.00    7.60
   1  -7   5   17.60    5.80
   1  -7   5   31.20    8.00
  -2   7  -5  217.78   23.60
  -2   7  -5  215.08   23.20
   2  -7   5  206.48   22.90
   2  -7   5  189.98   26.10
   2  -7   5  210.58   24.10
  -3   7  -5   76.79   10.30
  -3   7  -5   78.29   11.20
   3  -7   5   57.39   13.50
  -4   7  -5  234.58   26.00
  -4   7  -5  205.98   24.30
  -4   7  -5  237.78   27.80
  -4   7  -5  254.57   25.50
  -5   7  -5    7.90    3.90
  -5   7  -5   -0.50    8.40
  -5   7  -5    9.50    4.00
  -5   7  -5    8.80    5.20
   5  -7   5    6.30    7.40
  -6   7  -5    9.60    4.40
  -6   7  -5   10.70    4.60
  -6   7  -5    4.30   11.70
   6  -7   5   -0.60   11.00
   6  -7   5    8.50    8.30
  -7   7  -5   23.90    5.80
  -7   7  -5   19.00    5.20
  -7   7  -5   20.00    5.90
   7  -7   5   -8.70   14.70
   7  -7   5    5.60    7.30
  -8   7  -5   18.80    6.30
  -8   7  -5    9.20    4.70
  -8   7  -5   15.40    5.90
   8  -7   5   22.40   22.00
  -9   7  -5    1.30    4.10
  -9   7  -5    3.10    4.80
  -9   7  -5    3.70    5.30
   9  -7   5    8.60   19.30
   9  -7   5   31.70   40.90
 -10   7  -5    6.60    4.00
 -10   7  -5    7.50    5.30
  10  -7   5   17.90   16.20
  10  -7   5   22.80   41.90
 -11   7  -5   53.19    7.90
  11  -7   5   29.60   11.70
  11   6  -5   15.10    8.80
 -11  -6   5   -7.00    3.30
  10   6  -5  134.39   18.20
 -10  -6   5   94.59   13.10
   9   6  -5   73.99   16.40
  -9  -6   5   80.89   11.10
   8   6  -5  230.38   33.50
   8   6  -5  285.47   32.30
  -8  -6   5  259.37   28.40
   7   6  -5   95.79   16.70
   7   6  -5  112.19   20.50
  -7  -6   5   84.49   12.40
   6   6  -5    5.80   10.40
   6   6  -5   -2.40    6.80
  -6  -6   5    4.40    4.00
  -6  -6   5    2.00    5.50
   5   6  -5  374.56   40.00
   5   6  -5  372.16   42.00
  -5  -6   5  300.37   39.60
  -5  -6   5  439.76   38.60
   4   6  -5  186.88   22.50
   4   6  -5  223.18   24.70
  -4  -6   5  201.78   21.30
  -4  -6   5  179.58   23.00
   3   6  -5   -0.30    4.80
   3   6  -5    2.20    5.40
  -3  -6   5    1.00    4.50
  -3  -6   5    2.90    3.20
   2   6  -5  575.94   59.99
  -2  -6   5  642.54   60.39
  -2  -6   5  545.95   58.49
   1   6  -5 1031.20  100.29
  -1  -6   5  909.21   97.39
  -1  -6   5 1053.09   99.39
   0  -6   5   11.70    4.30
   1  -6   5  625.04   73.49
   1  -6   5  798.72   70.49
  -2   6  -5   61.79    9.20
   2  -6   5   44.40   11.60
   2  -6   5   62.59    8.60
  -3   6  -5    7.60    4.90
  -3   6  -5   10.90    4.30
   3  -6   5    4.20    6.20
   3  -6   5    0.70    4.50
  -4   6  -5  540.15   49.80
  -4   6  -5  468.25   52.29
  -4   6  -5  504.55   50.19
   4  -6   5  427.96   52.79
  -5   6  -5   -8.60    7.80
  -5   6  -5    2.20    5.30
  -5   6  -5    3.50    3.60
   5  -6   5   -1.80    6.10
   5  -6   5   -3.90    8.80
  -6   6  -5   39.70    7.20
  -6   6  -5   40.00    7.90
   6  -6   5   40.40   11.10
  -7   6  -5  190.18   20.20
  -7   6  -5  157.58   19.50
   7  -6   5  162.68   21.60
  -8   6  -5   14.00    4.70
  -8   6  -5   11.00    5.20
  -8   6  -5   20.90    6.60
   8  -6   5    4.50   15.90
   8  -6   5   32.90   38.20
  -9   6  -5    3.90    5.20
  -9   6  -5    6.70    4.20
  -9   6  -5    2.20    5.90
   9  -6   5   13.30   17.80
   9  -6   5   62.29   41.80
 -10   6  -5   70.39   10.60
 -10   6  -5   77.89   11.70
  10  -6   5  111.99   24.70
 -11   6  -5   -7.20    4.50
 -11   6  -5    0.50    3.70
  11  -6   5    1.80    8.20
  11   5  -5  -19.90    9.70
  11   5  -5   -0.10    9.10
 -11  -5   5    1.50   13.30
 -11  -5   5   -1.20    3.60
  10   5  -5   89.39   16.90
 -10  -5   5   48.80   18.50
 -10  -5   5   84.49   10.90
   9   5  -5   77.89   16.50
  -9  -5   5   68.29   10.60
  -9  -5   5   76.69   21.00
   8   5  -5   53.39   19.80
   8   5  -5   88.79   16.50
  -8  -5   5   87.19   11.50
  -8  -5   5   66.99   21.40
   7   5  -5  592.04   63.29
  -7  -5   5  596.54   67.89
  -7  -5   5  619.54   60.79
   6   5  -5    3.60    7.30
   6   5  -5    2.90   12.20
  -6  -5   5    8.40   13.60
  -6  -5   5    1.30    3.90
  -6  -5   5   -3.40    4.90
   5   5  -5   33.70   13.80
   5   5  -5   56.09   11.10
  -5  -5   5  100.09   30.90
  -5  -5   5   59.39    8.70
   4   5  -5   -9.80    8.80
   4   5  -5   11.60    8.10
   4   5  -5   17.40    7.10
  -4  -5   5   13.10    3.90
  -4  -5   5    6.90    5.10
   3   5  -5   36.40    9.80
  -3  -5   5   48.10    8.30
   2   5  -5 1595.64  155.28
  -2  -5   5 1601.14  155.28
   1   5  -5  402.56   49.10
   1   5  -5  429.86   41.70
  -1  -5   5  418.46   41.90
   0   5  -5   95.99   11.70
   0  -5   5  115.39   12.10
  -1   5  -5  628.74   59.99
   1  -5   5  579.24   59.49
   2  -5   5   12.10    3.90
  -3   5  -5  314.47   29.00
   3  -5   5  227.18   31.10
  -4   5  -5  340.37   34.40
   4  -5   5  322.77   37.40
  -5   5  -5   31.80    6.50
   5  -5   5   34.40    9.70
  -6   5  -5   -1.20    3.40
   6  -5   5   -7.10   10.30
   6  -5   5   -2.70    4.50
  -7   5  -5  130.09   16.60
  -7   5  -5  158.58   17.30
   7  -5   5  132.39   18.10
  -8   5  -5   47.40    8.40
  -8   5  -5   67.59   10.70
   8  -5   5   11.90   16.20
   8  -5   5   23.80   39.60
  -9   5  -5    1.10    4.90
   9  -5   5    6.70   14.20
 -10   5  -5   72.49   10.40
 -10   5  -5   53.69    8.80
  10  -5   5   70.19   19.10
 -11   5  -5   13.60    5.60
 -11   5  -5   17.70    4.70
  11  -5   5   16.50    9.60
  11   4  -5   78.69   15.40
 -11  -4   5   47.30    7.80
 -11  -4   5   26.80   15.80
  10   4  -5   22.10   17.70
  10   4  -5    5.20   10.10
 -10  -4   5    6.10   15.10
 -10  -4   5   -6.10    7.60
 -10  -4   5    3.20    4.00
   9   4  -5  205.18   27.90
  -9  -4   5  185.68   24.20
  -9  -4   5  240.98   33.60
  -9  -4   5  187.58   22.00
   8   4  -5   15.40   18.80
   8   4  -5   47.70   14.50
  -8  -4   5   47.00   19.10
  -8  -4   5   30.90    9.10
  -8  -4   5   41.10    7.70
   7   4  -5  144.09   22.70
  -7  -4   5  155.18   26.80
  -7  -4   5  128.99   18.30
  -7  -4   5  160.18   17.30
   6   4  -5  420.86   49.60
  -6  -4   5  457.05   46.70
  -6  -4   5  511.95   53.69
   5   4  -5   39.20   11.50
  -5  -4   5   58.59   15.70
  -5  -4   5   44.60    7.30
   4   4  -5   -4.00    7.20
   4   4  -5    6.00    4.90
  -4  -4   5   -0.10    3.20
   3   4  -5  701.83   69.09
   2   4  -5   17.30    4.20
   2   4  -5   12.60   18.00
  -2  -4   5   11.70    3.60
   1   4  -5   26.20   13.50
   1   4  -5   28.50    4.90
   1   4  -5   23.90    5.20
  -1  -4   5   32.10    5.50
   0   4  -5 1219.88  123.69
   0   4  -5 1357.26  123.59
   0   4  -5 1288.47  128.49
   0  -4   5 1220.98  123.59
  -1   4  -5   34.00    6.70
  -1   4  -5   27.50    4.80
   1  -4   5   32.00    5.20
   1  -4   5   23.70    5.30
  -2   4  -5  316.47   29.40
   2  -4   5  263.77   29.30
  -4   4  -5   23.30    5.20
   4  -4   5    5.80    8.40
   4  -4   5   33.60    7.90
  -5   4  -5   81.19   11.30
   5  -4   5   94.49   13.20
  -6   4  -5  414.86   41.70
  -6   4  -5  393.06   50.89
   6  -4   5  400.76   42.50
  -7   4  -5   73.89   25.40
   7  -4   5    6.00   15.20
   7  -4   5   27.70    7.20
  -8   4  -5    7.80   22.70
  -8   4  -5   27.70    5.90
   8  -4   5    9.10   13.90
  -9   4  -5   51.79    8.80
  -9   4  -5   -4.40   25.20
   9  -4   5   34.80   16.00
 -10   4  -5   20.80    5.10
 -10   4  -5   12.60    5.80
 -10   4  -5    9.70   21.00
  10  -4   5   18.70   11.00
 -11   4  -5  126.39   14.00
 -11   4  -5  120.99   15.70
  11  -4   5  116.09   18.50
  12   3  -5   23.80   12.40
 -12  -3   5    7.50   12.20
  11   3  -5   22.10   17.80
 -11  -3   5   67.29   10.00
 -11  -3   5   94.19   13.10
 -11  -3   5   42.70   17.50
  10   3  -5    3.70   12.10
  10   3  -5   18.40   23.10
 -10  -3   5    0.10    4.20
 -10  -3   5    2.30    7.20
 -10  -3   5    8.70   14.40
   9   3  -5  180.78   29.10
  -9  -3   5  175.38   19.80
  -9  -3   5  154.08   29.70
  -9  -3   5  192.88   22.10
   8   3  -5  150.28   25.80
  -8  -3   5  133.09   15.60
  -8  -3   5  107.09   26.10
  -8  -3   5  144.79   18.30
   7   3  -5   -1.10   15.80
  -7  -3   5   -1.50    5.00
  -7  -3   5    0.10    3.60
  -7  -3   5   -1.40   12.40
   6   3  -5  100.39   22.80
  -6  -3   5  143.39   15.60
  -6  -3   5  124.49   16.20
  -6  -3   5  179.08   25.00
   5   3  -5   16.40    5.60
   5   3  -5   -8.00    8.40
  -5  -3   5    8.20    4.70
  -5  -3   5   14.40    3.90
  -5  -3   5   15.60   10.60
   4   3  -5   66.59    9.30
   3   3  -5 3537.05  341.47
   2   3  -5  271.97   37.00
   2   3  -5  284.27   27.50
  -2  -3   5  256.57   27.20
   1   3  -5  311.57   32.70
   1   3  -5  346.77   32.70
  -1  -3   5  318.77   32.70
   0   3  -5  376.26   35.20
   0   3  -5  361.96   35.50
   0  -3   5  322.67   35.30
  -1   3  -5   21.00    5.80
  -1   3  -5   37.70    8.00
  -1   3  -5   30.20    4.80
  -2   3  -5   10.60    2.90
   2  -3   5   10.90    3.20
   4  -3   5   12.60    4.70
   4  -3   5    3.40    8.20
  -5   3  -5  239.78   34.80
   5  -3   5  238.98   26.20
  -6   3  -5  133.59   28.70
   6  -3   5  132.69   16.30
  -7   3  -5  153.98   31.00
   7  -3   5  133.99   17.30
   7  -3   5  158.68   28.20
  -8   3  -5   33.50    7.80
  -8   3  -5   69.89   24.50
   8  -3   5   24.30   13.40
  -9   3  -5   72.59   11.90
   9  -3   5   55.69   16.20
 -10   3  -5   -4.40   19.00
 -10   3  -5    6.40    5.90
  10  -3   5   16.30    8.90
 -11   3  -5    1.40   18.10
 -11   3  -5   17.00    4.70
  11  -3   5   19.60    7.80
  12   2  -5    5.10   10.50
  12   2  -5    7.60   14.10
 -12  -2   5   -3.30   10.50
 -12  -2   5    5.60   10.10
  11   2  -5   12.20   22.20
  11   2  -5   25.60   14.30
 -11  -2   5    4.60   13.40
 -11  -2   5   10.00    6.70
  10   2  -5  105.29   23.20
  10   2  -5   24.10   25.60
 -10  -2   5   76.49   22.40
 -10  -2   5   82.69   12.90
 -10  -2   5   57.99    9.50
   9   2  -5   19.80   23.10
   9   2  -5    8.50   16.10
  -9  -2   5    8.60    3.60
  -9  -2   5   18.60    5.10
  -9  -2   5   22.90    8.20
  -9  -2   5   27.20   15.90
   8   2  -5    5.30   15.60
   8   2  -5    1.80   16.20
  -8  -2   5   41.90    8.90
  -8  -2   5   38.00    6.40
  -8  -2   5   29.80    4.80
  -8  -2   5   22.50   15.60
  -7  -2   5  425.36   42.80
  -7  -2   5  428.86   41.80
  -7  -2   5  384.46   40.60
  -6  -2   5    3.70    4.10
  -6  -2   5    7.80   10.70
  -6  -2   5   -2.80    2.90
  -6  -2   5    2.50    2.30
   5   2  -5   87.89   11.00
  -5  -2   5   73.69    9.70
  -5  -2   5   74.49   10.80
   4   2  -5  157.38   16.90
   3   2  -5  486.65   48.00
   2   2  -5  316.57   32.80
   2   2  -5  342.87   33.10
  -2  -2   5  328.17   32.70
   1   2  -5 1157.88  116.09
   1   2  -5 1233.98  116.09
   0   2  -5    8.40    2.60
   0  -2   5    4.80    2.70
  -1   2  -5  305.57   28.20
  -1   2  -5  260.37   28.30
  -1   2  -5  294.27   31.40
   1  -2   5  263.67   28.30
  -2   2  -5  471.45   42.50
  -2   2  -5  388.56   45.20
  -3   2  -5   15.10    9.20
  -3   2  -5   14.20    3.50
  -4   2  -5  215.78   22.70
   4  -2   5  208.48   23.00
  -5   2  -5   94.59   22.30
   5  -2   5   86.89   18.50
   5  -2   5   81.89   11.20
  -6   2  -5   37.30   19.80
   6  -2   5   11.80    4.80
   6  -2   5   16.80   11.00
  -7   2  -5   80.89   25.80
   7  -2   5  108.39   20.00
   7  -2   5   85.19   12.40
  -8   2  -5   -2.30   19.40
   8  -2   5   22.50   10.40
   8  -2   5   10.20    5.60
  -9   2  -5    9.80    6.60
  -9   2  -5    9.20   20.00
   9  -2   5   11.40    7.80
 -10   2  -5  137.49   19.90
  10  -2   5  151.08   20.70
 -11   2  -5   10.90   17.30
 -11   2  -5   26.50    5.30
  11  -2   5   21.00    6.80
  12   1  -5  113.69   19.70
 -12  -1   5   73.79   12.90
  11   1  -5   45.20   19.10
  11   1  -5    9.60   24.70
 -11  -1   5   18.80   15.20
 -11  -1   5   29.60    8.00
  10   1  -5  144.49   27.20
 -10  -1   5   64.79   21.20
 -10  -1   5   84.29   10.10
   9   1  -5   -5.30   20.00
   9   1  -5  -16.50   16.40
  -9  -1   5    2.40    4.20
  -9  -1   5    1.50    6.50
  -9  -1   5    8.80   14.80
  -9  -1   5   -1.50    2.70
  -8  -1   5   12.10   14.20
  -8  -1   5    4.80    3.00
  -8  -1   5   11.60    5.90
  -8  -1   5    3.20    4.20
  -7  -1   5  364.66   35.70
  -7  -1   5  289.27   33.90
  -7  -1   5  330.27   33.20
  -7  -1   5  365.36   43.90
  -6  -1   5   12.00    4.00
  -6  -1   5   11.80    2.80
  -6  -1   5   -3.60   10.40
  -6  -1   5   13.30    3.20
  -6  -1   5   15.20    5.10
  -6  -1   5   11.20    3.70
  -5  -1   5  346.67   33.10
  -5  -1   5  316.77   33.70
  -5  -1   5  359.46   34.70
  -5  -1   5  356.66   32.90
  -5  -1   5  282.77   33.40
   4   1  -5 1002.20   88.69
  -4  -1   5  820.42   89.29
   3   1  -5   42.00    5.80
   2   1  -5   16.30    3.80
   2   1  -5   15.10    3.20
   1   1  -5  411.56   39.10
   1   1  -5  398.56   39.20
  -1  -1   5  378.16   38.90
   0   1  -5    0.40    2.10
   0   1  -5    2.60    2.60
   0   1  -5    3.30    4.70
   0  -1   5    2.50    2.60
  -1   1  -5  907.31   89.59
  -1   1  -5  867.61   86.19
  -2   1  -5  666.83   65.19
  -3   1  -5    2.50    3.10
   3  -1   5    5.10    3.40
   3  -1   5    5.50    3.10
   4  -1   5  450.75   50.39
   4  -1   5  580.74   55.59
   4  -1   5  515.15   51.59
  -5   1  -5  212.68   32.20
   5  -1   5  250.27   28.70
   5  -1   5  201.28   23.80
  -6   1  -5  124.79   26.10
   6  -1   5   91.69   12.80
   6  -1   5   86.89   11.70
   6  -1   5  113.99   18.20
  -7   1  -5  230.28   37.70
   7  -1   5  231.58   30.30
   7  -1   5  248.98   26.70
  -8   1  -5   17.50   19.20
   8  -1   5   23.10    8.80
   8  -1   5   10.60    5.10
  -9   1  -5   25.60   19.60
   9  -1   5   23.00    8.80
 -11   1  -5    4.90   18.60
 -11   1  -5   -1.80    3.60
  11  -1   5    1.70    4.60
  11  -1   5    0.30    5.70
  12   0  -5   -9.90   18.30
 -12   0   5   -1.20    3.00
 -12   0   5   13.00    6.00
 -12   0   5    0.20   11.80
  11   0  -5   24.70   26.80
  11   0  -5   34.60   20.30
 -11   0   5   35.70    8.60
 -11   0   5   26.80   15.60
  10   0  -5    0.20   17.30
  10   0  -5   24.60   21.50
 -10   0   5   25.60   17.30
  -9   0   5   22.30   17.20
  -9   0   5    6.20    2.90
  -9   0   5    6.50    6.80
  -8   0   5  149.39   17.80
  -8   0   5  132.99   29.90
  -8   0   5  180.78   20.50
  -8   0   5  170.98   17.40
  -8   0   5  169.88   17.80
  -7   0   5   59.29    7.60
  -7   0   5   58.89   10.40
  -7   0   5   63.79    8.20
  -7   0   5   44.00   19.20
  -7   0   5   58.69    8.60
  -6   0   5   48.20    6.60
  -6   0   5   38.10    6.00
  -6   0   5   45.90    8.40
  -6   0   5   47.00    7.10
  -5   0   5   80.59   10.20
  -5   0   5   87.29    9.60
  -5   0   5   85.69   11.40
  -5   0   5   73.09   19.70
  -5   0   5   73.69    9.80
  -5   0   5   94.09    9.40
   4   0  -5  395.66   34.30
  -4   0   5  350.46   35.60
  -4   0   5  343.37   34.40
  -4   0   5  316.07   34.70
  -4   0   5  311.27   41.20
  -4   0   5  355.26   34.20
   3   0  -5  697.03   66.49
  -3   0   5  669.53   68.29
   2   0  -5   62.09    8.10
   2   0  -5   63.79    7.20
   1   0  -5   79.89    9.30
   1   0  -5   86.79    9.40
   0   0  -5  665.33   65.39
   0   0  -5  674.93   65.29
  -1   0  -5   84.99    9.80
  -2   0  -5    0.50    3.10
   2   0   5    0.50    2.60
  -3   0  -5   51.09    7.30
   3   0   5   53.79    6.90
   3   0   5   50.29    6.60
   3   0   5   40.80    7.50
   3   0   5   48.50   10.00
   3   0   5   58.99    7.90
   3   0   5   40.30    7.00
  -4   0  -5  257.97   28.80
   4   0   5  255.67   24.80
   4   0   5  251.77   28.40
   4   0   5  236.98   26.00
   4   0   5  219.98   24.30
  -5   0  -5    7.20   16.70
   5   0   5    2.40    4.00
   5   0   5    7.20    5.80
   5   0   5    7.30    3.80
  -6   0  -5  242.08   38.00
   6   0   5  197.58   24.20
   6   0   5  283.27   29.90
   6   0   5  236.28   26.10
  -7   0  -5   10.50   18.70
   7   0   5   11.80    4.80
   7   0   5   16.30    7.20
   7   0   5    3.30    4.30
  -8   0  -5    7.30   18.40
   8   0   5   -2.80    4.50
   8   0   5    3.80    4.30
   8   0   5    3.20    5.60
   9   0   5   81.79   14.20
 -10   0  -5    8.20   20.40
  10   0   5   13.10    7.40
  10   0   5   27.10    7.60
 -11   0  -5    0.10   17.40
  11   0   5    0.90    4.00
  12  -1  -5   -5.60   19.30
 -12   1   5   16.80    3.60
 -12   1   5   21.10   15.00
  11  -1  -5   48.90   27.20
  11  -1  -5   32.60   22.50
 -11   1   5   20.70    4.00
 -11   1   5    6.70   15.50
  10  -1  -5  -18.20   19.60
 -10   1   5   40.90   18.60
 -10   1   5   38.80    8.90
 -10   1   5   20.50    4.40
  -9   1   5  103.69   11.90
  -9   1   5   90.49   24.70
  -9   1   5   83.89   11.00
  -9   1   5   95.79   14.90
  -8   1   5  508.05   47.00
  -8   1   5  492.95   46.80
  -8   1   5  394.96   48.80
  -7   1   5    7.40    3.40
  -7   1   5   -2.60   15.60
  -7   1   5    8.70    5.80
  -7   1   5   10.10    3.00
  -6   1   5  126.89   15.80
  -6   1   5  153.58   15.30
  -6   1   5  145.19   17.80
  -6   1   5  188.98   29.20
  -6   1   5  136.89   15.50
  -5   1   5  378.96   34.60
  -5   1   5  349.17   36.20
  -5   1   5  340.97   34.90
  -5   1   5  354.76   34.70
  -5   1   5  308.97   35.10
  -4   1   5   51.19    8.60
  -4   1   5   81.59   19.50
  -4   1   5   60.39    6.80
  -4   1   5   48.10    7.70
  -4   1   5   55.99    7.00
  -4   1   5   52.09    7.40
  -3   1   5  346.07   33.20
  -3   1   5  313.97   33.30
  -3   1   5  318.87   34.30
  -3   1   5  337.27   33.60
  -3   1   5  363.26   34.00
  -2   1   5  670.23   62.49
  -2   1   5  588.04   62.39
  -1   1   5    4.80    3.50
   0   1   5  444.46   45.10
   0   1   5  449.76   45.30
  -1  -1  -5  217.58   20.60
   1   1   5  166.58   21.70
   1   1   5  220.18   22.00
   1   1   5  170.18   20.60
   1   1   5  218.28   24.10
   1   1   5  219.98   20.40
   1   1   5  190.08   20.30
  -2  -1  -5   10.40    4.20
   2   1   5   18.50    3.30
   2   1   5   17.20    4.90
   2   1   5   27.60    3.90
   2   1   5   13.70    4.30
   2   1   5   18.80    4.30
   2   1   5   16.60    4.20
   3   1   5  741.73   80.89
   3   1   5  817.12   78.69
   3   1   5  900.31   79.99
   3   1   5  804.62   77.89
   3   1   5  780.62   78.59
   3   1   5  748.43   80.59
   4   1   5   32.70    5.20
   4   1   5   30.30    4.90
   4   1   5   23.40    6.10
   4   1   5   43.60   10.20
   4   1   5   37.90    7.60
   4   1   5   22.10    9.80
  -5  -1  -5   66.99   22.30
   5   1   5   29.00    8.80
   5   1   5   22.90    6.10
   5   1   5   27.20    5.10
  -6  -1  -5  541.45   67.79
   6   1   5  543.15   59.69
   6   1   5  582.54   57.59
  -7  -1  -5   32.80   11.70
  -7  -1  -5    7.80   19.00
   7   1   5   28.00    8.90
   7   1   5   16.40    5.10
   7   1   5   34.80    7.70
   8   1   5   91.59   15.70
   8   1   5   96.79   13.70
   8   1   5  108.79   18.40
   9   1   5   87.09   16.90
   9   1   5  103.09   15.60
 -10  -1  -5  -13.40   18.50
  10   1   5   13.30    5.40
  10   1   5   -0.60    5.70
  11  -2  -5   27.00   25.90
 -11   2   5    6.30   13.90
 -11   2   5   16.60    3.80
 -11   2   5   36.20    7.50
 -10   2   5    3.40    6.30
 -10   2   5   13.60   16.80
 -10   2   5    6.50    3.10
 -10   2   5   12.40    4.10
  -9   2   5    4.40    6.10
  -9   2   5    7.50    3.90
  -9   2   5    6.40    3.20
  -9   2   5    2.10   18.00
  -8   2   5   91.99   13.50
  -8   2   5   82.19   10.30
  -7   2   5   73.99    9.20
  -7   2   5   69.49    8.70
  -7   2   5  115.69   27.90
  -7   2   5   43.30   10.70
  -6   2   5   80.09    9.70
  -6   2   5   87.49   13.60
  -6   2   5   74.79   10.00
  -6   2   5  133.59   29.20
  -5   2   5  157.38   17.00
  -5   2   5  157.38   17.10
  -5   2   5  153.88   17.50
  -5   2   5  158.98   18.70
  -5   2   5  170.78   16.90
  -4   2   5  249.18   38.10
  -4   2   5  244.28   27.30
  -4   2   5  252.77   26.00
  -4   2   5  247.58   25.90
  -4   2   5  273.07   26.60
  -4   2   5  263.67   25.80
  -3   2   5   65.49   10.80
  -3   2   5   87.89    9.90
  -3   2   5   78.39   11.10
  -3   2   5  106.49   10.70
  -3   2   5   79.39   10.20
  -3   2   5   81.39    9.40
  -3   2   5  101.99    9.80
  -3   2   5   88.39   10.00
  -2   2   5  103.09   12.40
  -2   2   5  119.89   12.50
  -2   2   5  119.39   12.50
  -2   2   5  113.19   13.80
  -2   2   5  128.09   13.10
  -2   2   5  114.29   12.50
  -2   2   5  105.99   12.10
  -2   2   5  114.89   13.60
  -1   2   5  142.89   14.70
  -1   2   5  113.19   13.00
  -1   2   5  115.19   12.60
  -1   2   5  142.59   13.70
  -1   2   5  107.19   12.80
  -1   2   5  118.89   13.30
  -1   2   5  109.59   14.50
   0   2   5  179.98   19.10
   0   2   5  189.08   21.20
   0   2   5  165.48   19.50
   0   2   5  178.78   19.00
   0   2   5  214.98   21.00
   0   2   5  186.68   20.20
   0   2   5  205.58   19.90
   0   2   5  178.08   20.20
   1   2   5   33.30    4.70
   1   2   5   13.20    6.30
   1   2   5   23.20    5.00
   1   2   5   20.70    6.80
   1   2   5   28.90    6.20
   1   2   5   25.00    6.90
   1   2   5   25.90    4.80
   1   2   5   27.10    6.00
   1   2   5   39.50    4.80
   2   2   5   34.90    8.50
   2   2   5   29.20    8.00
   2   2   5   46.00    6.70
   2   2   5   48.40    7.30
   2   2   5   49.50    6.20
   2   2   5   47.00    7.40
   2   2   5   46.10    6.20
   2   2   5   39.70    7.20
   3   2   5  166.68   18.80
   3   2   5  160.88   17.90
   3   2   5  165.28   19.00
   3   2   5  154.48   21.40
   3   2   5  172.58   17.40
   3   2   5  154.48   20.30
   3   2   5  161.78   17.20
   4   2   5   10.00    3.70
   4   2   5   10.90    4.30
   4   2   5   17.80    8.80
   4   2   5   14.50    4.70
   4   2   5    9.20    3.90
   4   2   5   12.40    6.00
  -5  -2  -5   49.40   20.60
   5   2   5   44.70    7.20
   5   2   5   56.49   11.10
   5   2   5   38.90    7.20
   5   2   5   43.70    8.40
   5   2   5   57.99   12.80
  -6  -2  -5  174.08   36.50
   6   2   5  260.17   29.40
   6   2   5  243.18   25.40
   6   2   5  187.68   22.60
   6   2   5  221.78   27.50
  -7  -2  -5   -1.10   10.50
  -7  -2  -5    4.70   19.40
   7   2   5   -0.10    3.40
   7   2   5    6.40    8.10
   7   2   5    5.60    4.10
   7   2   5    3.20    5.00
  -8  -2  -5   -6.30   18.40
  -8  -2  -5   28.80   10.30
   8   2   5   -2.20    6.40
   8   2   5    2.00    4.70
   8   2   5    2.50    4.30
  -9  -2  -5   15.90   18.10
   9   2   5   10.10    6.80
   9   2   5   21.80    6.80
 -10  -2  -5   -4.60   17.40
  10   2   5    3.40    5.60
  10   2   5   10.10    4.70
  11  -3  -5   20.10   22.60
 -11   3   5    9.40    3.10
 -11   3   5   22.80    6.20
 -11   3   5   19.80    4.70
 -10   3   5   75.99   10.10
 -10   3   5   95.89   12.90
 -10   3   5   84.99   10.90
  -9   3   5  168.68   17.30
  -9   3   5  131.69   16.30
  -9   3   5  154.48   19.40
  -8   3   5    8.00   18.70
  -8   3   5    9.80    4.20
  -8   3   5   10.00    3.50
  -8   3   5   12.70    6.80
  -7   3   5   57.49    8.00
  -7   3   5   26.70   21.60
  -7   3   5   60.79   10.60
  -7   3   5   60.29    8.50
  -6   3   5   40.10    9.10
  -6   3   5   52.39    7.70
  -6   3   5   53.09    7.30
  -5   3   5   13.70    3.30
  -5   3   5    6.20    3.40
  -5   3   5   12.30    3.90
  -5   3   5    5.00    4.80
  -4   3   5  622.14   57.29
  -4   3   5  577.94   57.19
  -4   3   5  583.64   57.39
  -4   3   5  528.75   58.29
  -4   3   5  550.24   58.79
  -4   3   5  616.54   57.89
  -3   3   5   59.19    7.60
  -3   3   5   50.99    8.10
  -3   3   5   54.09    9.40
  -3   3   5   72.39    8.50
  -3   3   5   60.69    7.90
  -3   3   5   60.29    8.10
  -2   3   5   41.90    6.20
  -2   3   5   40.00    7.00
  -2   3   5   49.70    6.60
  -2   3   5   43.00    8.80
  -2   3   5   49.99    7.00
  -2   3   5   51.49    7.10
  -2   3   5   41.80    7.20
  -1   3   5  716.33   67.29
  -1   3   5  570.14   67.49
  -1   3   5  766.02   68.49
  -1   3   5  661.73   66.89
  -1   3   5  663.63   66.39
  -1   3   5  713.73   66.99
   0   3   5   26.70    4.90
   0   3   5   20.00    6.30
   0   3   5   30.60    4.40
   0   3   5   19.10    3.80
   0   3   5   15.20    6.00
   0   3   5   19.90    6.60
   0   3   5   21.20    5.30
   0   3   5   17.40    4.50
   1   3   5    6.20    2.90
   1   3   5    7.50    6.00
   1   3   5    9.00    4.10
   1   3   5    7.90    3.70
   1   3   5    7.10    4.70
   1   3   5    2.70    5.40
   1   3   5    2.40    6.40
   1   3   5    5.50    3.00
   1   3   5    9.70    3.00
   2   3   5  285.27   29.50
   2   3   5  274.37   29.40
   2   3   5  302.27   29.00
   2   3   5  250.27   31.70
   2   3   5  287.87   30.70
   2   3   5  294.77   28.80
   3   3   5   39.90    7.30
   3   3   5   43.90    8.20
   3   3   5   34.80    5.80
   3   3   5   30.80    5.70
   3   3   5   24.30    8.10
   3   3   5   29.90    6.20
   3   3   5   31.70    9.00
  -4  -3  -5  264.47   40.10
   4   3   5  274.87   28.40
   4   3   5  230.28   27.30
   4   3   5  266.97   27.30
   4   3   5  274.27   31.60
   4   3   5  272.07   31.60
   4   3   5  278.67   29.60
  -5  -3  -5  267.17   43.00
   5   3   5  259.67   30.10
   5   3   5  300.27   35.40
   5   3   5  303.77   32.10
   5   3   5  298.87   30.50
   5   3   5  314.77   32.80
   5   3   5  317.57   35.40
  -6  -3  -5  -11.70   18.80
   6   3   5   24.00    9.10
   6   3   5   17.80    9.30
   6   3   5   13.20    4.40
   6   3   5   26.30    7.00
  -7  -3  -5   21.10   20.00
  -7  -3  -5   67.69   13.90
   7   3   5   71.99   12.80
   7   3   5   55.59   10.00
   7   3   5   41.40   11.50
  -8  -3  -5    9.50   17.30
  -8  -3  -5   24.10    9.70
   8   3   5   13.10    6.10
   8   3   5   11.80    6.90
  -9  -3  -5   -8.70   16.20
  -9  -3  -5   -2.20   15.50
   9   3   5   13.50    5.20
   9   3   5   -0.30    5.60
  11  -4  -5    7.90   18.70
 -11   4   5   -0.80    2.20
 -10   4   5  105.79   11.70
 -10   4   5  107.89   14.30
 -10   4   5   97.49   12.80
  -9   4   5   74.19   11.80
  -9   4   5   62.39   10.00
  -9   4   5   73.89    9.10
  -8   4   5    2.20    3.00
  -8   4   5    1.90    4.80
  -8   4   5   -4.70    3.70
  -7   4   5  119.99   12.40
  -7   4   5  113.49   15.00
  -7   4   5   86.59   12.40
  -6   4   5   40.70    9.70
  -6   4   5   36.10    6.60
  -6   4   5   54.09    7.00
  -5   4   5    6.30    5.30
  -5   4   5   11.50    3.70
  -5   4   5    8.80    3.90
  -4   4   5   74.79   10.40
  -4   4   5   74.49    9.10
  -4   4   5   54.19   10.90
  -4   4   5   55.49    9.10
  -4   4   5   68.99    9.00
  -3   4   5  124.59   13.70
  -3   4   5  127.59   14.30
  -3   4   5  133.49   14.70
  -3   4   5  137.29   14.20
  -3   4   5  104.49   15.70
  -3   4   5  119.09   14.50
  -2   4   5   98.99   10.90
  -2   4   5   88.89   11.00
  -2   4   5   97.29   11.10
  -2   4   5   77.19   13.40
  -2   4   5   80.49   12.40
  -2   4   5   86.69   10.30
  -2   4   5   84.19   11.40
  -1   4   5  385.86   37.80
  -1   4   5  372.56   38.00
  -1   4   5  391.76   37.20
  -1   4   5  302.07   39.30
  -1   4   5  394.86   38.00
   0   4   5    7.60    5.90
   0   4   5    8.20    6.70
   0   4   5    6.70    4.20
   0   4   5   14.40    6.90
   0   4   5    7.60    5.60
   0   4   5   13.50    3.80
   0   4   5   14.00    3.40
   0   4   5   15.20    3.50
   0   4   5    9.40    4.20
   1   4   5   54.99    8.00
   1   4   5   46.20    7.10
   1   4   5   39.40   11.40
   1   4   5   57.19    8.50
   1   4   5   39.10   10.10
   1   4   5   53.49   11.30
   1   4   5   65.49    7.70
   1   4   5   59.19    9.00
   2   4   5  291.17   31.90
   2   4   5  272.27   30.90
   2   4   5  277.77   34.50
   2   4   5  318.57   32.00
   2   4   5  302.67   35.20
   2   4   5  335.47   33.50
   2   4   5  331.37   31.20
   3   4   5    7.70    5.50
   3   4   5    5.60    3.80
   3   4   5    7.00    4.10
   3   4   5   10.10    3.30
   3   4   5    2.10    3.70
   3   4   5    5.80    6.30
  -4  -4  -5   26.10   17.80
   4   4   5    6.70    4.20
   4   4   5    7.10    4.20
   4   4   5    2.40    6.00
   4   4   5    1.70    3.40
   4   4   5    9.20    3.50
   4   4   5    9.20    6.10
  -5  -4  -5  119.89   29.00
   5   4   5   97.39   13.20
   5   4   5  117.49   15.70
   5   4   5  113.29   15.90
   5   4   5  130.99   18.70
   5   4   5  112.89   18.40
   5   4   5  120.19   14.20
  -6  -4  -5    2.50   17.30
   6   4   5   20.80    7.80
   6   4   5    9.90    3.90
   6   4   5   13.60    7.30
   7   4   5   47.70   11.80
  -8  -4  -5    4.90   14.00
  -8  -4  -5    9.90    8.00
   8   4   5    2.90    5.90
   8   4   5   17.40    6.40
 -10   5   5   -6.80    2.50
 -10   5   5   -5.30    4.00
 -10   5   5    3.60    4.40
  -9   5   5    3.70    5.20
  -9   5   5    3.00    3.20
  -9   5   5    4.00    4.60
  -8   5   5  103.39   14.50
  -8   5   5  100.39   11.70
  -8   5   5   83.99   12.40
  -7   5   5   19.00    6.90
  -7   5   5   13.10    4.50
  -7   5   5   16.50    4.80
  -6   5   5    6.50    4.90
  -6   5   5   -2.10    3.80
  -6   5   5   -3.10    3.90
  -5   5   5  270.37   25.10
  -5   5   5  227.48   25.30
  -5   5   5  223.38   30.00
  -5   5   5  217.78   26.80
  -4   5   5   -6.00    4.40
  -4   5   5   -1.70    3.40
  -4   5   5    5.50    4.80
  -4   5   5    0.50    2.70
  -4   5   5   -4.90    4.10
  -3   5   5   83.29    9.70
  -3   5   5   71.49   10.50
  -3   5   5   44.90    9.90
  -3   5   5   77.49    9.20
  -3   5   5   63.19   11.70
  -3   5   5   75.29    9.90
  -3   5   5   73.79   10.20
  -2   5   5  160.18   18.80
  -2   5   5  190.98   18.80
  -2   5   5  150.88   20.40
  -2   5   5  165.08   19.60
  -2   5   5  161.48   20.90
  -2   5   5  178.98   18.90
  -2   5   5  175.78   18.20
  -1   5   5   16.10    5.00
  -1   5   5   13.30    4.00
  -1   5   5    8.30    6.50
  -1   5   5   10.30    5.80
  -1   5   5   13.70    3.90
  -1   5   5   12.90    3.70
  -1   5   5   13.50    6.40
   0   5   5   10.80    3.70
   0   5   5    9.40    3.80
   0   5   5   16.70    7.40
   0   5   5   13.10    5.10
   0   5   5   10.30    6.80
   0   5   5   12.70    6.00
   0   5   5    8.90    3.20
   0   5   5   11.40    8.50
   1   5   5   57.49    8.30
   1   5   5   36.30    7.40
   1   5   5   37.00    7.00
   1   5   5   54.69   11.40
   1   5   5   44.70    7.20
   1   5   5   59.69   12.70
   2   5   5   13.50    4.30
   2   5   5   13.80    7.20
   2   5   5   17.70    7.10
   2   5   5   25.40    8.40
   2   5   5    8.10    3.40
   2   5   5   10.00    3.90
  -3  -5  -5  158.88   32.80
   3   5   5  195.38   25.20
   3   5   5  207.18   20.90
   3   5   5  209.88   22.10
   3   5   5  180.48   20.60
  -4  -5  -5    6.10   17.90
   4   5   5    2.40    4.70
   4   5   5    1.40    3.20
   4   5   5    6.00    4.10
   4   5   5    7.60    4.50
   4   5   5   -2.40    5.80
  -5  -5  -5  -10.60   16.70
   5   5   5    7.40    5.80
   5   5   5   -3.50    6.00
   5   5   5    6.70    5.40
   5   5   5   -1.40    4.50
   5   5   5    4.20    3.30
  -6  -5  -5   59.79   11.30
  -6  -5  -5    3.30   16.20
   6   5   5   20.90    4.80
   6   5   5   58.79   11.30
   6   5   5   33.80   10.80
  -7  -5  -5   18.60    7.10
  -7  -5  -5    5.30   14.70
   7   5   5   -4.90    5.80
   7   5   5    8.10    5.00
   8   5   5    7.40    4.40
  -9   6   5   -1.00    4.70
  -9   6   5    1.30    2.80
  -9   6   5   -6.60    4.20
  -8   6   5   31.30    7.00
  -8   6   5   43.80    6.10
  -8   6   5   39.10    8.10
  -7   6   5   -1.80    5.20
  -7   6   5    1.30    3.50
  -7   6   5   -1.80    5.00
  -6   6   5   14.90    6.10
  -6   6   5   16.50    4.90
  -6   6   5   17.10    7.00
  -5   6   5  137.99   21.50
  -5   6   5  199.68   21.20
  -5   6   5  165.08   19.90
  -5   6   5  176.38   19.00
  -4   6   5   32.30    6.90
  -4   6   5   35.70    8.50
  -4   6   5   42.70   11.00
  -4   6   5   26.10    7.70
  -4   6   5   25.10    5.50
  -4   6   5   26.90    5.90
  -4   6   5   33.60    8.60
  -3   6   5   60.59   11.60
  -3   6   5   67.19    9.30
  -3   6   5   68.69    9.60
  -3   6   5   65.59   10.60
  -3   6   5   66.39    9.50
  -3   6   5   81.19   11.30
  -3   6   5   56.19   11.80
  -2   6   5  204.98   20.40
  -2   6   5  204.88   20.60
  -2   6   5  161.18   20.10
  -2   6   5  201.28   19.90
  -2   6   5  168.58   21.60
  -2   6   5  154.48   22.30
  -2   6   5  181.28   22.50
  -1   6   5   12.50    7.30
  -1   6   5    7.20    5.10
  -1   6   5   10.30    3.70
  -1   6   5   10.10    3.90
  -1   6   5   10.10    3.90
   0   6   5   37.40    7.10
   0   6   5   36.40    6.30
   0   6   5   24.10    5.70
   0   6   5   38.30    9.40
   1   6   5  221.98   21.40
   1   6   5  158.88   19.80
   1   6   5  192.58   20.40
   2   6   5    2.70    3.40
   2   6   5    0.90    2.70
   2   6   5    3.10    3.00
   2   6   5    4.80    5.80
   2   6   5    4.90    6.10
   3   6   5   19.50    8.10
   3   6   5   21.60    8.10
   3   6   5   14.20    4.20
   3   6   5   19.10    5.40
   3   6   5   24.80    6.40
   4   6   5   28.80    7.00
   4   6   5   21.20    7.90
   4   6   5   19.90    4.60
   4   6   5   25.40    8.70
   4   6   5   19.10    5.20
  -5  -6  -5   43.70   10.30
   5   6   5   45.90   10.00
   5   6   5   37.00    7.80
   5   6   5   29.60    5.80
   5   6   5   30.30    9.40
   5   6   5   57.59   10.90
  -6  -6  -5  226.38   26.40
   6   6   5  241.98   28.30
  -8   7   5   23.10    5.70
  -7   7   5   11.60    3.80
  -7   7   5    7.80    5.90
  -7   7   5    8.20    5.30
  -6   7   5   42.80    8.40
  -6   7   5   42.30    9.10
  -6   7   5   35.00    6.20
  -5   7   5    9.50    6.20
  -5   7   5    5.10    5.50
  -5   7   5    1.30    7.00
  -5   7   5    4.80    8.10
  -4   7   5   11.70    6.40
  -4   7   5    9.80    6.50
  -4   7   5    9.20    6.10
  -4   7   5   19.30    7.60
  -3   7   5    1.40    4.70
  -3   7   5   -0.40    4.60
  -3   7   5    4.10    3.20
  -3   7   5   -4.50    6.20
  -3   7   5   -0.40    6.50
  -3   7   5   -0.90    4.20
  -2   7   5   38.90    6.80
  -2   7   5   38.70    7.60
  -2   7   5   50.79   10.40
  -2   7   5   34.00    6.50
  -2   7   5   23.40    8.10
  -1   7   5   97.19   11.40
  -1   7   5   83.79   10.80
  -1   7   5   64.39   13.30
  -1   7   5   87.49   11.00
   0   7   5    3.80    3.00
   0   7   5   -0.10    3.20
   0   7   5   -1.40    2.70
   0   7   5   -0.10    4.50
   1   7   5    1.30    2.90
   1   7   5    0.20    2.90
   1   7   5    2.80    3.50
   1   7   5    1.50    4.80
   2   7   5   26.40    8.30
   2   7   5   32.30    7.60
   2   7   5   36.80    6.50
   2   7   5   29.80    6.00
   3   7   5   18.00    6.90
   3   7   5   16.30    4.70
   3   7   5   15.80    5.40
   3   7   5   20.70    6.50
  -4  -7  -5   24.70    8.40
   4   7   5   30.00    7.80
   4   7   5   22.00    6.40
   4   7   5   21.80    7.70
   4   7   5   30.40    5.30
  -5  -7  -5   12.80    6.40
   5   7   5    5.80    5.70
   5   7   5    7.20    5.70
  -6   8   5   14.10    7.50
  -5   8   5   10.10    7.90
  -5   8   5   -1.10    5.70
  -5   8   5  -17.30    7.70
  -4   8   5   41.90    9.00
  -4   8   5   24.50    7.80
  -3   8   5   56.09    9.30
  -3   8   5   41.20    9.50
  -3   8   5   66.49   10.00
  -3   8   5   48.40    8.20
  -3   8   5   62.29   11.60
  -2   8   5    6.80    3.80
  -2   8   5   10.30    4.90
  -2   8   5   10.00    5.90
  -2   8   5   12.20    4.50
  -1   8   5   29.00    6.70
  -1   8   5   34.60    6.80
  -1   8   5   17.60    7.10
  -1   8   5   34.70    6.70
   0   8   5  107.59   13.00
   0   8   5  102.09   13.40
   0   8   5  113.29   13.90
   1   8   5   -1.40    3.20
   1   8   5    0.20    4.30
   1   8   5    0.90    4.20
   1   8   5   -0.80    3.20
  -2  -8  -5   68.09   13.10
   2   8   5  109.89   12.40
   2   8   5   68.29   12.80
   2   8   5   98.69   12.60
   2   8   5   91.39   11.00
  -3  -8  -5   -8.60    6.40
   3   8   5   -4.80    5.50
   3   8   5    4.40    4.90
   3   8   5    0.20    4.50
   3   8   5    4.10    3.80
  -2   9   5   -3.60    6.40
  -2   9   5   11.90    5.40
  -1   9   5   20.50    7.30
  -1   9   5   27.00    6.40
  -1   9   5   28.20    7.60
   0   9   5    1.60    5.30
   0   9   5    0.50    4.30
   0   9   5    8.20    6.40
   0  14  -6  149.99   17.60
  -1  14  -6   37.60    6.90
   1 -14   6    4.70    8.10
  -2  14  -6   17.20    5.70
   2 -14   6    8.80    6.70
   4  13  -6   31.60    8.50
  -4 -13   6   16.10    5.70
   3  13  -6   11.40    4.80
  -3 -13   6    6.50    9.30
  -3 -13   6    5.70    5.40
   2  13  -6   21.90    5.80
  -2 -13   6   12.90    6.40
  -2 -13   6   10.40   10.50
   1  13  -6   34.20    7.50
  -1 -13   6   23.80    7.70
  -1 -13   6   13.20   12.20
   0  13  -6  142.99   16.30
   0 -13   6  123.29   17.00
  -1  13  -6   24.30    6.40
   1 -13   6    8.00   10.00
  -2  13  -6    6.70    5.50
   2 -13   6    2.00    8.20
  -3  13  -6   15.40    6.20
   3 -13   6    7.00    7.50
   4 -13   6    0.60    5.60
  -5  13  -6    3.60    5.90
   5 -13   6    4.80    5.30
   5 -13   6    1.00   11.40
  -6 -12   6    7.70    4.90
   5  12  -6   71.39   10.90
   5  12  -6   49.10    8.70
  -5 -12   6   26.50    8.30
   4  12  -6   88.19   13.00
   4  12  -6   75.89   11.60
  -4 -12   6   70.19   12.70
   3  12  -6    3.70    6.70
   3  12  -6    6.80    4.90
  -3 -12   6   10.80    6.40
  -3 -12   6   -2.00   10.40
   2  12  -6  108.49   13.70
   2  12  -6   97.09   14.60
  -2 -12   6   95.59   15.10
  -2 -12   6   62.19   19.30
   1  12  -6   22.10    6.70
  -1 -12   6   -1.20   12.00
  -1 -12   6   16.10    7.40
   0  12  -6   15.90    5.60
   0 -12   6    5.00   11.20
   0 -12   6    7.60    6.70
  -1  12  -6  139.99   17.40
   1 -12   6  140.39   18.40
  -2  12  -6    5.30    4.40
   2 -12   6   -2.00    8.40
  -3  12  -6    3.10    4.60
  -3  12  -6    6.10    5.70
   3 -12   6    0.40    8.20
  -4  12  -6  170.78   20.20
  -4  12  -6  140.89   18.30
  -5  12  -6    3.70    4.10
   5 -12   6   -0.90   15.00
   5 -12   6    2.80    6.30
  -6  12  -6    3.60    3.90
   6 -12   6   -0.60   14.10
   6 -12   6   -3.50    5.10
  -7  12  -6   40.60    6.80
   7 -12   6    6.20   13.20
   7  11  -6   52.59   10.80
  -7 -11   6   28.50    5.50
  -7 -11   6   27.80    7.30
   6  11  -6    6.00    7.00
   6  11  -6    2.90    5.70
  -6 -11   6    6.00    5.30
  -6 -11   6    2.20    4.00
   5  11  -6   34.80    9.30
   5  11  -6   22.20    7.40
  -5 -11   6   10.90    6.80
   4  11  -6   33.50    8.50
   4  11  -6   43.70   10.00
  -4 -11   6   18.20    7.90
   3  11  -6    1.50    4.90
   3  11  -6    1.80    6.20
  -3 -11   6    0.90    5.80
   2  11  -6  325.57   32.70
   2  11  -6  246.38   31.70
  -2 -11   6  315.07   34.50
   1  11  -6  153.08   21.70
   1  11  -6  197.38   23.30
  -1 -11   6  237.88   24.90
   0  11  -6   37.20    8.90
   0 -11   6   17.60   11.50
   0 -11   6   39.80    9.30
  -1  11  -6   87.49   11.80
  -1  11  -6   64.19   11.30
   1 -11   6   86.99   13.00
   1 -11   6   44.80   15.80
  -2  11  -6   -1.40    4.00
  -2  11  -6   -1.40    4.30
   2 -11   6   -4.10    7.80
  -3  11  -6    1.20    4.00
  -3  11  -6    0.10    4.30
   3 -11   6    0.00    7.30
  -4  11  -6  233.98   27.70
  -4  11  -6  271.07   29.70
  -5  11  -6   -1.50    6.50
  -5  11  -6    2.50    4.10
   5 -11   6    4.00    6.90
  -6  11  -6   25.30    6.50
   6 -11   6   14.30    7.80
   6 -11   6   -6.50   16.40
  -7  11  -6  175.28   19.80
  -7  11  -6  164.68   19.90
  -8  11  -6   22.90    5.90
  -8  11  -6   18.70    6.00
   8 -11   6    8.20   14.00
   8  10  -6   -2.40    7.10
   8  10  -6   -1.80    6.20
  -8 -10   6   -4.00    3.20
   7  10  -6    5.60    5.70
   7  10  -6    8.30    7.70
  -7 -10   6    0.50    5.30
  -7 -10   6    6.70    3.90
   6  10  -6  128.59   17.40
   6  10  -6  113.89   16.10
  -6 -10   6  115.29   14.30
   5  10  -6   53.69   12.00
  -5 -10   6   60.29    9.40
   4  10  -6   23.40    7.40
   4  10  -6   29.80    8.80
  -4 -10   6   24.00    5.80
  -4 -10   6   13.30    7.90
   3  10  -6   59.69   11.60
   3  10  -6   59.19   10.30
   2  10  -6   60.19   11.00
   2  10  -6   83.99   12.80
  -2 -10   6   56.89   12.30
   1  10  -6   -0.60    4.00
   1  10  -6    4.60    6.70
  -1 -10   6    2.90    6.30
   0  10  -6  239.08   29.30
   0  10  -6  292.07   28.30
   0  10  -6  225.48   28.50
   0 -10   6  283.77   30.00
  -1  10  -6    3.70    4.80
  -1  10  -6    2.20    4.60
   1 -10   6   -6.00    6.90
   1 -10   6    2.90    6.30
  -2  10  -6   49.40   10.80
  -2  10  -6   45.30    9.40
  -3  10  -6  299.37   32.10
  -3  10  -6  289.67   32.60
  -4  10  -6    4.80    5.90
  -4  10  -6    1.80    4.00
   4 -10   6    2.10    7.80
  -5  10  -6   35.50   10.20
  -5  10  -6   23.10    6.70
  -5  10  -6   21.30    6.20
   5 -10   6   12.50    9.30
  -6  10  -6   16.20    5.70
  -6  10  -6   25.40    6.00
   6 -10   6   -9.10   15.90
   6 -10   6   25.70    9.40
  -7  10  -6   14.00    5.40
  -7  10  -6   18.60    5.70
   7 -10   6  -11.90   18.00
  -8  10  -6   35.00    6.80
  -8  10  -6   50.19    8.80
   8 -10   6   13.10   19.30
  -9  10  -6   47.80    7.60
  -9  10  -6   46.40    8.30
   9 -10   6   19.00   14.60
   9   9  -6   98.49   15.10
  -9  -9   6   91.19   11.10
   8   9  -6   16.90    7.70
   8   9  -6   38.60   11.80
  -8  -9   6   27.60    5.30
   7   9  -6   13.90    9.40
   7   9  -6    9.10    7.20
  -7  -9   6    5.50    4.40
  -7  -9   6    3.80    6.00
   6   9  -6  128.69   18.50
   6   9  -6  108.59   17.40
  -6  -9   6  130.89   15.30
   5   9  -6    6.40    6.80
   5   9  -6    2.40    6.10
  -5  -9   6   -3.90    4.40
  -5  -9   6    3.80    6.40
   4   9  -6   54.89   11.10
   4   9  -6   38.70    9.30
  -4  -9   6   38.80    7.50
  -4  -9   6   32.00    9.30
   3   9  -6  726.73   71.49
   3   9  -6  661.73   71.49
  -3  -9   6  709.93   70.09
  -3  -9   6  710.53   72.99
   2   9  -6  159.28   21.00
   2   9  -6  183.88   20.80
  -2  -9   6  180.98   22.00
   1   9  -6   67.79   12.70
   1   9  -6   66.39   10.70
   1   9  -6   81.19   12.10
  -1  -9   6   61.49   11.50
   0   9  -6  311.47   31.00
   0   9  -6  307.67   32.10
   0   9  -6  231.48   31.80
   0  -9   6  320.77   32.70
  -1   9  -6   11.20    5.70
  -1   9  -6   12.40    5.50
   1  -9   6    3.30    7.40
   1  -9   6    8.60    6.00
  -2   9  -6  203.78   21.90
  -2   9  -6  183.68   22.60
   2  -9   6  184.48   22.80
  -3   9  -6  969.30   96.69
  -3   9  -6  972.60   97.39
  -4   9  -6    4.40    4.10
  -4   9  -6    0.30    4.50
  -4   9  -6    3.40    4.60
   4  -9   6    1.20    7.30
  -5   9  -6   76.79   12.90
   5  -9   6   82.69   17.70
  -6   9  -6   58.79   11.30
  -6   9  -6   73.49   22.10
  -6   9  -6   82.19   11.20
   6  -9   6   79.79   16.20
  -7   9  -6   11.80    5.00
  -7   9  -6    7.90    4.40
   7  -9   6    5.30    5.90
   7  -9   6   -4.90   16.40
  -8   9  -6   66.49    9.50
  -8   9  -6   45.70    7.90
   8  -9   6   15.00   19.90
  -9   9  -6   44.20    7.60
  -9   9  -6   61.29    9.60
   9  -9   6   27.00   18.00
 -10   9  -6   13.60    5.90
  10  -9   6    7.60    9.90
 -10  -8   6   21.30    4.40
   9   8  -6    0.80    7.80
   9   8  -6   -2.30    7.10
  -9  -8   6   -1.00    3.40
   8   8  -6   -5.20    7.60
   8   8  -6    4.20    8.40
  -8  -8   6    3.10    4.00
   7   8  -6   31.00   10.40
   7   8  -6   48.80   12.60
  -7  -8   6   28.40    9.50
  -7  -8   6   43.40    7.20
   6   8  -6    3.60    7.80
   6   8  -6   -1.90    7.00
  -6  -8   6   -4.70    4.40
  -6  -8   6   -2.40    5.40
   5   8  -6   44.50   10.90
   5   8  -6   68.89   12.50
  -5  -8   6   36.80   10.50
  -5  -8   6   61.49    9.30
   4   8  -6    3.50    5.90
   4   8  -6    1.20    5.40
  -4  -8   6    2.20    3.90
  -4  -8   6    1.30    5.70
   3   8  -6  506.15   47.50
   3   8  -6  411.66   46.30
  -3  -8   6  402.56   44.60
  -3  -8   6  475.45   47.90
   2   8  -6   55.49   10.70
   2   8  -6   55.89    9.60
   2   8  -6   46.10    9.70
  -2  -8   6   45.50   10.00
   1   8  -6  191.18   19.90
   1   8  -6  154.08   19.60
  -1  -8   6  157.08   20.10
   0   8  -6  146.49   17.10
   0   8  -6  175.28   17.30
   0   8  -6  102.39   17.50
   0  -8   6  103.29   18.70
   0  -8   6  154.28   17.60
  -1   8  -6  257.37   26.00
  -1   8  -6  221.98   26.30
   1  -8   6  223.78   26.40
  -2   8  -6   64.79   10.70
  -2   8  -6   74.39   10.30
   2  -8   6   38.20   12.60
   2  -8   6   63.99   10.90
  -3   8  -6   11.60    4.50
  -3   8  -6   10.70    5.50
  -3   8  -6    6.10    4.00
   3  -8   6    3.80    7.10
  -4   8  -6   67.39   11.10
  -4   8  -6   61.09    9.60
  -4   8  -6   71.49    9.50
   4  -8   6   35.30   12.20
  -5   8  -6    1.40    4.00
  -5   8  -6    5.60    3.80
  -5   8  -6    3.70    5.80
   5  -8   6   -7.20   12.70
   5  -8   6   -3.50    5.80
  -6   8  -6   37.40    8.20
  -6   8  -6   46.30    8.40
   6  -8   6   49.50   12.80
  -7   8  -6  162.88   17.00
  -7   8  -6  125.19   17.30
   7  -8   6  127.49   19.60
  -8   8  -6    8.10    4.90
  -8   8  -6    6.10    4.50
   8  -8   6   14.40   19.40
  -9   8  -6    7.10    5.40
  -9   8  -6   -6.10    4.30
   9  -8   6   26.00   19.30
 -10   8  -6   31.80    6.50
  10  -8   6   62.09   17.00
  10   7  -6  193.68   24.70
 -10  -7   6  204.38   21.10
   9   7  -6   11.60    8.20
   9   7  -6   13.50    9.30
  -9  -7   6    5.90    3.80
   8   7  -6   -3.30    9.30
   8   7  -6   -4.80    8.80
  -8  -7   6   -0.40    3.70
  -7  -7   6  141.69   20.60
  -7  -7   6  182.88   18.90
   6   7  -6   54.69   12.90
   6   7  -6   62.79   13.60
  -6  -7   6   52.09    8.60
  -6  -7   6   39.30   10.50
   5   7  -6  238.78   29.00
   5   7  -6  271.07   30.80
  -5  -7   6  251.77   26.80
   4   7  -6  507.55   57.39
   4   7  -6  638.74   59.19
  -4  -7   6  548.95   55.89
  -4  -7   6  558.34   58.49
   3   7  -6   10.80    7.40
   3   7  -6    7.40    6.20
   3   7  -6   20.50    6.10
  -3  -7   6    8.20    3.50
  -3  -7   6   14.40    6.30
   2   7  -6  434.76   45.60
  -2  -7   6  433.66   45.80
   1   7  -6  546.95   49.99
   1   7  -6  441.66   49.60
  -1  -7   6  468.45   49.99
   0   7  -6   26.60    6.90
   0   7  -6   37.90    7.80
   0  -7   6   36.20    7.80
   0  -7   6   17.90    7.90
  -1   7  -6 1670.73  151.78
  -1   7  -6 1367.56  151.28
   1  -7   6 1608.54  152.18
  -2   7  -6  745.93   78.19
  -2   7  -6  790.52   78.19
   2  -7   6  809.22   78.69
  -3   7  -6  118.99   14.10
  -3   7  -6  111.19   14.40
   3  -7   6   89.09   17.20
  -4   7  -6  252.37   29.50
  -4   7  -6  298.17   29.30
   4  -7   6  256.17   32.80
  -5   7  -6  111.99   18.70
  -5   7  -6  109.39   14.80
   5  -7   6  133.39   19.10
  -6   7  -6   37.50    6.40
  -6   7  -6   33.10    7.70
   6  -7   6   44.20   11.60
   6  -7   6   -5.70   16.60
  -7   7  -6  437.26   45.30
  -7   7  -6  464.55   44.10
   7  -7   6  395.36   46.90
  -8   7  -6   -1.90    3.90
  -8   7  -6    0.60    3.90
  -8   7  -6    3.30    4.70
   8  -7   6    1.90   18.10
  -9   7  -6   -0.80    4.10
  -9   7  -6    4.90    6.20
  -9   7  -6    8.20    5.10
   9  -7   6   17.40   17.60
 -10   7  -6   82.79   11.70
  10  -7   6   87.99   20.40
 -11  -6   6   -4.10    3.30
  10   6  -6   65.79   15.70
 -10  -6   6   60.09    8.90
   9   6  -6   -3.70    8.90
   9   6  -6   21.30   11.00
  -9  -6   6   -3.20    3.50
   8   6  -6    7.70   12.40
   8   6  -6    0.80    9.10
  -8  -6   6   -1.30    3.50
   7   6  -6  173.58   21.40
   7   6  -6  124.09   22.70
  -7  -6   6  128.29   16.40
   6   6  -6   61.09   13.30
   6   6  -6   61.09   16.00
  -6  -6   6   44.20   10.80
  -6  -6   6   75.59    9.50
   5   6  -6   19.90    9.80
   5   6  -6   -5.00   10.00
   5   6  -6   16.80    8.00
  -5  -6   6   10.70    4.20
  -5  -6   6   14.30    6.20
   4   6  -6  552.44   62.89
   4   6  -6  607.14   63.79
  -4  -6   6  649.83   63.29
  -4  -6   6  647.54   60.79
   3   6  -6  104.49   14.20
  -3  -6   6   80.59   10.60
  -3  -6   6   91.89   12.70
   2   6  -6   -5.50    5.70
   2   6  -6   -1.00    4.60
  -2  -6   6    1.00    3.90
  -2  -6   6    1.40    2.40
   1   6  -6  105.39   13.70
   1   6  -6   86.29   13.00
  -1  -6   6   71.49   14.50
  -1  -6   6  100.39   12.70
   0   6  -6   24.10    6.90
   0   6  -6   28.60    7.50
   0  -6   6   16.90    7.90
   0  -6   6   21.50    6.40
  -1   6  -6  336.27   35.40
  -1   6  -6  328.97   35.60
  -2   6  -6  303.37   36.00
  -2   6  -6  351.06   36.40
   2  -6   6  391.56   37.00
  -3   6  -6  148.49   19.20
  -3   6  -6  157.38   17.70
   3  -6   6  143.99   20.60
  -4   6  -6  113.79   14.10
   4  -6   6  117.69   18.10
  -5   6  -6    1.00    3.40
   5  -6   6    1.20    5.40
   5  -6   6    0.50   11.60
  -6   6  -6  165.58   19.70
   6  -6   6  164.58   22.00
  -7   6  -6  104.79   15.00
  -7   6  -6  147.99   16.50
   7  -6   6  129.59   17.90
  -8   6  -6   36.10    8.10
  -8   6  -6   62.09   10.30
   8  -6   6   38.80   21.90
  -9   6  -6   30.70    6.10
  -9   6  -6   33.90    7.20
   9  -6   6   59.39   21.20
 -10   6  -6   61.49    9.40
 -10   6  -6   40.60    7.30
  10  -6   6   56.29   16.40
  11  -6   6    7.30    6.60
  10   5  -6    7.20   12.70
  10   5  -6   -6.70    9.60
 -10  -5   6    0.20   13.80
 -10  -5   6   -2.10    3.80
   9   5  -6   26.30   11.80
   9   5  -6   25.40   15.60
  -9  -5   6   20.90   16.20
  -9  -5   6   25.00    5.70
   8   5  -6  420.06   46.10
  -8  -5   6  413.56   42.30
  -8  -5   6  411.16   51.29
   7   5  -6  102.69   16.60
   7   5  -6   43.00   19.30
  -7  -5   6   95.19   23.00
  -7  -5   6   87.89   11.40
   6   5  -6  317.07   38.80
  -6  -5   6  381.96   44.30
  -6  -5   6  373.56   36.50
   5   5  -6    6.70   10.30
   5   5  -6   32.00   12.80
  -5  -5   6   50.39   15.80
  -5  -5   6   29.90    8.50
  -5  -5   6   48.30    6.80
   4   5  -6   68.79   14.60
  -4  -5   6   74.69   11.20
   3   5  -6  530.95   63.19
  -3  -5   6  698.33   60.99
   2   5  -6  772.42   71.59
  -2  -5   6  665.33   71.69
   1   5  -6    7.60    4.10
  -1  -5   6   10.40    6.70
   0   5  -6 1076.49  105.19
  -1   5  -6   71.19   12.30
  -2   5  -6   -3.20    4.40
   2  -5   6    3.10    4.90
  -3   5  -6  430.56   45.20
   3  -5   6  452.25   47.70
  -4   5  -6  108.69   14.00
   4  -5   6  123.59   16.90
  -5   5  -6   93.99   12.30
   5  -5   6   91.79   14.40
  -6   5  -6  395.46   42.80
   6  -5   6  425.96   44.40
  -7   5  -6    7.70    5.10
   7  -5   6    2.60    4.30
   7  -5   6   14.90   15.80
  -8   5  -6   25.40    6.10
   8  -5   6   13.60   16.70
  -9   5  -6  128.49   16.40
   9  -5   6  120.59   25.80
 -10   5  -6   19.90    4.90
 -10   5  -6   17.20    5.70
  10  -5   6   23.20   11.30
 -11   5  -6   -4.00    3.70
  11  -5   6   -0.60    5.50
 -11  -4   6   14.40   13.40
  10   4  -6   10.50   16.90
  10   4  -6    7.60   10.50
 -10  -4   6    6.90   14.40
 -10  -4   6   -1.50    3.90
   9   4  -6   60.29   14.80
   9   4  -6   14.40   16.50
  -9  -4   6   39.70    9.70
  -9  -4   6   58.19    8.40
  -9  -4   6   28.20   18.00
   8   4  -6  290.97   34.90
  -8  -4   6  284.97   39.70
  -8  -4   6  284.47   30.00
   7   4  -6   -0.10   10.00
   7   4  -6    4.40   14.50
  -7  -4   6    3.20    3.40
  -7  -4   6    4.90   13.20
  -6  -4   6  150.68   25.90
  -6  -4   6  151.58   16.80
  -5  -4   6  255.97   31.60
  -5  -4   6  245.48   24.00
  -5  -4   6  186.68   25.20
   4   4  -6   -6.70    7.90
   4   4  -6    2.90    6.00
  -4  -4   6    3.90    4.40
  -4  -4   6    8.30    2.80
  -4  -4   6    1.60   10.80
   3   4  -6  223.58   22.20
  -3  -4   6  230.18   23.50
  -3  -4   6  174.58   20.80
   2   4  -6   69.09    9.50
   1   4  -6  105.79   12.40
   0   4  -6 3103.39  299.77
  -1   4  -6  160.38   17.30
  -2   4  -6  114.89   13.60
   2  -4   6  121.19   16.30
  -3   4  -6  388.56   45.30
   3  -4   6  505.35   47.30
  -4   4  -6    6.20   29.50
  -4   4  -6    2.80    3.50
   4  -4   6    6.20    9.70
   4  -4   6    7.90    5.20
  -5   4  -6   16.60    5.10
  -5   4  -6   17.20   20.00
   5  -4   6   21.00    6.80
   5  -4   6    6.60   12.20
  -6   4  -6  237.18   36.80
   6  -4   6  206.58   25.10
  -7   4  -6    9.10   22.30
   7  -4   6    5.60    4.70
   7  -4   6    8.50   14.40
  -8   4  -6   49.99    8.80
  -8   4  -6   63.39   24.90
   8  -4   6   40.10   10.00
   8  -4   6   40.60   16.70
  -9   4  -6    4.00   23.60
   9  -4   6   49.40   15.20
   9  -4   6   18.20    7.20
 -10   4  -6   41.30    8.10
 -10   4  -6   -0.90   35.60
  10  -4   6   67.89   14.90
 -11   4  -6    6.40    3.70
  11  -4   6    3.60    5.20
 -12  -3   6    2.90   15.50
  11   3  -6   26.60   17.00
  11   3  -6   12.40   13.00
 -11  -3   6    2.90    4.30
 -11  -3   6    6.80   12.50
 -11  -3   6   15.00    7.00
  10   3  -6  141.99   22.70
 -10  -3   6  137.69   15.90
 -10  -3   6  114.39   26.00
 -10  -3   6  137.29   17.50
   9   3  -6   22.50   19.50
   9   3  -6   47.60   15.80
  -9  -3   6   27.60   17.30
  -9  -3   6   22.10    8.40
  -9  -3   6   34.00    6.60
   8   3  -6   -1.00   18.30
   8   3  -6  -13.30   12.10
  -8  -3   6   -1.30    3.70
  -8  -3   6   -7.70   13.60
  -8  -3   6    1.70    3.80
  -8  -3   6    4.30    5.50
  -7  -3   6  161.78   26.20
  -7  -3   6  114.39   14.10
  -7  -3   6  107.59   15.10
   6   3  -6  -14.10   12.50
  -6  -3   6    6.50    4.40
  -6  -3   6    7.10    3.30
  -6  -3   6   22.10   13.30
   5   3  -6  -10.50   10.10
  -5  -3   6    8.50    7.90
  -5  -3   6   12.20    3.40
  -5  -3   6    6.70    4.80
  -5  -3   6   11.40   11.10
   4   3  -6  761.42   73.39
  -4  -3   6  849.61   78.89
  -4  -3   6  723.13   73.09
  -4  -3   6  652.53   74.39
  -3  -3   6   35.80    5.80
   2   3  -6   16.60    4.40
   1   3  -6  217.38   22.50
   0   3  -6   40.60    6.10
  -1   3  -6  226.78   23.00
  -1   3  -6  216.58   27.30
  -2   3  -6  604.44   59.29
  -2   3  -6  577.84   63.69
   2  -3   6  622.64   61.39
   3  -3   6   32.50    7.30
   4  -3   6  152.28   15.70
   4  -3   6  112.59   13.00
   4  -3   6   75.29   20.40
  -5   3  -6  344.87   45.00
   5  -3   6  326.37   44.30
   5  -3   6  375.56   37.60
  -6   3  -6   43.30   23.20
   6  -3   6   40.20   15.20
   6  -3   6   26.70    7.40
  -7   3  -6   31.00   22.90
   7  -3   6   67.99   18.80
   7  -3   6   46.50    9.60
  -8   3  -6   25.70   23.00
   8  -3   6   29.00    7.80
   8  -3   6   54.49    9.70
   8  -3   6   56.99   16.20
  -9   3  -6    2.30   21.60
  -9   3  -6    5.10    5.90
   9  -3   6   -6.50    5.60
   9  -3   6   14.20    9.10
 -10   3  -6   -0.50   22.50
 -10   3  -6   40.40    8.30
  10  -3   6   71.39   14.20
 -11   3  -6   16.30   30.20
 -11   3  -6   10.30    3.90
  11  -3   6    8.10    5.40
  12   2  -6   22.10   13.40
 -12  -2   6   -5.80   10.10
  11   2  -6   16.20   20.20
 -11  -2   6    5.20   12.30
 -11  -2   6   10.90    6.60
  10   2  -6  172.68   33.90
 -10  -2   6  155.98   30.30
 -10  -2   6  208.68   21.40
 -10  -2   6  229.08   23.20
   9   2  -6  207.48   35.40
  -9  -2   6  143.29   28.80
  -9  -2   6  164.18   17.30
   8   2  -6   -4.40   17.40
  -8  -2   6    2.00    2.70
  -8  -2   6    5.80   14.40
  -8  -2   6   -0.10    5.30
  -8  -2   6    0.70    3.80
  -7  -2   6  293.87   31.70
  -7  -2   6  361.46   42.80
  -7  -2   6  319.47   32.90
  -7  -2   6  312.67   32.70
  -7  -2   6  314.97   33.80
  -6  -2   6    4.10   12.00
  -6  -2   6   24.90    5.30
  -6  -2   6   27.90    6.00
  -6  -2   6   24.50    5.40
  -6  -2   6   23.80    3.70
   5   2  -6  -11.90    9.30
  -5  -2   6   12.20   11.70
  -5  -2   6    2.90    2.00
  -5  -2   6    0.20    2.90
  -5  -2   6    1.60    3.50
  -5  -2   6   -1.30    2.90
   4   2  -6  916.41   85.69
  -4  -2   6  841.82   84.99
  -4  -2   6  958.20   86.19
  -4  -2   6  799.22   85.89
  -4  -2   6  873.81   85.79
   3   2  -6   45.30    6.50
  -3  -2   6   39.20    6.10
  -3  -2   6   44.60    6.60
   2   2  -6  222.88   23.00
   1   2  -6 1445.76  140.29
   0   2  -6    2.50    2.90
  -1   2  -6  116.69   13.00
  -2   2  -6  544.15   49.50
   2  -2   6  451.95   49.20
   2  -2   6  582.44   51.19
   2  -2   6  428.36   49.30
   3  -2   6   -9.50    6.40
   3  -2   6    2.10    3.10
   3  -2   6    2.00    2.50
   3  -2   6    1.90    3.00
   3  -2   6    1.00    2.40
   4  -2   6  136.19   14.20
   4  -2   6  108.59   12.00
   4  -2   6   82.19   13.00
   4  -2   6  105.79   19.30
  -5   2  -6  149.29   27.10
   5  -2   6  107.29   15.00
   5  -2   6  133.39   21.50
  -6   2  -6   12.50   19.00
   6  -2   6    1.50    3.20
   6  -2   6    2.60    7.90
  -7   2  -6  265.77   38.40
   7  -2   6  222.08   25.00
   7  -2   6  202.88   29.10
   7  -2   6  198.68   23.20
  -8   2  -6    6.00   20.90
   8  -2   6   16.90    5.70
   8  -2   6   26.20   10.30
   8  -2   6    8.10    5.60
  -9   2  -6   38.90   20.90
 -10   2  -6    0.50   21.90
  10  -2   6   59.19   12.40
 -11   2  -6   30.20    5.50
 -11   2  -6   22.40   35.20
  11  -2   6   16.40    6.50
  12   1  -6   -2.30   14.70
 -12  -1   6    4.50   11.00
  11   1  -6   40.80   22.50
 -11  -1   6    0.40   11.80
 -11  -1   6   24.10    6.60
  10   1  -6   31.70   23.80
 -10  -1   6   76.29   20.10
 -10  -1   6   51.39    7.10
   9   1  -6   17.60   21.00
  -9  -1   6   17.60    6.80
  -9  -1   6    2.80   12.40
  -9  -1   6   13.40    4.70
  -9  -1   6    8.30    3.10
  -8  -1   6  115.99   15.30
  -8  -1   6   90.89   24.10
  -8  -1   6  103.59   11.90
  -8  -1   6  108.39   13.00
  -7  -1   6   86.79   13.10
  -7  -1   6  111.49   24.70
  -7  -1   6   93.49   12.10
  -7  -1   6   82.99   10.20
  -7  -1   6   88.59   11.30
  -6  -1   6    2.60    4.00
  -6  -1   6    1.60    2.10
  -6  -1   6    7.00    3.30
  -6  -1   6    2.40    3.20
  -6  -1   6    8.50    3.10
  -5  -1   6  284.77   28.70
  -5  -1   6  321.17   29.90
  -5  -1   6  296.37   29.10
  -5  -1   6  270.47   29.50
  -5  -1   6  287.67   30.20
  -5  -1   6  268.17   36.80
  -4  -1   6   17.10    4.20
  -4  -1   6   48.40   15.90
  -4  -1   6   20.70    3.50
  -4  -1   6   15.80    4.40
  -4  -1   6   11.90    3.60
   3   1  -6   29.70    5.20
  -3  -1   6   36.50    4.90
  -3  -1   6   34.00    5.60
  -3  -1   6   29.40    5.70
  -3  -1   6   46.50    5.30
  -3  -1   6   31.50    5.50
   2   1  -6  203.38   21.30
  -2  -1   6  214.18   22.90
   1   1  -6  529.85   52.19
   0   1  -6  267.57   27.20
  -1   1  -6  197.08   17.90
   1  -1   6  174.38   17.40
   1  -1   6  149.19   17.50
   1  -1   6  146.89   17.20
   1  -1   6  173.78   18.30
  -2   1  -6   65.79    9.00
   2  -1   6   63.09    7.70
   2  -1   6   51.09    7.60
   2  -1   6   71.59    8.10
   2  -1   6   73.29    9.40
   2  -1   6   54.09    8.40
  -3   1  -6  324.07   30.40
   3  -1   6  284.57   29.10
   3  -1   6  258.17   32.40
   3  -1   6  310.47   29.60
   3  -1   6  249.97   30.50
   3  -1   6  278.47   29.60
   3  -1   6  329.57   31.20
   4  -1   6   41.20   10.80
   4  -1   6   49.70    7.20
   4  -1   6   49.70    8.20
   4  -1   6   47.60    6.50
   4  -1   6   34.40    7.80
  -5   1  -6   64.49   23.20
   5  -1   6   27.70    7.30
   5  -1   6   34.50    7.60
   5  -1   6   36.30   10.40
   5  -1   6   30.00    7.00
   5  -1   6   32.80    6.70
  -6   1  -6   40.80   22.80
   6  -1   6   29.70    6.60
   6  -1   6   43.70   11.50
   6  -1   6   40.70    8.50
  -7   1  -6   -3.00   18.50
   7  -1   6   -2.10    3.10
   7  -1   6    2.00    5.50
   7  -1   6    1.10    4.40
  -8   1  -6   -1.00   18.30
   8  -1   6    0.10    3.90
   8  -1   6    1.30    5.20
   8  -1   6    3.30    4.40
 -10   1  -6    3.90   20.20
  10  -1   6    4.30    5.70
  10  -1   6   -4.00    5.90
 -12   0   6   -2.90   14.10
  11   0  -6   18.50   24.00
 -11   0   6   79.69    8.70
  10   0  -6   28.10   24.20
 -10   0   6   10.20   14.30
 -10   0   6   28.40    4.70
 -10   0   6   48.90    8.50
   9   0  -6  -11.90   19.20
  -9   0   6   21.90    4.20
  -9   0   6   28.90   17.20
  -9   0   6   29.90    7.90
  -8   0   6  208.18   20.20
  -8   0   6  167.88   19.50
  -8   0   6  197.18   22.50
  -8   0   6  177.98   20.40
  -7   0   6    0.80    3.70
  -7   0   6   -2.70   14.60
  -7   0   6    2.40    2.30
  -7   0   6   -0.90    5.20
  -7   0   6    4.20    3.10
  -6   0   6  125.49   16.10
  -6   0   6  159.28   17.60
  -6   0   6  136.69   16.30
  -6   0   6  147.99   15.70
  -6   0   6  151.78   15.30
  -5   0   6  746.23   71.69
  -5   0   6  716.63   72.19
  -5   0   6  702.23   79.19
  -5   0   6  679.93   72.29
  -5   0   6  790.82   71.49
  -5   0   6  747.33   72.89
  -4   0   6   20.30    4.60
  -4   0   6   49.20   17.10
  -4   0   6   19.50    5.10
  -4   0   6   19.60    3.70
  -4   0   6   30.20    4.70
  -4   0   6   19.40    4.90
  -3   0   6  124.09   13.40
  -3   0   6  127.79   13.10
  -3   0   6  111.09   14.10
  -3   0   6  125.89   12.80
  -3   0   6  135.49   13.90
  -3   0   6  101.19   13.80
  -2   0   6  796.52   70.99
  -2   0   6  711.93   70.39
  -2   0   6  693.73   70.49
  -2   0   6  669.23   70.19
  -2   0   6  675.93   70.99
  -2   0   6  714.43   70.09
  -2   0   6  777.42   71.59
   1   0  -6    6.10    3.10
  -1   0   6   10.60    2.80
  -1   0   6    9.70    4.20
  -1   0   6   11.40    3.60
  -1   0   6   11.00    3.80
  -1   0   6   10.70    4.30
  -1   0   6    6.00    2.30
  -1   0   6   12.70    3.40
  -1   0   6    6.20    2.80
   0   0  -6  295.17   31.00
   0   0   6  310.27   31.10
   0   0   6  292.07   32.00
   0   0   6  272.37   31.50
   0   0   6  311.27   30.80
   0   0   6  295.77   30.80
   0   0   6  372.06   31.80
   0   0   6  291.57   30.90
   0   0   6  348.77   32.50
  -1   0  -6  463.65   46.30
   1   0   6  481.85   46.10
   1   0   6  421.56   46.20
   1   0   6  487.25   46.70
   1   0   6  506.75   47.70
   1   0   6  431.56   45.90
   1   0   6  478.75   47.70
   2   0   6    1.00    2.20
   2   0   6   -0.20    2.20
   2   0   6    2.10    2.90
   2   0   6    1.00    2.60
   2   0   6   -1.90    3.00
   2   0   6    2.70    4.70
   2   0   6    0.60    2.80
   3   0   6  283.27   30.10
   3   0   6  289.77   30.90
   3   0   6  307.77   32.20
   3   0   6  323.27   30.70
   3   0   6  285.37   32.00
   3   0   6  320.97   31.20
   4   0   6   91.59   10.30
   4   0   6   72.29    9.80
   4   0   6   90.39   11.60
   4   0   6   70.39   10.90
   4   0   6   84.39   13.80
  -5   0  -6   -6.30   19.10
   5   0   6   12.40    3.90
   5   0   6    8.80    6.10
   5   0   6    8.90    4.10
   5   0   6    6.70    3.90
  -6   0  -6  263.17   43.50
   6   0   6  243.98   29.00
   6   0   6  342.57   35.30
   6   0   6  292.27   31.30
  -7   0  -6   -6.50   18.30
   7   0   6   14.70    8.10
   7   0   6    4.00    4.50
   7   0   6   12.50    5.30
  -8   0  -6    1.30   18.40
   8   0   6   -0.40    3.70
   8   0   6    2.70    5.20
   8   0   6    0.70    3.70
   8   0   6    4.00    6.90
  -9   0  -6   31.30   20.40
   9   0   6   37.30    9.40
 -10   0  -6    8.70   19.90
  10   0   6    6.30    6.50
  10   0   6   10.20    5.20
  11  -1  -6   17.20   24.00
 -11   1   6   66.59    7.20
 -11   1   6   37.30   18.10
  10  -1  -6   19.60   23.70
 -10   1   6    5.20    5.10
 -10   1   6   18.20   16.00
  -9   1   6   29.00    5.40
  -9   1   6   49.40    9.80
  -9   1   6   21.20   17.40
  -9   1   6   52.69    8.00
  -8   1   6   69.09    9.50
  -8   1   6   68.99   11.50
  -8   1   6   57.89    8.20
  -7   1   6    3.50    2.70
  -7   1   6    0.50    3.20
  -7   1   6    3.30    3.50
  -7   1   6   34.30   19.00
  -7   1   6   -0.90    4.80
  -6   1   6    0.70    3.20
  -6   1   6   -0.40    2.80
  -6   1   6    3.90    4.50
  -6   1   6    8.00   16.30
  -6   1   6   -0.60    3.20
  -6   1   6    0.20    2.30
  -5   1   6   64.89    9.40
  -5   1   6   71.09    9.10
  -5   1   6   66.29    8.60
  -5   1   6   68.59   10.20
  -5   1   6   67.49    8.20
  -4   1   6   54.69    7.30
  -4   1   6   52.39    6.60
  -4   1   6   52.59    8.70
  -4   1   6   45.90    7.10
  -4   1   6   56.09    7.90
  -3   1   6   11.20    3.40
  -3   1   6    9.60    4.30
  -3   1   6    7.90    3.20
  -3   1   6   10.70    3.80
  -3   1   6   12.10    2.70
  -3   1   6   14.80    4.50
  -3   1   6    8.80    2.70
  -2   1   6  100.89   12.30
  -2   1   6  118.59   12.90
  -2   1   6  108.09   13.90
  -2   1   6  121.99   12.60
  -2   1   6  124.19   12.80
  -2   1   6  113.29   14.10
  -2   1   6  114.59   13.00
  -2   1   6  126.69   13.50
  -1   1   6  347.97   33.00
  -1   1   6  350.96   33.50
  -1   1   6  268.07   33.40
  -1   1   6  304.67   33.90
  -1   1   6  322.57   33.10
  -1   1   6  331.77   32.90
  -1   1   6  347.77   32.90
  -1   1   6  376.66   34.90
  -1   1   6  313.27   32.60
   0   1   6   10.70    3.30
   0   1   6   12.30    4.60
   0   1   6   11.50    5.10
   0   1   6   13.30    4.60
   0   1   6   14.90    4.40
   0   1   6   18.30    3.60
   0   1   6   13.10    3.70
   0   1   6   15.40    3.00
   1   1   6   68.29    8.40
   1   1   6   72.09    9.80
   1   1   6   71.39   10.00
   1   1   6   67.89    9.10
   1   1   6   65.49   11.50
   1   1   6   63.99    8.40
   1   1   6   78.59    9.30
   2   1   6  132.69   14.70
   2   1   6  140.69   15.90
   2   1   6   98.89   16.40
   2   1   6  138.99   15.90
   2   1   6  120.09   13.90
   2   1   6  148.39   14.40
   2   1   6  132.19   14.70
   3   1   6   64.59    9.70
   3   1   6   57.59    9.00
   3   1   6   53.99    8.30
   3   1   6   55.39    7.40
   3   1   6   51.89    7.80
   3   1   6   44.70   10.70
   3   1   6   57.59    8.80
   4   1   6   29.10    5.50
   4   1   6   23.10    8.40
   4   1   6   20.40    4.80
   4   1   6   11.50    5.30
   4   1   6   20.70    5.90
   4   1   6   20.00   12.10
  -5  -1  -6   17.40   19.30
   5   1   6   23.50    5.30
   5   1   6   32.90   10.30
   5   1   6   26.80    6.60
   5   1   6   19.00    5.20
   5   1   6   15.90    8.50
  -6  -1  -6   22.80   21.60
   6   1   6   23.20    9.80
   6   1   6   15.20    4.90
   6   1   6   25.90    9.40
   6   1   6   19.20    6.10
  -7  -1  -6    5.90   11.20
  -7  -1  -6    1.50   19.10
   7   1   6    9.40    4.60
   7   1   6   11.30    6.00
   7   1   6   11.10    8.20
   7   1   6    3.30    3.40
   8   1   6   55.19   12.10
   8   1   6   50.09    9.40
   8   1   6   39.60   10.70
  -9  -1  -6   26.60   18.40
   9   1   6   31.00    7.80
   9   1   6   13.00    7.30
 -10  -1  -6   -5.20   18.50
  10   1   6   -3.60    3.70
  11  -2  -6    7.10   21.20
 -11   2   6    4.00    2.30
 -11   2   6    6.60    4.70
  10  -2  -6   -8.10   22.70
 -10   2   6   15.70   15.80
 -10   2   6   37.80    7.60
 -10   2   6   26.20    4.50
 -10   2   6   34.40    5.90
  -9   2   6  150.98   17.30
  -9   2   6  139.29   15.40
  -9   2   6  112.99   14.40
  -8   2   6   19.10    5.20
  -8   2   6   25.50    6.60
  -8   2   6    9.30    3.50
  -8   2   6   -1.50   18.80
  -7   2   6  229.08   20.80
  -7   2   6  215.08   38.70
  -7   2   6  154.38   21.70
  -7   2   6  170.88   19.90
  -6   2   6  344.37   32.50
  -6   2   6  265.17   33.00
  -6   2   6  303.07   34.10
  -6   2   6  328.87   32.60
  -6   2   6  329.27   32.10
  -5   2   6   12.50    4.10
  -5   2   6   17.60    5.90
  -5   2   6   10.60    4.30
  -5   2   6    9.80    3.90
  -5   2   6   12.10    3.20
  -4   2   6  120.79   14.10
  -4   2   6  118.59   15.50
  -4   2   6  122.89   14.10
  -4   2   6  129.99   14.60
  -4   2   6  133.09   13.80
  -3   2   6  188.98   20.10
  -3   2   6  217.08   20.80
  -3   2   6  149.99   20.60
  -3   2   6  209.08   20.00
  -3   2   6  218.68   20.00
  -3   2   6  190.48   19.50
  -3   2   6  158.28   19.90
  -3   2   6  188.98   21.40
  -2   2   6   37.50    6.10
  -2   2   6   37.10    6.20
  -2   2   6   34.20    7.30
  -2   2   6   30.40    7.10
  -2   2   6   35.70    5.80
  -2   2   6   33.70    5.40
  -2   2   6   30.90    5.30
  -1   2   6  751.02   65.09
  -1   2   6  662.73   66.59
  -1   2   6  639.94   65.09
  -1   2   6  602.64   65.19
  -1   2   6  635.04   65.39
  -1   2   6  620.84   64.59
  -1   2   6  716.43   66.89
   0   2   6  156.98   17.60
   0   2   6  158.08   16.80
   0   2   6  174.28   19.40
   0   2   6  184.68   19.00
   0   2   6  147.89   16.80
   0   2   6  154.08   18.80
   0   2   6  157.48   17.40
   0   2   6  148.49   18.10
   1   2   6   85.79   11.60
   1   2   6   88.19   14.80
   1   2   6   84.79   11.60
   1   2   6   77.59   10.60
   1   2   6   80.59   10.10
   1   2   6   84.69   11.40
   1   2   6   97.79   10.20
   2   2   6  352.46   46.00
   2   2   6  436.96   45.20
   2   2   6  437.56   43.10
   2   2   6  455.95   43.90
   2   2   6  454.45   43.90
   2   2   6  458.55   43.30
   3   2   6    3.20    4.90
   3   2   6   -1.60    3.30
   3   2   6    0.40    5.50
   3   2   6   10.90    3.20
   3   2   6    4.50    3.30
   3   2   6    1.30    3.30
  -4  -2  -6   14.20   19.20
   4   2   6    4.80    5.50
   4   2   6    1.30    3.50
   4   2   6    3.80    3.60
   4   2   6    4.40    3.50
   4   2   6    4.60    5.90
   4   2   6    2.80    4.30
  -5  -2  -6  247.28   38.70
   5   2   6  249.97   25.30
   5   2   6  230.38   27.30
   5   2   6  249.28   30.20
   5   2   6  253.87   30.30
   5   2   6  221.48   25.20
   6   2   6   62.39   10.50
   6   2   6   55.79    8.50
   6   2   6   59.59   13.80
   6   2   6   67.89   13.40
  -7  -2  -6   26.60   20.00
  -7  -2  -6   33.10   12.10
   7   2   6   23.30    8.60
   7   2   6   19.10    4.60
  -8  -2  -6   79.39   13.90
   8   2   6   77.59   13.40
   8   2   6   64.39   10.70
  -9  -2  -6    8.90   16.60
   9   2   6   -1.50    5.90
   9   2   6    4.70    4.00
 -11   3   6    0.70    2.40
  10  -3  -6  -17.10   18.70
 -10   3   6    4.00    4.70
 -10   3   6    5.10    2.50
 -10   3   6    0.70    3.80
  -9   3   6   13.40    4.60
  -9   3   6    7.50    3.10
  -9   3   6    8.70    5.60
  -8   3   6   -1.50    4.30
  -8   3   6    3.30    2.90
  -8   3   6    6.30    5.20
  -7   3   6  124.79   13.80
  -7   3   6  111.29   12.80
  -7   3   6   94.59   15.10
  -6   3   6   98.49   10.30
  -6   3   6   70.39   12.30
  -6   3   6   74.59   10.50
  -5   3   6    4.40    3.20
  -5   3   6    6.70    5.30
  -5   3   6    7.00    3.70
  -5   3   6    9.70    4.00
  -4   3   6  118.39   12.50
  -4   3   6   91.39   12.20
  -4   3   6  106.59   11.80
  -4   3   6   83.89   13.30
  -3   3   6   23.50    5.40
  -3   3   6   21.30    4.60
  -3   3   6   19.50    5.10
  -3   3   6   25.40    4.50
  -3   3   6   23.40    6.80
  -3   3   6   28.50    5.60
  -2   3   6  165.78   17.70
  -2   3   6  170.98   18.30
  -2   3   6  177.78   20.20
  -2   3   6  166.68   18.90
  -2   3   6  150.38   18.00
  -2   3   6  175.48   18.50
  -1   3   6   62.49    7.90
  -1   3   6   55.69    8.20
  -1   3   6   60.79   10.00
  -1   3   6   49.40    9.10
  -1   3   6   58.79    9.10
  -1   3   6   67.99   12.80
  -1   3   6   60.59    7.90
   0   3   6  106.19   13.20
   0   3   6  108.59   15.70
   0   3   6   98.79   11.90
   0   3   6   90.89   13.20
   0   3   6  101.89   12.40
   0   3   6  119.89   12.00
   0   3   6   98.69   15.30
   1   3   6   11.80    7.60
   1   3   6   15.60    5.20
   1   3   6   10.80    4.50
   1   3   6   12.20    3.70
   1   3   6    9.70    3.40
   1   3   6    8.00    3.40
   2   3   6  219.68   22.30
   2   3   6  205.48   23.10
   2   3   6  216.88   20.90
   2   3   6  153.18   20.50
   2   3   6  173.68   24.30
   2   3   6  221.18   21.90
   3   3   6    2.20    3.30
   3   3   6    0.40    3.10
   3   3   6   -3.20    6.30
   3   3   6    7.10    4.00
   3   3   6    6.00    5.40
   3   3   6    3.20    3.20
   3   3   6   -0.70    6.20
  -4  -3  -6   -2.80   18.20
   4   3   6    2.90    3.90
   4   3   6    0.00    6.40
   4   3   6    1.50    4.80
   4   3   6    1.50    3.20
   4   3   6   -1.90    2.80
   4   3   6   -0.30    3.60
  -5  -3  -6   77.29   25.80
   5   3   6   76.19   12.10
   5   3   6   72.19   10.50
   5   3   6   94.99   15.70
   5   3   6   90.89   13.20
   5   3   6   85.59   11.30
  -6  -3  -6   -6.10   18.70
   6   3   6   17.00    5.30
   6   3   6    6.00    6.80
   6   3   6   12.00    3.70
   6   3   6   12.50    6.70
  -7  -3  -6   14.00   17.80
  -7  -3  -6    9.80    9.30
   7   3   6    6.90    5.70
   7   3   6    5.80    4.00
   7   3   6   -1.10    6.20
   7   3   6    2.10    3.50
  -8  -3  -6   17.00   16.10
  -8  -3  -6   25.40    9.80
   8   3   6   33.80    8.10
   8   3   6   23.00    8.10
  10  -4  -6    2.00   16.10
 -10   4   6   30.70    6.20
 -10   4   6   17.60    3.70
 -10   4   6   22.10    4.90
  -9   4   6    1.50    4.70
  -9   4   6    6.20    5.30
  -9   4   6   10.10    3.60
  -8   4   6  137.79   18.30
  -8   4   6  137.49   15.80
  -8   4   6  146.09   16.70
  -7   4   6   30.50    5.80
  -7   4   6   17.40    5.00
  -7   4   6   26.20    7.90
  -6   4   6    1.00    3.40
  -6   4   6    3.90    4.10
  -6   4   6    7.20    5.60
  -5   4   6  128.89   14.90
  -5   4   6  136.19   14.80
  -5   4   6  118.19   17.50
  -4   4   6   -4.70    3.30
  -4   4   6   -5.30    4.20
  -4   4   6    4.50    5.10
  -4   4   6   -6.50    4.00
  -4   4   6   -1.10    3.00
  -3   4   6   77.59   10.50
  -3   4   6   42.10   10.50
  -3   4   6   72.99    8.90
  -3   4   6   68.49    9.30
  -3   4   6   65.79   10.90
  -3   4   6   67.29    9.60
  -2   4   6  546.05   55.89
  -2   4   6  557.74   55.79
  -2   4   6  568.04   55.69
  -2   4   6  560.44   55.49
  -2   4   6  546.65   54.99
  -1   4   6    4.00    5.30
  -1   4   6    2.10    2.70
  -1   4   6    4.00    2.70
  -1   4   6    0.20    3.90
  -1   4   6    7.20    6.90
  -1   4   6    1.50    2.90
   0   4   6   28.50    7.00
   0   4   6   25.60    6.10
   0   4   6   34.60    9.10
   0   4   6   21.70    8.70
   0   4   6   27.00    5.60
   0   4   6   35.60    7.10
   0   4   6   41.90    6.20
   1   4   6  292.07   29.90
   1   4   6  289.77   29.10
   1   4   6  265.77   29.00
   2   4   6    5.90    4.00
   2   4   6    5.60    5.90
   2   4   6    3.20    3.30
   2   4   6   10.30    6.00
   2   4   6    2.90    3.10
   2   4   6    3.40    2.90
   2   4   6    9.60    5.70
  -3  -4  -6    7.10   18.30
   3   4   6   12.30    4.40
   3   4   6    8.20    3.80
   3   4   6    7.40    4.50
   3   4   6   11.80    6.60
   3   4   6   13.00    4.60
   3   4   6   10.50    6.60
  -4  -4  -6   68.29   23.10
   4   4   6   82.39   16.60
   4   4   6  134.69   14.20
   4   4   6  117.79   17.50
   4   4   6  108.09   12.20
   4   4   6  108.39   12.60
   4   4   6   78.79   13.70
  -5  -4  -6   -7.70   17.40
   5   4   6    7.80    3.70
   5   4   6    4.40    7.50
   5   4   6    7.60    4.80
   5   4   6   12.60    6.30
   5   4   6   13.40    5.40
   5   4   6   20.70    8.60
  -6  -4  -6   73.29   14.50
   6   4   6  103.59   15.80
   6   4   6   77.89   10.40
  -7  -4  -6   -9.40   14.80
  -7  -4  -6   16.90    8.30
   7   4   6   14.40    6.10
   7   4   6    2.30    6.60
  -9   5   6    7.80    4.90
  -8   5   6  158.28   19.90
  -8   5   6  173.28   20.60
  -8   5   6  178.58   18.40
  -7   5   6   81.19   10.60
  -7   5   6   88.39   13.40
  -7   5   6   78.29   11.40
  -6   5   6    2.50    5.20
  -6   5   6   -0.40    3.70
  -6   5   6    0.80    5.60
  -5   5   6  119.99   13.10
  -5   5   6  105.99   14.10
  -5   5   6   84.49   14.20
  -4   5   6    8.80    3.40
  -4   5   6   -1.70    4.90
  -4   5   6    8.50    5.90
  -4   5   6   -1.40    5.50
  -4   5   6    1.90    4.20
  -3   5   6   19.20    5.80
  -3   5   6   16.70    4.60
  -3   5   6   13.70    6.50
  -3   5   6   18.40    4.70
  -3   5   6   13.10    5.30
  -3   5   6   10.30    6.20
  -2   5   6  219.68   23.30
  -2   5   6  191.38   24.90
  -2   5   6  219.78   24.80
  -2   5   6  201.58   22.90
  -2   5   6  226.48   22.50
  -2   5   6  205.98   23.00
  -1   5   6   39.90    7.00
  -1   5   6   36.70   10.00
  -1   5   6   36.20    7.10
  -1   5   6   44.90    9.90
  -1   5   6   26.10    6.50
  -1   5   6   42.50    6.90
   0   5   6   40.00    6.60
   0   5   6   52.59    8.10
   0   5   6   29.80    6.10
   0   5   6   34.40    6.90
   1   5   6   89.69   12.30
   1   5   6  106.89   14.30
   1   5   6   86.89   12.00
   1   5   6  115.89   12.10
  -2  -5  -6   -1.60   18.70
   2   5   6   13.90    4.10
   2   5   6    7.90    3.40
   2   5   6    7.50    6.20
   2   5   6   10.40    7.40
   2   5   6   10.70    4.10
  -3  -5  -6   30.30   19.90
   3   5   6   24.30    8.60
   3   5   6   37.70    6.70
   3   5   6   33.30    6.30
   3   5   6   45.90    8.30
   3   5   6   48.70   11.80
   4   5   6  170.18   21.30
   4   5   6  105.99   18.90
   4   5   6  165.68   18.10
   4   5   6  135.79   16.10
   4   5   6  147.79   16.00
  -5  -5  -6    5.80   16.00
   5   5   6    1.30    5.10
   5   5   6    1.00    6.00
   5   5   6    1.70    3.00
   5   5   6    2.40    4.70
   5   5   6    4.30    4.20
  -6  -5  -6   -8.30   17.20
  -6  -5  -6    3.50    6.60
   6   5   6    3.80    4.60
   6   5   6    3.30    3.20
   6   5   6    6.40    6.40
  -8   6   6   -4.30    5.10
  -8   6   6    4.20    3.30
  -8   6   6    1.90    4.90
  -7   6   6   10.20    4.00
  -7   6   6    2.50    6.10
  -7   6   6    2.30    5.50
  -6   6   6   72.29   10.80
  -6   6   6   51.69    8.30
  -6   6   6   62.19   10.90
  -5   6   6   -8.50    6.20
  -5   6   6   -3.70    5.80
  -5   6   6   -3.50    3.60
  -4   6   6   22.70    4.90
  -4   6   6   23.00    7.60
  -4   6   6   22.50    7.40
  -4   6   6   16.80    5.50
  -4   6   6   18.30    8.40
  -3   6   6   85.59   11.60
  -3   6   6   99.89   12.90
  -3   6   6   97.29   16.00
  -3   6   6   90.39   11.80
  -3   6   6   92.39   15.40
  -2   6   6   12.10    4.10
  -2   6   6    8.40    4.20
  -2   6   6   20.70    8.30
  -2   6   6   10.30    4.50
  -2   6   6   16.90    8.20
  -2   6   6    7.90    4.60
  -1   6   6    3.90    3.40
  -1   6   6    4.80    3.70
  -1   6   6   16.20    4.60
  -1   6   6   25.40    8.90
   0   6   6   61.89    9.40
   0   6   6   69.19    9.10
   0   6   6   68.89    9.50
   1   6   6    1.20    2.80
   1   6   6    0.50    2.80
   1   6   6    0.60    3.00
   2   6   6   44.40    8.00
   2   6   6   61.29    8.10
   2   6   6   74.69    9.20
   2   6   6   40.40   10.70
   3   6   6    8.30    5.90
   3   6   6    8.50    4.70
   3   6   6    4.70    3.30
   3   6   6    8.30    3.80
   4   6   6    2.80    4.40
   4   6   6   -2.70    2.90
   4   6   6    4.20    4.60
   4   6   6    1.00    5.60
   4   6   6   -3.60    5.10
  -5  -6  -6   42.90    8.80
   5   6   6   44.70    8.60
   5   6   6   26.20   10.70
   5   6   6   28.10    5.40
  -6   7   6   48.50    9.60
  -6   7   6   56.89   10.10
  -5   7   6   13.10    6.80
  -5   7   6    6.40    8.00
  -4   7   6   61.19   11.60
  -4   7   6   91.39   13.70
  -4   7   6   78.99   13.30
  -3   7   6  129.59   16.60
  -3   7   6  117.39   14.70
  -3   7   6   96.19   13.60
  -3   7   6  107.09   13.30
  -2   7   6    1.30    3.30
  -2   7   6    4.80    4.40
  -2   7   6    1.10    3.80
  -1   7   6   75.99   10.60
  -1   7   6   53.89    9.00
  -1   7   6   60.59    9.10
   0   7   6   29.40    6.00
   0   7   6   33.40    6.30
   0   7   6   32.30    6.50
   1   7   6    4.70    3.80
   1   7   6    4.30    3.60
   1   7   6    4.40    3.50
   2   7   6   61.89   10.10
   2   7   6   53.29    8.70
   2   7   6   58.49    8.40
  -3  -7  -6   59.19   12.40
   3   7   6   89.59   11.30
   3   7   6   85.89   10.50
   3   7   6   95.09   12.10
  -3   8   6   10.10    7.20
  -2   8   6    8.70    4.00
  -2   8   6    0.10    4.70
  -2   8   6    4.90    5.00
  -1   8   6   12.80    4.50
  -1   8   6    5.20    4.20
  -1   8   6    1.20    3.60
   0   8   6   -0.90    3.80
   0   8   6    3.50    4.00
   0   8   6    0.30    3.40
   1   8   6   49.50    8.50
   1   8   6   51.29    8.70
   1  14  -7    1.50    3.90
   0  14  -7   11.10    5.00
   0 -14   7    8.70    8.40
  -1  14  -7   -1.10    4.00
   1 -14   7    8.70    7.20
  -2  14  -7    6.60    4.40
   2 -14   7    7.70    6.50
   4  13  -7   18.10    5.30
  -4 -13   7   16.20    5.80
   3  13  -7   20.60    6.00
  -3 -13   7   19.60    6.40
   2  13  -7   68.29   10.00
  -2 -13   7   68.09   11.40
   1  13  -7  206.68   23.30
  -1 -13   7  218.78   24.80
   0  13  -7   12.90    5.00
   0 -13   7   15.60   11.10
   0 -13   7    4.90    5.30
   1 -13   7   40.20   14.10
  -2  13  -7   58.09    9.70
  -3  13  -7    4.50    4.60
  -3  13  -7    2.50    8.50
   3 -13   7    1.50    6.80
  -4  13  -7   20.00    5.50
   4 -13   7    2.50   12.10
   4 -13   7   25.10    8.00
  -5  13  -7    6.80    3.90
   5 -13   7   14.30   12.00
   5 -13   7    0.30    4.30
  -6 -12   7    7.40    4.60
   5  12  -7   24.60    8.50
   5  12  -7   22.30    6.50
  -5 -12   7   18.10    6.20
   4  12  -7   75.59   10.90
   4  12  -7   65.09   13.10
  -4 -12   7   68.19   11.80
   3  12  -7   -2.50    4.30
   3  12  -7    2.40    7.30
  -3 -12   7   -1.00    5.60
  -3 -12   7    5.60   10.00
   2  12  -7   70.99   12.20
   2  12  -7   75.19   10.80
  -2 -12   7   75.49   12.90
  -2 -12   7   37.00   16.00
   1  12  -7   41.10    8.00
  -1 -12   7   15.20   13.50
  -1 -12   7   40.80    9.30
   0  12  -7   20.30    6.10
   0 -12   7   -0.30   11.40
   0 -12   7   17.20    6.60
  -1  12  -7  146.49   17.50
   1 -12   7  137.29   17.90
  -2  12  -7  201.88   22.50
  -2  12  -7  182.08   21.60
  -3  12  -7   16.90    6.90
  -3  12  -7   10.80    5.00
   3 -12   7    6.50    8.90
  -4  12  -7   26.10    8.50
  -4  12  -7   16.70    5.00
   4 -12   7   20.70    9.50
   4 -12   7    0.90   13.40
  -5  12  -7   -0.90    3.50
   5 -12   7    6.30   14.00
   5 -12   7    0.80    5.30
  -6  12  -7   12.50    4.70
   6 -12   7    5.90   14.40
   6 -12   7   10.70    5.50
  -7  12  -7   34.40    6.20
   7 -12   7    1.60   12.00
   7  11  -7    1.40    8.30
   7  11  -7   -4.80    4.90
  -7 -11   7    2.70    4.30
  -7 -11   7   -5.00    3.50
   6  11  -7   44.80   10.30
   6  11  -7   36.90    8.60
  -6 -11   7   35.30    6.10
  -6 -11   7   27.60    7.80
   5  11  -7    0.90    5.00
   5  11  -7    8.50    7.80
  -5 -11   7    6.50    5.50
   4  11  -7   10.90    7.60
   4  11  -7   13.00    5.90
  -4 -11   7    6.00    6.00
   3  11  -7  150.48   18.70
   3  11  -7  167.98   19.80
  -3 -11   7  129.09   19.70
   2  11  -7  199.18   22.30
   2  11  -7  182.88   23.00
  -2 -11   7  220.58   24.20
  -2 -11   7  127.99   27.10
   1  11  -7   17.60    7.90
   1  11  -7   16.80    6.00
  -1 -11   7   10.30    6.50
  -1 -11   7    5.30   11.30
   0  11  -7   49.20    8.60
   0  11  -7   37.80    8.70
   0 -11   7   19.70   12.90
   0 -11   7   40.70    9.00
  -1  11  -7   48.10    9.00
  -1  11  -7   56.79    9.40
   1 -11   7   40.80    8.90
   1 -11   7   19.10   11.50
  -2  11  -7   -2.70    3.90
  -2  11  -7    0.60    4.50
   2 -11   7   -1.60    7.90
  -3  11  -7  283.37   29.70
  -3  11  -7  232.88   28.20
  -4  11  -7   -0.50    3.50
  -4  11  -7   -1.00    5.70
   4 -11   7   -1.30    7.50
  -5  11  -7   12.40    4.40
   5 -11   7   -6.70   16.40
   5 -11   7    5.30    7.20
  -6  11  -7  168.08   18.60
   6 -11   7  142.69   20.20
  -7  11  -7    6.30    4.40
  -7  11  -7    2.80    5.70
   7 -11   7   10.80   15.20
  -8  11  -7    4.90    4.20
   8 -11   7   -0.50   12.40
   8  10  -7  149.49   19.20
  -8 -10   7  140.69   15.60
   7  10  -7   -6.30    7.50
   7  10  -7    3.20    5.10
  -7 -10   7    6.30    3.50
  -7 -10   7    1.80    4.70
   6  10  -7  170.88   20.60
   6  10  -7  170.88   21.60
  -6 -10   7  187.08   18.30
  -6 -10   7  121.69   20.00
   5  10  -7   75.99   14.00
   5  10  -7   80.89   12.20
  -5 -10   7   55.29   12.30
  -5 -10   7   65.89    9.70
   4  10  -7    5.30    6.80
   4  10  -7    6.60    5.00
  -4 -10   7    1.80    5.20
  -4 -10   7   11.70    6.40
   3  10  -7   75.59   12.40
   3  10  -7   54.99   10.00
  -3 -10   7   43.90   13.80
  -3 -10   7   52.19   10.90
   2  10  -7   19.90    6.60
   2  10  -7   22.90    8.50
  -2 -10   7   13.70   10.40
  -2 -10   7    8.90    5.50
   1  10  -7   35.80    9.20
   1  10  -7   54.79   11.80
   1  10  -7   78.79   11.40
  -1 -10   7   23.50   12.30
  -1 -10   7   49.80   10.30
   0  10  -7  773.42   85.79
   0  10  -7  887.31   85.19
   0 -10   7  908.91   87.09
  -1  10  -7   78.39   11.30
  -1  10  -7   75.89   12.20
   1 -10   7   79.09   12.50
  -2  10  -7    6.20    5.50
  -2  10  -7    2.70    4.40
   2 -10   7    5.10    7.60
   2 -10   7    9.30   10.60
  -3  10  -7   62.59   10.10
  -3  10  -7   60.39   11.20
  -4  10  -7    5.50    4.00
  -4  10  -7   -2.50    5.50
   4 -10   7    2.80    7.70
  -5  10  -7   20.60    9.20
  -5  10  -7   19.20    5.50
  -5  10  -7   21.60    5.80
   5 -10   7   -8.30   16.60
   5 -10   7   23.40    9.90
  -6  10  -7  250.97   29.20
  -6  10  -7  297.27   28.20
   6 -10   7  243.28   31.30
  -7  10  -7    1.80    4.20
  -7  10  -7    1.50    4.30
   7 -10   7    5.50    4.90
   7 -10   7   14.30   19.00
  -8  10  -7    4.10    4.10
  -8  10  -7    6.00    4.40
   8 -10   7    0.80   14.20
   9 -10   7   30.80   13.30
   9   9  -7   -0.10    5.90
  -9  -9   7   -0.20    3.00
   8   9  -7   32.20   11.30
   8   9  -7   24.50    8.30
  -8  -9   7   26.50    5.10
   7   9  -7   75.99   14.40
   7   9  -7   55.89   11.90
  -7  -9   7   43.30   10.70
  -7  -9   7   67.69    8.90
   6   9  -7   23.20    9.50
   6   9  -7   14.70    7.50
  -6  -9   7   22.20    5.00
  -6  -9   7    7.40    6.30
   5   9  -7   25.10    8.60
   5   9  -7   48.10   10.90
  -5  -9   7   54.09    7.60
  -5  -9   7   33.00    9.30
   4   9  -7  200.08   22.90
   4   9  -7  149.19   21.90
  -4  -9   7  179.98   23.10
  -4  -9   7  207.08   20.10
   3   9  -7   18.10    6.20
   3   9  -7   21.00    7.90
  -3  -9   7   20.40   10.20
  -3  -9   7   14.60    6.60
   2   9  -7   46.30    9.40
   2   9  -7   44.50    9.00
  -2  -9   7   21.40   10.30
  -2  -9   7   34.10    8.30
   1   9  -7   22.50    6.80
   1   9  -7   21.90    6.80
  -1  -9   7    8.40    8.40
  -1  -9   7   17.60    6.50
   0   9  -7  573.44   62.39
   0   9  -7  609.14   61.79
   0  -9   7  650.23   63.29
  -1   9  -7   16.90    5.50
   1  -9   7   11.40    8.50
   1  -9   7    9.60    5.80
  -2   9  -7  578.54   56.69
  -2   9  -7  566.14   55.89
   2  -9   7  490.65   56.19
  -3   9  -7   41.00    8.50
  -3   9  -7   43.70    9.60
   3  -9   7   25.00   10.30
  -4   9  -7   90.49   13.10
   4  -9   7   98.59   17.50
  -5   9  -7   25.30    9.30
  -5   9  -7   22.30    6.10
  -5   9  -7   10.10    5.30
   5  -9   7   -0.60   17.00
   5  -9   7   23.10    9.60
  -6   9  -7   23.60    5.90
  -6   9  -7   25.40    6.40
   6  -9   7   28.40    9.50
   6  -9   7   -6.50   19.20
  -7   9  -7   54.09   10.00
  -7   9  -7   60.09    9.40
   7  -9   7   49.20   11.00
  -8   9  -7    7.70    4.50
  -8   9  -7   10.50    5.50
   8  -9   7    3.60   18.10
  -9   9  -7    2.80    4.80
  -9   9  -7   -5.50    4.00
   9  -9   7   10.70   12.70
 -10  -8   7   52.59    7.60
   9   8  -7   39.20   18.00
  -9  -8   7   49.40    7.50
   8   8  -7    7.50    9.50
   8   8  -7   -3.50    6.90
  -8  -8   7    4.70    3.60
   7   8  -7  492.55   51.79
  -7  -8   7  470.25   48.40
   6   8  -7    8.30    8.50
   6   8  -7    2.20    6.70
  -6  -8   7    7.20    5.90
  -6  -8   7    9.00    3.80
   5   8  -7   -1.10    5.70
   5   8  -7   -4.70    7.80
  -5  -8   7    0.60    3.30
  -5  -8   7   -0.30    5.30
   4   8  -7  183.68   25.80
  -4  -8   7  243.18   23.70
  -4  -8   7  253.97   27.20
   3   8  -7   15.70    6.70
   3   8  -7    6.50    5.20
  -3  -8   7    5.10    2.90
  -3  -8   7    9.00    5.60
   2   8  -7  179.78   21.60
   2   8  -7  191.88   22.00
  -2  -8   7  175.28   22.00
   1   8  -7  851.61   93.49
   1   8  -7 1042.50   93.79
  -1  -8   7  930.11   94.29
   0   8  -7   10.00    4.70
   0   8  -7    5.60    4.90
   0  -8   7    5.90    7.10
   0  -8   7    2.50    4.30
  -1   8  -7  222.88   23.30
  -1   8  -7  191.98   23.50
   1  -8   7  196.08   23.50
  -2   8  -7  314.77   29.10
  -2   8  -7  257.97   28.00
   2  -8   7  187.48   30.60
   2  -8   7  242.08   28.40
  -3   8  -7   29.40    7.80
  -3   8  -7   29.30    6.80
   3  -8   7   18.70    9.10
  -4   8  -7  256.27   31.80
  -4   8  -7  310.37   31.60
   4  -8   7  317.37   36.00
  -5   8  -7  295.07   31.50
  -5   8  -7  267.27   32.70
   5  -8   7  366.86   37.30
  -6   8  -7   51.59   10.00
  -6   8  -7   59.79    9.80
   6  -8   7   60.49   13.10
  -7   8  -7   71.69   10.70
  -7   8  -7   69.09   10.60
   7  -8   7   18.50   21.40
   7  -8   7   59.79   12.20
  -8   8  -7   82.49   12.50
  -8   8  -7   78.49   10.90
   8  -8   7   44.40   22.50
  -9   8  -7    2.20    5.80
  -9   8  -7    3.80    4.10
   9  -8   7   20.60   14.60
 -10   8  -7   95.69   11.60
  10  -8   7   75.69   16.20
  10   7  -7   16.80    8.80
 -10  -7   7   38.90    5.80
   9   7  -7   24.30    9.80
  -9  -7   7   39.30    6.30
   8   7  -7   41.80   13.50
   8   7  -7   20.60   10.60
  -8  -7   7   33.10    6.10
   7   7  -7   14.00    8.90
   7   7  -7   14.60   11.10
  -7  -7   7    5.80    6.00
  -7  -7   7    3.10    3.30
   6   7  -7    2.70    7.90
  -6  -7   7    4.20    3.40
  -6  -7   7    2.90    5.20
   5   7  -7    1.70   11.10
   5   7  -7   33.30   10.10
  -5  -7   7   26.30    8.30
  -5  -7   7   34.80    5.70
   4   7  -7  121.29   16.80
   4   7  -7   72.69   16.70
  -4  -7   7  115.89   15.30
  -4  -7   7  109.09   12.50
   3   7  -7   62.19    9.90
   3   7  -7   49.50   10.60
  -3  -7   7   46.60    9.90
  -3  -7   7   36.00    6.40
   2   7  -7    0.70    5.50
   2   7  -7    1.20    5.00
  -2  -7   7    5.00    6.90
  -2  -7   7    2.70    2.40
  -2  -7   7    2.40    3.90
   1   7  -7  708.23   79.59
   1   7  -7  887.21   80.29
  -1  -7   7  802.62   80.29
   0   7  -7  419.96   47.40
   0   7  -7  532.55   48.30
   0  -7   7  439.86   47.80
  -1   7  -7  276.77   31.80
   1  -7   7  314.57   32.30
  -2   7  -7  101.39   13.40
  -2   7  -7  100.39   14.10
   2  -7   7   80.99   16.10
   2  -7   7  106.79   13.40
  -3   7  -7   18.10    5.40
   3  -7   7   15.00    8.10
   3  -7   7   -0.20    8.90
  -4   7  -7   48.30    9.10
   4  -7   7   57.99   13.70
  -5   7  -7   62.59   11.40
   5  -7   7   85.69   14.60
  -6   7  -7  267.57   31.20
   6  -7   7  305.87   34.00
  -7   7  -7    7.90    4.70
  -7   7  -7    6.30    4.10
   7  -7   7   10.30   20.30
   7  -7   7    1.00    4.70
  -8   7  -7   14.90    6.30
  -8   7  -7    2.10    4.90
  -8   7  -7    2.10    3.90
   8  -7   7   12.50   17.30
   8  -7   7   12.50    8.10
  -9   7  -7   93.69   11.90
  -9   7  -7   56.99    9.90
   9  -7   7  127.19   24.50
 -10   7  -7    5.40    4.70
  10  -7   7   12.80    8.60
  10   6  -7  -11.80    8.60
 -10  -6   7   -3.90    3.30
   9   6  -7   12.90   10.60
  -9  -6   7    3.00    3.70
  -9  -6   7    4.10    3.60
  -8  -6   7  267.27   28.00
   7   6  -7    2.90    9.80
  -7  -6   7    5.10    3.60
   6   6  -7   58.59   15.90
  -6  -6   7   66.89   11.70
  -6  -6   7   75.59    9.40
   5   6  -7  697.23   73.19
   4   6  -7   49.00   11.40
  -4  -6   7   51.19   10.60
  -4  -6   7   47.30    7.00
   3   6  -7  232.18   26.20
  -3  -6   7  249.18   25.80
  -3  -6   7  195.78   22.60
   2   6  -7  104.59   13.80
   2   6  -7   83.69   14.40
  -2  -6   7   81.99   10.60
  -2  -6   7  109.69   13.30
   1   6  -7   -1.30    5.00
   1   6  -7    6.00    5.30
  -1  -6   7    5.20    6.10
  -1  -6   7    3.90    3.70
  -1  -6   7   -0.80    2.70
   0   6  -7  814.12   86.39
   0   6  -7  888.91   87.09
   0  -6   7  902.11   86.99
  -1   6  -7  292.97   31.50
  -1   6  -7  254.97   30.60
   1  -6   7  342.67   31.60
   1  -6   7  257.47   32.80
  -2   6  -7   24.20    6.90
   2  -6   7   23.50    6.30
   2  -6   7   23.20    8.70
  -3   6  -7  828.72   84.39
   3  -6   7  771.02   84.19
   3  -6   7  947.61   87.39
  -4   6  -7   76.19   11.40
   4  -6   7   91.29   14.50
  -5   6  -7   22.50    6.10
   5  -6   7   33.40    9.50
   5  -6   7    5.20   14.40
  -6   6  -7  179.78   21.70
   6  -6   7  187.18   23.50
  -7   6  -7  107.59   14.20
   7  -6   7  102.79   15.20
   7  -6   7   65.89   25.20
  -8   6  -7   19.70    6.40
   8  -6   7   45.70   19.70
   8  -6   7   26.50    7.90
  -9   6  -7  126.99   17.10
  -9   6  -7  188.78   19.20
   9  -6   7  183.28   28.00
 -10   6  -7    6.20    4.30
 -10   6  -7   -0.40    3.70
  10  -6   7    3.80    6.80
  10  -6   7  -12.80    5.80
  11   5  -7   26.10   10.10
 -11  -5   7   21.00   15.00
  10   5  -7    6.40   11.60
 -10  -5   7    6.30    3.80
 -10  -5   7   23.80   14.90
   9   5  -7    6.50   12.70
  -9  -5   7    6.40    3.70
  -9  -5   7    2.70    3.70
  -9  -5   7   -3.80   13.40
   8   5  -7   34.10   15.70
  -8  -5   7   53.09   18.30
  -8  -5   7   46.20    7.50
   7   5  -7    8.10   14.90
   7   5  -7   23.60   13.90
  -7  -5   7   45.20    6.80
   6   5  -7   37.20   15.80
   6   5  -7   31.40   14.50
  -6  -5   7   48.20    7.30
  -6  -5   7   49.20   10.60
  -5  -5   7  517.05   55.69
  -5  -5   7  568.64   60.59
  -5  -5   7  528.95   53.49
   4   5  -7    1.00    8.40
   4   5  -7   -8.30    8.30
  -4  -5   7    2.20    2.30
  -4  -5   7   -3.80   14.40
  -4  -5   7    0.90    3.70
   3   5  -7    0.90    6.50
   3   5  -7    2.00    7.20
  -3  -5   7    2.80    3.90
  -3  -5   7    2.40    2.40
   2   5  -7  183.68   22.30
  -2  -5   7  167.58   19.30
  -2  -5   7  217.68   22.00
   1   5  -7  103.69   17.60
   1   5  -7  146.69   18.00
  -1  -5   7  171.38   17.80
  -1  -5   7  131.09   18.90
  -1  -5   7  141.49   15.10
   0   5  -7   89.29   14.60
   0  -5   7   84.49   10.70
   0  -5   7  105.39   12.50
   0  -5   7   75.29   14.40
  -1   5  -7   32.70    9.10
   1  -5   7   46.00   10.80
   1  -5   7   48.90    9.10
  -2   5  -7    5.70    5.30
   2  -5   7   12.20    4.90
   2  -5   7    9.10    5.80
  -3   5  -7  776.52   72.29
   3  -5   7  664.13   71.49
  -4   5  -7   34.40    7.70
   4  -5   7   48.60   10.50
  -5   5  -7  106.79   14.50
   5  -5   7  120.29   16.40
  -6   5  -7  147.59   17.70
   6  -5   7  126.19   18.20
   6  -5   7  126.29   30.70
   7  -5   7   10.80   16.30
   7  -5   7    0.90    4.10
  -8   5  -7   34.90    7.20
   8  -5   7   27.20    8.20
   8  -5   7   59.39   19.20
  -9   5  -7  103.09   14.40
   9  -5   7  101.59   20.00
 -10   5  -7    5.10    3.60
 -10   5  -7    4.80    4.90
  10  -5   7    5.40    6.20
  11   4  -7   -0.60   10.90
 -11  -4   7   -0.90   11.80
 -11  -4   7    9.50    3.80
  10   4  -7   34.80   16.80
 -10  -4   7   53.99   18.20
  -9  -4   7   99.59   24.70
  -9  -4   7  142.59   15.20
   8   4  -7   -3.30   15.90
  -8  -4   7    3.00    3.70
  -8  -4   7    3.00   13.20
  -8  -4   7    3.70    3.50
  -7  -4   7  242.58   28.60
  -7  -4   7  318.07   29.40
  -6  -4   7  304.17   28.80
  -6  -4   7  237.88   35.70
   5   4  -7   -2.20   11.30
  -5  -4   7    2.50    4.50
  -5  -4   7   -1.50    2.70
  -5  -4   7   -9.10   12.00
  -4  -4   7  447.86   46.90
  -4  -4   7  334.37   41.20
  -4  -4   7  406.66   39.80
   3   4  -7   38.40    7.90
   3   4  -7    7.00   11.40
  -3  -4   7   37.90    5.50
  -3  -4   7   56.69    9.60
  -3  -4   7    8.00   14.80
   2   4  -7   -7.90    5.70
   2   4  -7   -3.00   10.60
   2   4  -7   -3.20    4.80
  -2  -4   7   -0.20    3.30
  -2  -4   7    4.30    2.30
   1   4  -7  966.20   93.89
  -1  -4   7  866.41   93.39
  -1  -4   7 1045.50   95.59
  -1  -4   7  964.80   93.79
   0   4  -7   61.29   13.20
   0   4  -7   85.99   10.60
   0  -4   7   81.89   12.00
   0  -4   7   52.79   10.70
   0  -4   7   82.59   10.50
  -1   4  -7    6.20    3.90
  -1   4  -7   -0.70    5.60
   1  -4   7    4.60    3.40
   1  -4   7    1.80    4.50
  -2   4  -7  714.43   76.69
   2  -4   7  841.22   77.79
   2  -4   7  732.83   75.89
  -3   4  -7   17.10    6.10
   3  -4   7   10.30    3.70
   3  -4   7   20.30    6.80
   3  -4   7    0.30    9.90
  -4   4  -7   74.69   11.40
  -4   4  -7   53.89   23.50
   4  -4   7   94.99   12.60
   4  -4   7   60.89   18.60
  -5   4  -7  225.68   37.90
   5  -4   7  237.88   25.40
   5  -4   7  228.28   35.60
   5  -4   7  259.27   28.00
  -6   4  -7    3.50   21.90
   6  -4   7    6.10   11.70
   6  -4   7    2.70    3.40
  -7   4  -7   85.19   30.50
   7  -4   7  157.18   25.70
   7  -4   7   96.89   15.10
  -8   4  -7   95.99   30.70
   8  -4   7  145.19   17.80
   8  -4   7  202.38   27.00
   8  -4   7  155.28   19.60
  -9   4  -7   16.60    6.10
  -9   4  -7  -16.80   22.70
   9  -4   7   21.60    9.70
   9  -4   7    4.40    5.00
 -10   4  -7   21.70    6.90
  10  -4   7   46.50   10.40
  11   3  -7   25.20   14.40
 -11  -3   7    3.20   11.70
  10   3  -7   29.60   18.50
 -10  -3   7   13.60   14.30
 -10  -3   7   22.60    4.90
 -10  -3   7   12.20    7.40
   9   3  -7   22.90   19.00
  -9  -3   7   35.70    8.40
  -9  -3   7   39.60   17.80
   8   3  -7   -1.00   17.30
  -8  -3   7   22.80    6.70
  -8  -3   7   22.70    5.90
  -8  -3   7   44.40   18.10
  -8  -3   7   28.20    5.90
  -7  -3   7  407.36   44.90
  -7  -3   7  493.45   53.49
  -7  -3   7  449.86   44.70
  -7  -3   7  418.46   44.70
  -6  -3   7  474.75   44.80
  -6  -3   7  377.96   51.09
  -6  -3   7  467.95   45.00
   5   3  -7  -13.70   11.70
  -5  -3   7    9.10    3.90
  -5  -3   7    3.70    4.30
  -5  -3   7    4.80    3.10
  -5  -3   7   -5.60   11.90
  -5  -3   7    7.00    2.60
  -4  -3   7  207.38   22.90
  -4  -3   7  247.28   24.30
  -4  -3   7  201.18   24.80
  -4  -3   7  263.77   24.10
  -3  -3   7   85.49   20.40
  -3  -3   7   89.19   10.70
  -3  -3   7   73.39    9.50
  -3  -3   7   97.49   10.40
  -3  -3   7   98.49   12.10
   2   3  -7   19.20    5.40
  -2  -3   7   21.40    4.10
  -2  -3   7   22.80    4.90
  -2  -3   7   18.00    5.60
   1   3  -7 1257.17  111.79
  -1  -3   7 1047.20  111.49
  -1  -3   7 1173.98  113.09
  -1  -3   7 1112.29  111.79
   0   3  -7    9.00    4.30
   0   3  -7   -9.20    6.30
   0  -3   7    9.60    3.90
   0  -3   7   13.30    3.50
   0  -3   7   11.50    4.50
   0  -3   7   12.00    5.30
  -1   3  -7   44.50   10.60
  -1   3  -7   45.70    7.50
   1  -3   7   49.40    7.80
   1  -3   7   58.29    9.10
   1  -3   7   55.39    7.70
   1  -3   7   47.30    6.80
  -2   3  -7  808.22   77.19
  -2   3  -7  748.43   78.79
   2  -3   7  775.62   77.89
   2  -3   7  798.02   76.79
   3  -3   7   48.40    9.60
   3  -3   7   35.20    7.50
   3  -3   7   36.90    6.30
   3  -3   7   36.10   13.30
   4  -3   7   -0.80    2.90
   4  -3   7   -5.90    8.00
   4  -3   7   -2.30    3.20
   4  -3   7    1.70    3.40
   5  -3   7  281.47   34.10
   5  -3   7  388.56   41.40
   5  -3   7  304.07   32.20
  -6   3  -7   13.30   22.10
   6  -3   7   18.30    6.20
   6  -3   7   24.30   11.80
  -7   3  -7    9.50   20.70
   7  -3   7   18.40    6.20
   7  -3   7   14.60    6.00
   7  -3   7   25.50   11.80
  -8   3  -7   38.90   25.30
   8  -3   7   53.89    9.70
   8  -3   7   33.60    7.70
  -9   3  -7    8.60   20.90
  -9   3  -7    2.90    6.20
   9  -3   7   -0.90    4.60
   9  -3   7   10.70    7.40
 -10   3  -7  -11.20   21.20
  10  -3   7   21.30    7.90
  11   2  -7   19.30   18.00
 -11  -2   7   78.09   10.10
 -11  -2   7   53.79   15.90
  10   2  -7   30.80   21.60
 -10  -2   7   30.40   15.00
 -10  -2   7   46.40    6.90
 -10  -2   7   34.20    7.80
   9   2  -7   11.30   19.40
  -9  -2   7   -3.50   12.80
  -9  -2   7    5.10    6.10
  -9  -2   7    3.60    4.00
  -9  -2   7    4.10    2.70
   8   2  -7  -13.00   16.70
  -8  -2   7   28.30    6.60
  -8  -2   7   23.20    4.60
  -8  -2   7   18.20   14.90
  -8  -2   7   39.20    8.10
  -8  -2   7   41.90    6.40
   7   2  -7    1.90   21.00
  -7  -2   7    6.40    5.40
  -7  -2   7    8.80    4.20
  -7  -2   7   11.60    4.20
  -7  -2   7    9.20    3.00
  -7  -2   7   37.40   17.60
   6   2  -7  -13.50   16.70
  -6  -2   7    7.10    3.90
  -6  -2   7    8.00    3.50
  -6  -2   7    9.80    2.60
  -6  -2   7   -7.70   12.50
  -6  -2   7    9.50    4.60
  -5  -2   7  368.26   36.10
  -5  -2   7  355.56   35.80
  -5  -2   7  328.87   34.60
  -5  -2   7  347.07   35.10
  -5  -2   7  396.56   43.70
  -5  -2   7  321.97   35.80
  -4  -2   7   -0.10    2.00
  -4  -2   7    0.30    3.30
  -4  -2   7   -0.90    2.50
  -4  -2   7    1.90    3.30
  -4  -2   7   17.80   14.10
  -4  -2   7    1.80    3.10
  -4  -2   7    4.20    2.90
  -3  -2   7    0.90    3.10
  -3  -2   7   -1.30    2.70
  -3  -2   7    5.60    6.70
  -3  -2   7    4.00    1.80
  -3  -2   7    2.30    2.70
  -3  -2   7   12.90   14.40
  -3  -2   7    2.30    2.70
  -3  -2   7   -1.10    2.40
  -2  -2   7  690.63   70.79
  -2  -2   7  719.13   71.29
  -2  -2   7  673.93   70.59
  -2  -2   7  644.84   70.79
  -2  -2   7  801.12   72.49
  -2  -2   7  842.82   71.69
   1   2  -7   40.30    6.60
  -1  -2   7   49.20    6.90
  -1  -2   7   38.90    5.70
  -1  -2   7   36.40    6.30
  -1  -2   7   37.20    5.50
  -1  -2   7   31.30    6.90
  -1  -2   7   39.70    6.20
   0   2  -7    4.80    3.90
   0  -2   7    1.90    3.50
   0  -2   7   -1.20    2.90
   0  -2   7    3.60    2.80
   0  -2   7   -0.40    3.00
   0  -2   7    0.00    2.20
   0  -2   7   -0.40    2.50
   0  -2   7    1.70    2.60
  -1   2  -7  501.05   50.79
   1  -2   7  471.85   50.19
   1  -2   7  488.35   50.59
   1  -2   7  499.35   51.39
   1  -2   7  521.65   50.49
   1  -2   7  475.65   50.19
   1  -2   7  561.04   52.39
   1  -2   7  567.34   51.09
   2  -2   7   88.49   10.80
   2  -2   7   84.19   10.60
   2  -2   7  104.09   12.10
   2  -2   7  104.29   12.80
   2  -2   7   98.39   11.10
   2  -2   7   78.29   11.40
   3  -2   7  279.17   27.40
   3  -2   7  258.87   25.60
   3  -2   7  252.97   24.80
   3  -2   7  254.97   25.50
   3  -2   7  201.98   28.70
   3  -2   7  201.98   26.10
   4  -2   7  168.58   23.20
   4  -2   7  135.69   19.20
   4  -2   7  183.28   18.60
   4  -2   7  175.48   19.90
   4  -2   7  165.78   17.70
   5  -2   7   72.89   11.70
   5  -2   7   97.19   11.30
   5  -2   7  107.99   17.80
   5  -2   7   65.79   10.10
  -6   2  -7  267.47   39.60
   6  -2   7  257.07   29.80
   6  -2   7  205.78   23.00
   6  -2   7  166.18   24.00
  -7   2  -7   -1.10   20.10
   7  -2   7   24.70    6.50
   7  -2   7   18.40    6.10
   7  -2   7   31.60   10.60
  -8   2  -7   12.30   21.30
   8  -2   7   20.60    9.00
   8  -2   7   10.70    5.10
   8  -2   7    4.00    4.40
  -9   2  -7    9.70   18.70
   9  -2   7    3.40    4.60
   9  -2   7   10.20    6.90
 -10   2  -7   -2.40   20.20
  10  -2   7    2.20    5.20
  11   1  -7   24.50   19.20
 -11  -1   7   21.10    5.10
 -11  -1   7   16.20   12.90
  10   1  -7   14.90   22.20
 -10  -1   7   46.30    7.70
 -10  -1   7    5.20   12.50
 -10  -1   7   21.10    3.90
   9   1  -7    7.40   22.80
  -9  -1   7    3.10    5.10
  -9  -1   7   -1.60   11.50
  -9  -1   7    3.20    3.90
  -9  -1   7    2.50    2.40
  -8  -1   7  368.06   36.00
  -8  -1   7  302.77   34.80
  -8  -1   7  385.96   37.20
  -7  -1   7  133.29   15.40
  -7  -1   7  155.58   17.90
  -7  -1   7  157.48   16.00
  -7  -1   7  130.79   16.50
  -6  -1   7   46.60    8.60
  -6  -1   7   52.29    7.10
  -6  -1   7   72.69    8.30
  -6  -1   7   58.19    9.10
  -6  -1   7   45.90    8.70
  -5  -1   7  499.25   48.50
  -5  -1   7  455.25   49.40
  -5  -1   7  477.45   49.60
  -5  -1   7  523.05   57.79
  -5  -1   7  522.35   48.90
  -5  -1   7  480.65   49.70
   4   1  -7   -5.90   11.90
  -4  -1   7    8.30    3.60
  -4  -1   7    3.10   14.50
  -4  -1   7   11.10    4.20
  -4  -1   7   10.90    2.80
  -4  -1   7    9.50    4.20
  -4  -1   7   19.00    3.50
  -4  -1   7   10.50    4.10
  -3  -1   7  337.37   30.70
  -3  -1   7  309.87   31.00
  -3  -1   7  306.47   29.40
  -3  -1   7  301.57   30.20
  -3  -1   7  273.67   30.40
  -3  -1   7  252.97   29.30
  -3  -1   7  292.47   29.70
  -2  -1   7  968.30   88.99
  -2  -1   7  903.01   87.29
  -2  -1   7  983.00   88.29
  -2  -1   7  886.41   87.79
  -2  -1   7  819.62   87.99
  -2  -1   7  883.31   87.29
  -2  -1   7  841.02   87.39
  -1  -1   7  131.99   16.70
  -1  -1   7  156.98   15.80
  -1  -1   7  153.38   15.90
  -1  -1   7  146.69   16.40
  -1  -1   7  157.48   17.20
  -1  -1   7  142.89   16.70
  -1  -1   7  130.79   16.60
  -1  -1   7  189.08   17.20
  -1  -1   7  143.69   15.90
   0  -1   7   79.19   10.10
   0  -1   7   65.09   10.10
   0  -1   7   65.59    8.60
   0  -1   7   78.19    8.90
   0  -1   7   74.39    9.40
   0  -1   7   85.19    9.80
   0  -1   7   74.39   10.40
   0  -1   7   65.49    8.90
   1  -1   7  338.57   34.40
   1  -1   7  352.66   32.70
   1  -1   7  303.97   32.50
   1  -1   7  335.27   33.20
   1  -1   7  307.17   32.40
   1  -1   7  303.17   33.90
   2  -1   7    5.40    3.60
   2  -1   7    6.30    3.50
   2  -1   7    9.10    3.10
   2  -1   7    8.40    3.30
   2  -1   7    7.20    4.30
   2  -1   7    9.60    4.00
   3  -1   7  143.69   21.90
   3  -1   7  191.78   21.20
   3  -1   7  177.28   18.90
   3  -1   7  177.28   20.90
   3  -1   7  192.28   19.70
   3  -1   7  215.78   20.60
   4  -1   7  412.66   44.80
   4  -1   7  448.16   42.50
   4  -1   7  373.26   44.40
   4  -1   7  418.26   46.70
   4  -1   7  478.55   43.40
  -5   1  -7  102.39   28.60
   5  -1   7   73.79   13.90
   5  -1   7   59.99    9.90
   5  -1   7   43.00    8.30
   5  -1   7   59.69    8.70
  -6   1  -7   50.19   24.80
   6  -1   7   30.30    7.70
   6  -1   7   48.40   12.10
   6  -1   7   42.90    7.20
  -7   1  -7    9.00   21.30
   7  -1   7   35.00   11.10
   7  -1   7   17.30    5.00
   7  -1   7   24.90    6.70
  -8   1  -7    7.90   19.20
   8  -1   7   31.70    7.60
   8  -1   7   39.30   10.40
  -9   1  -7   24.90   18.70
 -10   1  -7   -7.10   18.80
  10  -1   7    5.00    4.60
  11   0  -7   24.20   18.70
 -11   0   7    7.90   14.00
 -11   0   7    0.50    4.90
 -11   0   7   -1.60    2.40
  10   0  -7   12.00   22.70
 -10   0   7   -2.50   13.20
 -10   0   7   16.80    5.60
 -10   0   7    7.70    2.60
   9   0  -7   17.50   23.60
  -9   0   7   15.30    5.80
  -9   0   7    6.80    3.00
  -9   0   7   24.50   14.70
  -8   0   7  226.68   24.10
  -8   0   7  235.78   22.50
  -8   0   7  199.08   22.70
  -8   0   7  186.38   21.70
  -7   0   7   44.40    6.50
  -7   0   7   50.59    7.40
  -7   0   7   30.20    7.10
  -7   0   7   48.10    8.80
  -7   0   7   85.99   22.80
  -7   0   7   43.20    7.60
  -6   0   7  175.78   19.60
  -6   0   7  173.88   17.40
  -6   0   7  174.28   18.20
  -6   0   7  130.39   18.50
  -6   0   7  169.08   18.60
  -5   0   7  148.19   15.30
  -5   0   7  148.69   14.70
  -5   0   7  140.39   15.80
  -5   0   7  145.89   16.50
  -5   0   7  103.19   26.80
  -5   0   7  111.69   15.90
  -4   0   7   17.00    3.60
  -4   0   7    8.80    4.30
  -4   0   7   11.10    3.20
  -4   0   7   12.80    3.90
  -4   0   7    9.40    5.90
  -4   0   7    6.90    3.90
  -3   0   7  132.99   14.40
  -3   0   7  126.39   13.70
  -3   0   7  101.79   15.10
  -3   0   7  141.49   13.80
  -3   0   7  125.99   15.20
  -3   0   7  140.39   14.60
  -3   0   7  127.89   15.20
  -2   0   7  116.69   13.80
  -2   0   7  117.29   14.50
  -2   0   7  127.69   14.20
  -2   0   7  130.99   13.90
  -2   0   7  113.89   14.70
  -2   0   7  118.89   13.10
  -2   0   7  111.99   14.70
  -2   0   7  127.49   13.20
  -1   0   7   85.09   10.10
  -1   0   7   91.19   10.60
  -1   0   7   92.99   11.20
  -1   0   7   68.09   11.10
  -1   0   7   92.09   11.70
  -1   0   7   93.89   11.80
  -1   0   7   92.19   11.80
  -1   0   7   81.49   10.10
  -1   0   7   94.69   10.40
   0   0   7    7.50    2.70
   0   0   7    0.70    2.70
   0   0   7    2.20    2.50
   0   0   7  -10.50    5.30
   0   0   7    7.30    4.00
   0   0   7   -0.30    2.90
   0   0   7    1.60    2.80
   0   0   7    2.10    3.00
   1   0   7  137.39   14.60
   1   0   7  144.59   15.60
   1   0   7  146.19   14.90
   1   0   7  140.09   15.10
   1   0   7  143.69   16.30
   1   0   7   97.49   16.50
   1   0   7  123.49   16.10
   2   0   7  247.28   26.70
   2   0   7  302.97   27.30
   2   0   7  261.47   27.30
   2   0   7  261.67   27.60
   2   0   7  247.48   28.80
   2   0   7  259.37   28.70
   3   0   7   26.80    8.80
   3   0   7   29.60    7.20
   3   0   7   48.60    6.70
   3   0   7   33.60    6.40
   3   0   7   36.30    5.70
   3   0   7   26.70    7.10
   3   0   7   27.70    7.00
   4   0   7   58.49    7.60
   4   0   7   41.50    9.20
   4   0   7   53.99   12.00
   4   0   7   42.50    9.50
   4   0   7   52.39    8.10
  -5   0  -7   74.39   27.90
   5   0   7  105.39   13.70
   5   0   7  120.19   15.50
   5   0   7  148.19   19.30
   5   0   7  124.19   13.90
  -6   0  -7   39.80   24.20
   6   0   7   23.60    6.50
   6   0   7   23.10    5.60
   6   0   7   30.80   10.20
  -7   0  -7   -1.10   19.10
   7   0   7    1.80    3.30
   7   0   7   -3.50    3.40
   7   0   7    3.10    6.20
  -8   0  -7    8.50   19.50
   8   0   7    7.90    6.20
   8   0   7   -0.10    3.70
   8   0   7    7.50    4.50
  -9   0  -7   12.80   17.60
   9   0   7    4.30    4.80
  11  -1  -7   -0.80   17.40
 -11   1   7    8.80    2.80
  10  -1  -7   -3.60   21.10
 -10   1   7   10.10    2.90
 -10   1   7   14.30    5.70
 -10   1   7    9.00   16.90
  -9   1   7   69.49    8.80
  -9   1   7   77.69   12.30
  -8   1   7   -1.10    2.40
  -8   1   7    8.00   15.10
  -8   1   7    0.90    3.90
  -8   1   7   -4.70    5.00
  -7   1   7   94.39   12.10
  -7   1   7   97.69   25.40
  -7   1   7   86.39   13.70
  -7   1   7   92.59   11.90
  -6   1   7  312.77   30.00
  -6   1   7  224.68   27.30
  -6   1   7  286.57   28.20
  -6   1   7  286.57   28.50
  -6   1   7  252.67   28.60
  -5   1   7    1.90    2.70
  -5   1   7    3.30    4.50
  -5   1   7    3.50    3.50
  -5   1   7    6.10    3.80
  -5   1   7    6.20    3.80
  -4   1   7  634.44   62.99
  -4   1   7  664.63   61.29
  -4   1   7  613.94   61.79
  -4   1   7  592.54   62.29
  -4   1   7  601.54   61.29
  -3   1   7  622.94   59.69
  -3   1   7  582.84   58.59
  -3   1   7  512.15   59.69
  -3   1   7  600.54   58.49
  -3   1   7  599.24   59.19
  -3   1   7  642.04   58.29
  -3   1   7  570.34   57.89
  -2   1   7   19.40    5.90
  -2   1   7   22.20    4.60
  -2   1   7    8.00    4.00
  -2   1   7   23.10    5.40
  -2   1   7   16.80    4.60
  -2   1   7   22.80    4.50
  -2   1   7   20.20    5.60
  -2   1   7   18.40    3.60
  -1   1   7   95.29   11.40
  -1   1   7   93.29   12.80
  -1   1   7   96.49   12.80
  -1   1   7   82.09   10.30
  -1   1   7   99.39   10.70
  -1   1   7  106.79   11.20
  -1   1   7   65.69   11.50
  -1   1   7   92.89   12.40
   0   1   7  197.08   19.90
   0   1   7  169.78   21.20
   0   1   7  166.78   20.70
   0   1   7  179.58   21.20
   0   1   7  189.38   20.00
   0   1   7  211.08   19.50
   0   1   7  162.78   21.60
   0   1   7  180.38   19.20
   1   1   7   25.30    6.60
   1   1   7   32.80    6.20
   1   1   7   28.50    9.70
   1   1   7   29.00    5.10
   1   1   7   31.20    7.50
   1   1   7   41.20    6.10
   1   1   7   26.70    5.50
   2   1   7  449.16   49.40
   2   1   7  498.05   47.70
   2   1   7  531.55   48.30
   2   1   7  459.75   49.50
   2   1   7  448.16   47.10
   2   1   7  474.65   48.10
   3   1   7  180.38   23.50
   3   1   7  224.78   22.70
   3   1   7  165.18   25.10
   3   1   7  248.58   24.30
   3   1   7  207.48   21.90
   3   1   7  218.78   21.50
   4   1   7    6.00    4.00
   4   1   7    4.90    3.70
   4   1   7    8.10    5.10
   4   1   7    7.20    6.50
   4   1   7   14.50    4.20
  -5  -1  -7   90.89   26.20
   5   1   7   79.59   10.90
   5   1   7   88.99   16.10
   5   1   7   86.99   11.30
  -6  -1  -7   18.60   20.50
   6   1   7   -1.10    5.40
   6   1   7    0.40    3.60
   6   1   7    1.30    3.20
  -7  -1  -7  -10.30   18.50
  -7  -1  -7  -11.50   10.50
   7   1   7   -2.10    3.30
   7   1   7   -0.70    2.80
   7   1   7   -0.40    4.90
  -9  -1  -7    3.90   16.80
   9   1   7    7.90    4.70
  10  -2  -7  -20.50   18.00
 -10   2   7    7.80    5.10
 -10   2   7    8.60    4.30
 -10   2   7    2.50    2.60
  -9   2   7  100.19   12.70
  -9   2   7  124.19   13.60
  -9   2   7  115.59   15.20
  -8   2   7   16.80    4.00
  -8   2   7   23.20    5.90
  -8   2   7   15.60    6.30
  -7   2   7   17.00    6.30
  -7   2   7   10.80    3.70
  -7   2   7   13.10    5.30
  -6   2   7   36.70    7.00
  -6   2   7   54.69    8.50
  -6   2   7   69.79   10.70
  -6   2   7   42.90    7.00
  -6   2   7   66.49    8.40
  -5   2   7   -0.10    2.40
  -5   2   7    2.80    3.10
  -5   2   7    3.20    3.10
  -5   2   7    1.30    5.00
  -5   2   7    0.00    3.00
  -4   2   7  115.59   13.30
  -4   2   7  105.09   12.90
  -4   2   7  116.19   14.70
  -4   2   7   94.79   12.00
  -3   2   7  105.79   13.70
  -3   2   7  105.09   11.20
  -3   2   7  102.19   11.40
  -3   2   7  106.79   12.30
  -3   2   7   78.39   12.50
  -3   2   7   72.79   12.70
  -3   2   7   89.79   12.50
  -2   2   7   49.10    8.50
  -2   2   7   37.90    8.90
  -2   2   7   46.80    7.80
  -2   2   7   45.50    7.70
  -2   2   7   42.30    7.20
  -2   2   7   48.10    6.70
  -2   2   7   47.20    9.30
  -1   2   7   81.79   11.50
  -1   2   7   98.49   13.40
  -1   2   7   64.29   10.90
  -1   2   7   75.39   12.50
  -1   2   7   78.99    9.60
  -1   2   7   70.59   10.30
  -1   2   7   68.29    9.60
  -1   2   7  100.39   10.80
   0   2   7   66.19   10.00
   0   2   7   76.89    9.80
   0   2   7   69.69   11.00
   0   2   7   75.69   11.20
   0   2   7   77.69   14.30
   0   2   7   84.09   10.90
   0   2   7   94.09   14.80
   0   2   7   87.79    9.90
   1   2   7  353.86   34.70
   1   2   7  287.07   36.00
   1   2   7  378.66   38.50
   1   2   7  411.66   35.60
   1   2   7  296.47   34.20
   1   2   7  352.96   35.20
   1   2   7  331.67   36.50
   2   2   7   94.29   12.80
   2   2   7   77.29    9.20
   2   2   7   61.39   10.80
   2   2   7   58.29    9.90
   2   2   7   74.29   10.20
   3   2   7   56.29    7.60
   3   2   7   52.79    8.80
   3   2   7   58.99   11.50
   3   2   7   33.70    9.90
   3   2   7   41.40    7.60
   3   2   7   40.00    9.30
  -4  -2  -7   -5.60   18.00
   4   2   7   20.50    8.40
   4   2   7   12.00    5.10
   4   2   7   16.70    4.80
   4   2   7   22.00    6.20
   4   2   7   14.70    4.70
  -5  -2  -7   44.50   22.70
   5   2   7   24.10    7.10
   5   2   7   21.60    5.20
   5   2   7   30.10    6.00
   5   2   7   25.80    9.60
  -6  -2  -7   -6.80   19.20
   6   2   7    2.10    3.40
   6   2   7   -3.20    5.00
   6   2   7    2.00    3.50
  -7  -2  -7    7.30   18.90
  -7  -2  -7    2.70    9.80
   7   2   7    3.30    3.50
   7   2   7    3.80    5.20
   7   2   7    6.40    3.30
  -8  -2  -7    5.00   16.00
  10  -3  -7  -18.60   19.60
 -10   3   7    7.00    2.50
  -9   3   7   51.69    7.80
  -9   3   7   67.49   10.90
  -9   3   7   64.09    9.60
  -8   3   7   52.89    8.20
  -8   3   7   62.79   10.40
  -8   3   7   64.19   10.20
  -7   3   7  102.69   13.60
  -7   3   7  110.89   15.10
  -6   3   7   -1.30    2.70
  -6   3   7   -2.50    3.60
  -6   3   7    0.40    5.00
  -6   3   7   -1.80    3.80
  -5   3   7  163.18   20.50
  -5   3   7  175.58   18.40
  -5   3   7  169.08   19.00
  -4   3   7   55.59    8.70
  -4   3   7   40.20    9.40
  -4   3   7   74.79    9.20
  -4   3   7   61.89    8.40
  -3   3   7   13.50    4.40
  -3   3   7   18.70    4.70
  -3   3   7   14.70    5.70
  -3   3   7    8.00    5.60
  -3   3   7   16.60    4.10
  -3   3   7   17.90    5.10
  -2   3   7  209.48   23.30
  -2   3   7  217.58   21.20
  -2   3   7  168.78   23.30
  -2   3   7  188.78   21.70
  -2   3   7  203.28   21.60
  -1   3   7   54.29    8.10
  -1   3   7   43.60    8.30
  -1   3   7   53.39   11.00
  -1   3   7   84.39   12.10
  -1   3   7   65.79   10.10
  -1   3   7   51.59    9.90
  -1   3   7   48.80    7.90
   0   3   7  112.49   14.60
   0   3   7  131.79   14.60
   0   3   7  107.69   16.30
   0   3   7   88.69   12.50
   0   3   7  110.99   12.60
   1   3   7  246.48   27.50
   1   3   7  236.38   26.80
   1   3   7  294.77   29.60
   2   3   7    8.00    3.70
   2   3   7    7.40    3.40
   2   3   7   16.90    4.90
   2   3   7   14.80    6.80
   2   3   7   15.00    5.60
   3   3   7    5.00    4.20
   3   3   7    6.60    4.20
   3   3   7    8.60    3.70
   3   3   7    6.40    3.40
   3   3   7    5.60    6.20
  -4  -3  -7  240.38   37.00
   4   3   7  223.98   24.30
   4   3   7  232.38   29.20
   4   3   7  267.97   26.10
   4   3   7  184.48   25.90
   4   3   7  243.38   24.40
  -5  -3  -7    4.40   18.70
   5   3   7    3.60    3.70
   5   3   7    3.60    4.20
   5   3   7    4.30    5.60
   5   3   7    4.90    3.30
  -6  -3  -7   -2.30   17.90
   6   3   7    5.00    5.80
   6   3   7    7.60    4.00
   6   3   7    2.80    3.20
  -7  -3  -7   79.99   13.60
   7   3   7   72.09    9.50
  -9   4   7   -0.30    2.60
  -9   4   7   -4.70    4.60
  -9   4   7    3.20    4.50
  -8   4   7    0.00    3.10
  -8   4   7    1.60    4.70
  -8   4   7   -0.90    5.40
  -7   4   7   31.70    7.80
  -7   4   7   21.20    5.10
  -7   4   7   30.00    7.40
  -6   4   7    5.10    5.60
  -6   4   7   -2.80    5.20
  -6   4   7   -0.90    3.40
  -5   4   7  253.07   27.20
  -5   4   7  282.47   25.10
  -5   4   7  228.28   24.80
  -5   4   7  184.88   25.30
  -4   4   7   62.89    8.80
  -4   4   7   51.99    8.30
  -4   4   7   55.49    9.50
  -3   4   7   31.10    9.40
  -3   4   7   38.60    7.30
  -3   4   7   51.69    8.50
  -3   4   7   45.30    7.20
  -3   4   7   41.00    7.20
  -3   4   7   51.19    9.70
  -2   4   7   59.09   13.70
  -2   4   7   76.29   11.00
  -2   4   7   93.79   11.00
  -2   4   7   95.39   12.50
  -2   4   7  110.29   15.50
  -2   4   7   78.49   10.80
  -1   4   7   47.30    8.10
  -1   4   7   77.99   12.50
  -1   4   7   57.69    8.50
  -1   4   7   36.50   10.60
  -1   4   7   55.69    9.00
   0   4   7   -3.80    2.90
   0   4   7   -0.80    2.30
   0   4   7    1.00    4.30
   0   4   7    6.60    7.50
   0   4   7    0.40    2.90
   1   4   7   53.29    8.00
   1   4   7   38.90    7.10
   1   4   7   79.79   10.70
   1   4   7   42.30    8.20
   2   4   7    2.60    3.20
   2   4   7    5.50    3.40
   2   4   7    3.80    3.40
   2   4   7    9.70    4.90
   2   4   7   -0.70    6.40
  -3  -4  -7   -6.20   17.60
   3   4   7    9.10    4.50
   3   4   7    3.70    3.80
   3   4   7   11.90    3.80
   3   4   7   10.60    7.00
   3   4   7    8.10    5.00
  -4  -4  -7    8.90   18.50
   4   4   7   39.20    6.60
   4   4   7   38.30    7.90
   4   4   7   31.30    6.30
   4   4   7   48.30   11.40
  -5  -4  -7   -5.70   16.00
   5   4   7    4.50    5.50
   5   4   7    3.00    4.00
   5   4   7   -1.30    3.20
   5   4   7   -1.40    5.90
  -6  -4  -7   -2.20    7.20
  -6  -4  -7    9.30   14.50
   6   4   7    2.70    5.00
   6   4   7    2.50    3.10
  -8   5   7    6.30    5.20
  -8   5   7   11.10    5.40
  -8   5   7   11.90    3.70
  -7   5   7   -7.50    4.60
  -7   5   7   -5.40    6.30
  -7   5   7    0.30    3.50
  -6   5   7   26.40    8.00
  -6   5   7   18.40    7.10
  -6   5   7   17.50    5.50
  -5   5   7   -2.80    6.50
  -5   5   7    0.90    3.40
  -5   5   7   -6.00    3.80
  -5   5   7   -3.60    5.80
  -4   5   7   19.00    4.90
  -4   5   7   25.00    8.60
  -4   5   7   17.60    5.70
  -4   5   7   26.40    8.30
  -3   5   7  259.07   25.70
  -3   5   7  203.18   23.20
  -3   5   7  191.58   22.80
  -3   5   7  207.68   23.60
  -3   5   7  208.58   22.50
  -3   5   7  208.78   25.80
  -2   5   7    9.70    4.50
  -2   5   7    6.60    3.70
  -2   5   7   18.80    9.10
  -2   5   7    7.50    7.50
  -2   5   7    8.00    3.80
  -2   5   7    8.80    4.80
  -1   5   7   43.40    8.10
  -1   5   7   44.20    7.40
  -1   5   7   60.09   12.20
  -1   5   7   33.40    7.10
  -1   5   7   45.80    7.80
   0   5   7  126.39   13.10
   0   5   7  125.49   14.60
   0   5   7   78.99   12.50
   0   5   7  104.09   12.90
   1   5   7    6.30    3.60
   1   5   7    5.00    5.80
   1   5   7    9.10    3.70
   1   5   7    4.80    3.50
  -2  -5  -7    1.10   18.00
   2   5   7   11.60    4.10
   2   5   7   16.80    4.50
   2   5   7   20.50    5.30
   3   5   7  101.69   12.40
   3   5   7  125.69   13.80
   3   5   7   91.49   12.30
  -4  -5  -7   -9.20   21.20
   4   5   7   -2.90    6.00
   4   5   7    0.10    3.40
   4   5   7    6.40    4.60
   4   5   7    0.60    2.90
  -5  -5  -7   47.60    9.70
   5   5   7   42.40   13.00
   5   5   7   44.70   11.60
  -7   6   7    8.40    6.80
  -6   6   7  106.29   15.00
  -6   6   7   86.89   11.50
  -6   6   7   97.39   14.80
  -5   6   7    0.00    6.30
  -5   6   7    4.40    8.10
  -5   6   7    0.40    3.50
  -4   6   7   17.30    9.80
  -4   6   7    0.90    2.90
  -4   6   7    0.50    3.60
  -4   6   7   -0.60    6.50
  -3   6   7  143.99   17.30
  -3   6   7   85.29   12.40
  -3   6   7   99.99   13.90
  -3   6   7   98.89   12.40
  -3   6   7   93.89   12.50
  -2   6   7   29.20    6.50
  -2   6   7   57.59    9.00
  -2   6   7   32.80    6.70
  -2   6   7   44.10    7.40
  -2   6   7   54.29   11.30
  -1   6   7   64.59    8.90
  -1   6   7   52.79    8.60
  -1   6   7   59.89    9.10
   0   6   7   47.80    8.20
   0   6   7   63.69    8.60
   0   6   7   61.49    8.60
   1   6   7    1.70    3.40
   1   6   7    5.20    3.40
   1   6   7    5.90    3.60
   2   6   7   21.60    4.90
   2   6   7   19.90    4.90
   2   6   7   32.00    6.70
   3   6   7   21.70    5.20
   3   6   7   32.40    6.90
   3   6   7   23.80    5.00
  -4  -6  -7   -2.50    5.80
  -3   7   7    2.70    3.60
  -2   7   7   37.90    7.60
  -2   7   7   58.59    8.30
  -2   7   7   67.89    9.80
  -1   7   7   17.30    4.50
  -1   7   7   18.40    4.60
  -1   7   7   20.70    5.90
   0   7   7   29.70    6.00
   0   7   7   31.60    5.90
   0   7   7   32.00    6.30
   1   7   7    1.80    3.50
   1   7   7    8.80    3.50
   1   7   7    0.60    3.40
   1  14  -8   33.60    6.30
   0  14  -8   24.20    5.40
   0 -14   8    8.80    8.00
  -1  14  -8   55.49    8.10
   1 -14   8   32.60    9.80
  -2  14  -8  108.09   12.20
   2 -14   8   69.19   13.90
   4  13  -8   71.49    9.90
  -4 -13   8   64.29   10.10
   3  13  -8    0.90    3.90
  -3 -13   8    5.50    4.60
   2  13  -8    0.60    3.50
  -2 -13   8    5.80    8.80
  -2 -13   8    4.40    4.70
   1  13  -8   59.29    8.50
  -1 -13   8   60.89    9.80
  -1 -13   8   23.90   12.90
   0  13  -8   -1.60    3.60
   0 -13   8    0.30    9.70
   0 -13   8    1.20    4.20
  -1  13  -8    4.20    3.80
   1 -13   8   14.90   10.00
  -2  13  -8   16.20    6.00
  -2  13  -8   18.70    5.50
   2 -13   8   14.40    9.10
  -3  13  -8    5.70    4.10
  -3  13  -8   17.30    5.90
   3 -13   8    9.40   12.30
   3 -13   8   14.50    7.90
  -4  13  -8   60.19    9.10
   4 -13   8   74.19   12.60
  -5  13  -8   48.20    7.30
   5 -13   8   35.80    7.80
   6  12  -8   44.70   11.00
   5  12  -8  115.19   13.40
  -5 -12   8   85.79   13.20
   4  12  -8    3.40    4.30
  -4 -12   8    4.20    4.80
   3  12  -8  145.09   17.00
  -3 -12   8  128.99   18.10
   2  12  -8   52.99    8.50
  -2 -12   8   46.60    9.60
  -2 -12   8   15.90   12.70
   1  12  -8    9.40    4.80
  -1 -12   8    5.90    5.20
  -1 -12   8   -2.80   11.10
   0  12  -8  124.59   15.50
   0 -12   8  125.29   16.50
  -1  12  -8  164.48   17.90
  -1  12  -8  156.38   18.30
   1 -12   8  136.29   18.60
  -2  12  -8   66.89    9.80
  -2  12  -8   48.50    9.00
   2 -12   8   30.20   12.60
  -3  12  -8  100.69   13.80
  -3  12  -8   78.09   11.30
   3 -12   8   89.09   17.70
  -4  12  -8    2.90    3.60
  -4  12  -8    3.80    6.60
   4 -12   8    6.40    6.60
   4 -12   8    6.60   13.20
  -5  12  -8   -0.30    3.40
   5 -12   8   -0.10   13.00
   5 -12   8    3.80    4.80
  -6  12  -8   53.69    8.30
   6 -12   8   49.50    9.10
   7  11  -8   -2.30    4.20
   6  11  -8   47.80    9.40
  -6 -11   8   75.69   11.00
  -6 -11   8   49.30    9.60
   5  11  -8  229.38   25.00
  -5 -11   8  204.48   25.30
   4  11  -8    2.00    4.70
  -4 -11   8    1.40    5.10
   3  11  -8   60.39    9.50
  -3 -11   8   47.50   10.10
   2  11  -8   82.39   11.60
  -2 -11   8   54.89   16.40
   1  11  -8    2.20    4.20
   1  11  -8   -1.70    4.50
  -1 -11   8    1.00    4.80
  -1 -11   8   11.40   10.60
   0  11  -8  165.98   19.30
   0  11  -8  161.08   19.80
   0 -11   8  173.88   20.90
  -1  11  -8    3.50    4.70
  -1  11  -8    4.20    4.20
   1 -11   8    6.70    5.40
   1 -11   8    6.60    7.80
  -2  11  -8   -3.80    3.60
  -2  11  -8   -0.80    4.60
   2 -11   8   -0.70    7.70
   3 -11   8  155.08   23.30
  -4  11  -8   49.50    9.20
  -4  11  -8   50.89   11.50
   4 -11   8   42.50   12.30
  -5  11  -8    5.20    4.00
   5 -11   8   11.10    7.00
   5 -11   8    3.70   14.10
  -6  11  -8   52.09    8.40
   6 -11   8   35.30    8.50
   6 -11   8   10.60   15.10
  -7  11  -8    3.80    4.10
  -7  11  -8    8.50    6.80
   7 -11   8    1.10    4.00
   7 -11   8    5.60   12.80
  -8 -10   8   -1.00    3.10
   7  10  -8   96.39   14.30
  -7 -10   8  117.09   12.50
   6  10  -8   20.50    7.20
  -6 -10   8   21.90    6.70
  -6 -10   8   15.70    4.60
   5  10  -8    7.80    5.60
  -5 -10   8   10.70    6.00
  -5 -10   8    5.90    3.80
   4  10  -8  150.38   18.80
   3  10  -8   17.00    6.00
  -3 -10   8   13.80    6.00
   2  10  -8   20.20    6.40
   2  10  -8   34.50    8.10
  -2 -10   8   15.50   10.70
  -2 -10   8   13.60    5.80
   1  10  -8  570.24   55.09
   1  10  -8  497.75   55.39
  -1 -10   8  554.84   56.69
   0  10  -8   72.79   10.70
   0  10  -8   70.29   11.60
   0 -10   8   70.99   11.80
  -1  10  -8    1.00    4.20
  -1  10  -8    5.80    5.30
   1 -10   8    1.50    4.70
   1 -10   8    1.80    8.30
  -2  10  -8   11.90    4.80
  -2  10  -8   15.90    6.40
   2 -10   8    8.30    5.60
   2 -10   8    7.60    8.10
  -3  10  -8  180.48   19.70
   3 -10   8  145.99   23.60
  -4  10  -8   21.30    6.10
  -4  10  -8   24.10    8.60
   4 -10   8   -2.60   16.70
   4 -10   8   14.20    8.00
  -5  10  -8  276.27   27.50
  -5  10  -8  225.48   28.40
   5 -10   8  280.47   32.10
  -6  10  -8    2.20    3.80
  -6  10  -8    1.40    4.20
   6 -10   8   10.10   16.10
   6 -10   8    1.60    4.60
  -7  10  -8    9.40    4.40
  -7  10  -8   14.60    5.50
   7 -10   8    4.20   14.80
   7 -10   8   13.50    5.20
  -8  10  -8    1.70    4.10
  -8  10  -8   25.60    5.80
   8 -10   8    9.50   12.00
   9   9  -8   75.69   13.10
  -9  -9   8  121.09   11.50
   8   9  -8    3.90    6.20
  -8  -9   8   14.00    3.60
   7   9  -8   70.29   12.20
  -7  -9   8   57.29   10.30
   6   9  -8  112.69   17.30
  -6  -9   8  142.19   17.40
   5   9  -8    8.50    6.30
  -5  -9   8   10.60    6.00
  -5  -9   8   12.50    3.80
   4   9  -8  187.38   26.10
  -4  -9   8  252.97   27.70
  -4  -9   8  254.27   24.10
   3   9  -8   80.79   12.90
   3   9  -8   52.99    9.90
  -3  -9   8   45.80   10.40
   2   9  -8    6.40    4.80
   2   9  -8    5.90    5.90
  -2  -9   8    4.30    4.90
  -2  -9   8   -0.80    8.70
   1   9  -8  369.66   41.20
   1   9  -8  418.46   41.30
  -1  -9   8  387.96   42.10
   0   9  -8   27.00    6.70
   0   9  -8   22.00    7.40
   0  -9   8   17.10    6.50
   0  -9   8   12.20    8.90
  -1   9  -8   14.20    5.00
  -1   9  -8   10.70    6.20
   1  -9   8    7.50    5.20
   1  -9   8    5.10    7.60
  -2   9  -8  308.07   34.10
   2  -9   8  375.36   35.20
   2  -9   8  264.67   37.50
  -3   9  -8    2.90    3.60
  -3   9  -8   -0.30    4.90
   3  -9   8   -0.10    6.40
   3  -9   8    4.50   15.00
  -4   9  -8   15.20    5.40
  -4   9  -8   25.50    5.50
   4  -9   8    8.60   15.80
   4  -9   8    9.20    7.20
  -5   9  -8  182.48   21.50
  -6   9  -8   -2.10    4.20
  -6   9  -8    0.50    3.70
   6  -9   8   -0.40   18.10
   6  -9   8    3.60    5.40
  -7   9  -8   96.19   11.60
  -7   9  -8   88.39   12.50
   7  -9   8   68.19   12.70
  -8   9  -8   95.29   13.50
  -8   9  -8  104.49   12.40
   8  -9   8   95.39   22.10
  -9   9  -8   27.00    5.60
   9  -9   8   40.00   12.40
   9   8  -8    3.60    7.00
  -9  -8   8    8.70    3.40
  -9  -8   8   15.70    4.00
  -8  -8   8  171.18   18.60
   7   8  -8   34.00   10.00
  -7  -8   8   43.20    9.30
   6   8  -8   43.90   11.20
  -6  -8   8   50.69   10.90
  -6  -8   8   66.49    8.30
   5   8  -8  113.69   19.50
  -5  -8   8  125.89   17.70
  -5  -8   8  148.19   15.30
   4   8  -8    5.80    5.70
   4   8  -8    4.90    7.50
  -4  -8   8    3.90    4.50
  -4  -8   8    2.80    2.70
   3   8  -8    0.70    5.20
   3   8  -8    2.30    6.20
  -3  -8   8    0.80    3.60
  -3  -8   8    3.10    2.60
   2   8  -8  135.99   16.30
   2   8  -8  123.99   15.60
  -2  -8   8   86.99   14.50
   1   8  -8   84.09   13.40
   1   8  -8   81.59   12.60
  -1  -8   8   80.99   12.10
   0   8  -8    6.10    5.40
   0   8  -8    5.20    5.50
   0  -8   8    5.30    7.20
   0  -8   8    7.30    4.70
  -1   8  -8    6.70    5.10
  -1   8  -8    7.80    6.00
   1  -8   8    8.40    5.00
   1  -8   8    8.50    7.40
  -2   8  -8  205.58   26.30
  -2   8  -8  251.77   27.30
   2  -8   8  234.18   30.10
   2  -8   8  263.07   27.20
  -3   8  -8  204.18   23.90
   3  -8   8  211.68   27.10
  -4   8  -8   97.29   13.40
   4  -8   8   94.29   16.10
  -5   8  -8   34.10    7.60
   5  -8   8   30.00    9.30
   5  -8   8    2.60   17.90
  -6   8  -8   28.50    7.40
  -6   8  -8   35.00    6.40
   6  -8   8   23.70   19.30
   6  -8   8   29.30    8.90
  -7   8  -8    4.70    4.40
  -7   8  -8    0.80    4.20
   7  -8   8   22.80   18.20
   7  -8   8    2.10    4.50
  -8   8  -8   30.00    6.30
  -8   8  -8   50.29    8.80
   8  -8   8   29.20    7.80
   8  -8   8   54.59   17.50
  -9   8  -8   60.49    9.10
   9  -8   8   62.39   14.60
   9   7  -8   13.70    8.20
  -9  -7   8   20.70    4.60
  -9  -7   8   13.40    4.20
  -8  -7   8  136.39   15.50
   7   7  -8    9.00    8.80
  -7  -7   8    0.10    3.20
   6   7  -8   15.30    8.70
   6   7  -8    0.60   10.30
  -6  -7   8   11.20    3.80
  -6  -7   8   10.70    5.80
   5   7  -8  338.97   44.80
  -5  -7   8  449.06   41.90
  -5  -7   8  454.15   44.90
   4   7  -8   16.20   10.20
   4   7  -8   28.60    9.10
  -4  -7   8   36.00    5.80
  -4  -7   8   39.90    8.80
   3   7  -8   61.69   13.50
   3   7  -8   81.69   12.20
  -3  -7   8   81.99   12.00
  -3  -7   8   73.99    9.40
   2   7  -8 1198.88  123.29
   2   7  -8 1254.37  123.29
  -2  -7   8 1269.07  123.79
   1   7  -8   10.00    6.40
   1   7  -8   10.30    6.00
  -1  -7   8   12.50    5.60
  -1  -7   8   12.30    7.50
   0   7  -8   13.80    6.50
   0   7  -8   19.80    6.50
   0  -7   8   22.00    8.40
   0  -7   8   17.70    5.90
  -1   7  -8  121.29   17.40
  -1   7  -8  134.89   18.30
   1  -7   8  147.49   17.10
   1  -7   8  135.49   19.90
  -2   7  -8   12.40    5.30
   2  -7   8   13.70    7.30
   2  -7   8   11.60    5.20
  -3   7  -8  522.55   55.19
   3  -7   8  551.64   57.59
  -4   7  -8  169.28   19.40
   4  -7   8  150.78   21.50
  -5   7  -8   -0.80    3.80
   5  -7   8   10.30   13.90
   5  -7   8    1.80    5.10
  -6   7  -8  198.08   23.20
   6  -7   8  195.78   24.70
  -7   7  -8   31.20    6.50
  -7   7  -8   40.70    8.40
   7  -7   8   52.99   20.50
   7  -7   8   35.40    8.90
  -8   7  -8    8.20    5.20
   8  -7   8   18.70   13.10
   8  -7   8    8.60    5.30
  -9   7  -8  100.49   12.70
   9  -7   8   90.69   18.20
  10   6  -8   -3.70    8.00
 -10  -6   8   10.60    3.40
   9   6  -8   18.40    9.90
  -9  -6   8    8.70    3.50
  -9  -6   8    3.90    3.70
   8   6  -8  110.79   21.30
  -8  -6   8  153.28   16.40
  -8  -6   8  154.28   16.50
   7   6  -8    1.30   10.10
   7   6  -8   -1.80   12.30
  -7  -6   8    3.50    3.10
   6   6  -8   12.10   10.60
   6   6  -8    9.00   12.40
  -6  -6   8   20.60    6.70
  -6  -6   8   12.60    4.00
   5   6  -8   91.19   17.30
  -5  -6   8   91.59   11.10
  -5  -6   8   86.99   13.40
   4   6  -8   21.00   11.10
   4   6  -8   44.20   11.60
  -4  -6   8   54.09    9.10
  -4  -6   8   50.39    7.00
   3   6  -8   30.20   10.70
   3   6  -8   58.79   11.10
  -3  -6   8   56.29    9.40
  -3  -6   8   54.99    7.30
   2   6  -8  444.26   46.00
  -2  -6   8  403.86   43.50
  -2  -6   8  477.55   46.60
   1   6  -8  127.59   16.30
   1   6  -8  119.59   16.40
  -1  -6   8  122.29   17.80
  -1  -6   8  105.09   13.20
  -1  -6   8  134.39   15.80
   0   6  -8    4.90    5.60
   0  -6   8    0.50    3.30
   0  -6   8    2.90    5.50
   0  -6   8    5.60    3.40
  -1   6  -8  254.07   31.20
   1  -6   8  291.27   32.70
   1  -6   8  296.17   30.80
  -2   6  -8  251.57   27.90
   2  -6   8  253.47   29.50
   2  -6   8  239.28   27.20
  -3   6  -8    6.30    5.10
   3  -6   8    8.40    4.80
   3  -6   8   10.00    6.40
  -4   6  -8   28.40    6.80
   4  -6   8    4.10   12.30
   4  -6   8   33.70    9.30
  -5   6  -8   17.20    5.70
   5  -6   8    4.20   12.60
   5  -6   8   21.20    7.70
  -6   6  -8  231.38   26.90
   6  -6   8  250.07   28.60
   6  -6   8  220.68   37.90
   7  -6   8    8.60   13.80
   7  -6   8   -0.80    4.20
  -8   6  -8  116.89   14.90
   8  -6   8  116.89   22.80
  -9   6  -8   14.60    5.50
  -9   6  -8    9.30    4.00
   9  -6   8   13.30    8.40
   9  -6   8    9.20    5.00
  10  -6   8    0.70    5.40
  11   5  -8   -1.00   11.40
  10   5  -8   16.10   10.80
 -10  -5   8   16.00    4.00
 -10  -5   8   11.30   14.10
   9   5  -8   60.19   16.90
  -9  -5   8   85.09   20.30
  -9  -5   8   60.19    9.50
   8   5  -8    4.30   14.20
   8   5  -8   20.40   13.30
  -8  -5   8   66.09   19.60
  -8  -5   8   31.20    6.50
  -8  -5   8   47.60    7.10
   7   5  -8    3.30   14.90
   7   5  -8   20.70   13.00
  -7  -5   8   32.50    5.90
  -7  -5   8   19.10    4.90
   6   5  -8  235.18   36.40
  -6  -5   8  292.37   30.20
  -6  -5   8  301.17   38.80
  -6  -5   8  314.27   31.90
   5   5  -8    9.60   13.00
   5   5  -8    9.70   10.20
  -5  -5   8    8.20    4.90
  -5  -5   8   -5.40   14.30
  -5  -5   8    3.40    3.00
  -4  -5   8  419.46   51.39
  -4  -5   8  445.16   45.90
  -4  -5   8  440.16   43.70
   3   5  -8  414.16   49.30
  -3  -5   8  467.25   46.60
  -3  -5   8  527.85   49.40
   2   5  -8    5.10    6.90
   2   5  -8    8.10    7.40
  -2  -5   8   10.40    3.70
  -2  -5   8    8.10    3.00
  -2  -5   8    9.90    4.60
   1   5  -8  214.68   30.60
  -1  -5   8  253.17   28.00
  -1  -5   8  332.17   30.80
  -1  -5   8  267.77   30.50
  -1  -5   8  307.07   28.70
   0   5  -8  177.58   21.20
   0  -5   8  138.49   17.50
   0  -5   8  179.58   19.70
   0  -5   8  172.98   18.10
   0  -5   8  170.98   20.80
  -1   5  -8    1.30    5.50
   1  -5   8    1.90    3.50
   1  -5   8    1.90    4.50
  -2   5  -8  695.83   73.59
   2  -5   8  687.33   72.79
   2  -5   8  794.92   74.89
  -3   5  -8   33.30    8.10
   3  -5   8   23.80    6.60
   3  -5   8   29.60    8.20
  -4   5  -8   25.20    7.20
   4  -5   8   33.90    9.10
   4  -5   8   24.30   13.70
  -5   5  -8  409.06   40.00
   5  -5   8  360.26   41.20
   5  -5   8  376.46   48.20
   5  -5   8  362.96   38.30
   6  -5   8   49.30   17.00
   6  -5   8   41.30    9.90
   7  -5   8    4.10    9.80
   7  -5   8    3.50    4.40
   8  -5   8  151.58   19.20
   8  -5   8  137.39   17.00
  -9   5  -8    5.40    5.20
   9  -5   8   -0.90    4.80
   9  -5   8    8.20    6.50
 -10   5  -8    9.80    6.70
  10  -5   8   14.60    6.00
  11   4  -8    9.20    9.70
 -11  -4   8    3.30   14.00
  10   4  -8    2.10   12.50
 -10  -4   8    0.50   13.10
 -10  -4   8    4.20    3.10
   9   4  -8    7.10   14.90
   9   4  -8   35.50   17.20
  -9  -4   8   55.79    8.60
  -9  -4   8   63.89   19.00
   8   4  -8    9.90   16.00
  -8  -4   8    4.60    3.30
  -8  -4   8   -1.70    3.40
  -8  -4   8    6.80   14.00
   7   4  -8   20.10   19.00
  -7  -4   8   39.30   17.20
  -7  -4   8    8.30    4.30
  -7  -4   8   13.60    4.40
  -6  -4   8  167.48   19.00
  -6  -4   8  174.68   29.10
  -6  -4   8  175.08   19.30
   5   4  -8   37.90   18.40
  -5  -4   8   55.59   10.60
  -5  -4   8   56.59    8.60
  -5  -4   8   75.19   19.70
  -5  -4   8   60.89    8.30
  -4  -4   8  197.78   20.10
  -4  -4   8  187.18   21.80
  -4  -4   8  176.68   20.40
  -3  -4   8  379.26   39.60
  -3  -4   8  407.76   41.80
  -3  -4   8  399.96   40.20
  -2  -4   8   60.99    8.30
  -2  -4   8   48.70    7.50
  -2  -4   8   58.69    9.30
  -1  -4   8  127.79   15.00
  -1  -4   8  130.49   13.80
  -1  -4   8  111.89   13.10
  -1  -4   8   99.19   14.80
   0  -4   8  175.88   18.60
   0  -4   8  165.08   18.20
   0  -4   8  156.68   20.00
   0  -4   8  174.18   19.70
  -1   4  -8   46.60   10.10
   1  -4   8   34.10    6.60
   1  -4   8   55.59   10.60
   1  -4   8   43.30    7.30
   1  -4   8   38.60    6.50
   1  -4   8   30.20    6.80
  -2   4  -8  214.28   26.90
   2  -4   8  229.08   25.90
   2  -4   8  260.97   27.50
  -3   4  -8   10.70    5.80
   3  -4   8    4.30    3.70
   3  -4   8    6.80    3.80
   3  -4   8   10.70    5.70
  -4   4  -8   14.90   20.60
   4  -4   8    7.70    4.40
   4  -4   8    5.00    4.40
   4  -4   8    0.50    4.10
   4  -4   8    8.40    9.90
  -5   4  -8  537.75   58.99
   5  -4   8  464.55   52.59
   5  -4   8  402.66   47.90
   5  -4   8  434.46   45.50
  -6   4  -8    3.00   22.70
   6  -4   8    0.50    3.50
   6  -4   8    1.50    8.30
  -7   4  -8   26.60   23.90
   7  -4   8   50.49   10.40
   7  -4   8   36.30    8.10
   7  -4   8   64.89   15.50
  -8   4  -8   89.99   26.80
   8  -4   8  135.69   18.90
   8  -4   8   77.49   12.90
   8  -4   8  111.99   15.10
  -9   4  -8    5.00    5.60
  -9   4  -8  -17.70   37.80
   9  -4   8    8.80    6.00
   9  -4   8   -2.10    4.30
 -10   4  -8   -1.70    3.20
  10  -4   8    3.50    5.40
  11   3  -8   -3.80   10.90
 -11  -3   8   16.10   13.90
  10   3  -8   36.70   16.50
  10   3  -8    6.30   12.70
 -10  -3   8   15.20   14.10
   9   3  -8   13.40   17.80
  -9  -3   8   29.50   16.00
  -9  -3   8   35.90    6.10
  -8  -3   8  195.48   23.50
  -8  -3   8  244.58   33.00
  -7  -3   8  187.58   19.90
  -7  -3   8  192.08   19.60
  -7  -3   8  134.69   28.20
   6   3  -8    3.40   19.30
  -6  -3   8    7.60   13.80
  -6  -3   8    0.90    4.10
  -6  -3   8    4.90    3.20
  -6  -3   8    4.80    3.90
  -5  -3   8  108.89   13.20
  -5  -3   8   87.39   12.20
  -5  -3   8  102.59   23.50
  -5  -3   8  110.89   12.20
  -5  -3   8   89.69   10.90
  -4  -3   8   -7.70    4.50
  -4  -3   8    3.30    4.20
  -4  -3   8    7.50    3.10
  -4  -3   8   26.60   16.70
  -4  -3   8    1.70    3.40
  -4  -3   8    4.00    2.30
  -3  -3   8   -0.40    2.40
  -3  -3   8   -0.50    2.80
  -3  -3   8    2.80    2.10
  -3  -3   8    2.70    3.80
  -3  -3   8    5.90    2.80
  -2  -3   8  939.11   88.49
  -2  -3   8  818.02   87.29
  -2  -3   8  804.92   87.59
  -2  -3   8  982.20   89.89
  -2  -3   8  959.50   88.19
  -1  -3   8   72.49   11.10
  -1  -3   8   82.19    9.90
  -1  -3   8   91.39   11.20
  -1  -3   8   67.09    9.10
  -1  -3   8   79.79   10.30
  -1  -3   8   78.99    9.70
   0   3  -8    7.10    6.70
   0  -3   8    5.40    3.60
   0  -3   8   11.20    4.50
   0  -3   8    8.60    4.30
   0  -3   8    6.00    3.70
   0  -3   8    9.80    4.50
   0  -3   8    5.40    3.00
   0  -3   8   12.00    3.60
   1  -3   8  442.86   48.60
   1  -3   8  493.65   50.19
   1  -3   8  526.55   50.99
   1  -3   8  540.75   49.70
   1  -3   8  494.15   48.70
   1  -3   8  450.05   48.30
  -2   3  -8   -0.20    6.10
   2  -3   8    1.80    2.90
   2  -3   8    6.20    3.50
   2  -3   8    2.50    3.00
   2  -3   8   -1.60    3.70
   2  -3   8    0.70    3.70
   3  -3   8   -2.90    3.40
   3  -3   8    4.00    3.70
   3  -3   8    0.80    2.90
   3  -3   8   -0.80    4.50
   4  -3   8  291.47   35.10
   4  -3   8  268.47   30.20
   4  -3   8  277.07   32.10
   4  -3   8  321.77   29.90
   4  -3   8  271.87   31.90
  -5   3  -8   30.70   20.20
   5  -3   8    5.40    7.40
   5  -3   8    0.30    3.20
   5  -3   8    4.70    5.20
   5  -3   8    2.40    4.00
  -6   3  -8  142.99   33.90
   6  -3   8  101.69   15.40
   6  -3   8  156.58   21.70
   6  -3   8  134.79   17.40
   7  -3   8  145.49   20.90
   7  -3   8  134.19   17.30
   7  -3   8  113.29   15.70
  -8   3  -8  -11.40   20.20
   8  -3   8    4.50    4.00
   8  -3   8    7.40    6.40
   8  -3   8    2.60    4.70
  -9   3  -8   20.50    6.90
  -9   3  -8    5.30   19.80
   9  -3   8   33.20    8.10
   9  -3   8    5.60    4.80
  11   2  -8    2.30   13.00
 -11  -2   8    4.80   13.20
  10   2  -8   22.00   18.50
 -10  -2   8    3.50   11.90
 -10  -2   8   27.30    5.30
 -10  -2   8   24.20    6.60
   9   2  -8   13.80   20.30
  -9  -2   8   -1.00   12.40
  -9  -2   8    6.30    4.70
  -9  -2   8   -5.10    2.80
  -9  -2   8    2.50    3.60
   8   2  -8   12.10   23.50
  -8  -2   8   69.59   11.30
  -8  -2   8   77.59   11.10
  -8  -2   8   94.59   10.60
  -8  -2   8   62.59    8.90
  -8  -2   8   81.29   21.70
   7   2  -8   -4.30   22.50
  -7  -2   8   20.10   14.90
  -7  -2   8   39.50    7.90
  -7  -2   8   44.50    7.60
  -7  -2   8   46.60    6.40
  -7  -2   8   58.69    8.50
   6   2  -8  -14.60   19.30
  -6  -2   8    8.60    4.10
  -6  -2   8   -0.70    2.50
  -6  -2   8    0.60    3.70
  -6  -2   8   -4.70   13.80
  -6  -2   8    3.40    4.20
  -6  -2   8   -1.20    3.40
  -5  -2   8  469.45   46.30
  -5  -2   8  442.56   45.10
  -5  -2   8  491.95   46.90
  -5  -2   8  389.36   46.00
  -5  -2   8  455.25   45.70
  -5  -2   8  520.05   55.29
  -4  -2   8  262.57   27.30
  -4  -2   8  253.27   26.30
  -4  -2   8  249.48   25.30
  -4  -2   8  239.48   25.90
  -4  -2   8  245.98   26.70
  -3  -2   8   -7.50    3.80
  -3  -2   8    0.80    3.20
  -3  -2   8    4.30    2.10
  -3  -2   8   -2.70    2.90
  -3  -2   8    0.40    2.60
  -3  -2   8    0.40    3.20
  -2  -2   8  370.66   38.90
  -2  -2   8  400.86   38.80
  -2  -2   8  402.96   39.40
  -2  -2   8  341.87   39.40
  -2  -2   8  425.96   40.10
  -2  -2   8  403.16   40.80
  -1  -2   8   94.89   10.90
  -1  -2   8   93.99   12.20
  -1  -2   8  102.89   11.40
  -1  -2   8   89.69   12.90
  -1  -2   8   89.59   11.70
  -1  -2   8  102.89   12.60
  -1  -2   8   91.59   11.70
   0  -2   8  161.08   16.70
   0  -2   8  153.88   15.40
   0  -2   8  138.79   16.90
   0  -2   8  122.39   15.70
   0  -2   8  142.79   15.40
   0  -2   8  132.09   15.50
   0  -2   8  144.89   17.30
   1  -2   8  910.51   95.59
   1  -2   8  910.21   93.69
   1  -2   8 1010.70   94.69
   1  -2   8 1005.20   95.99
   1  -2   8  944.41   93.69
   1  -2   8  974.30   93.89
   2  -2   8   40.70    8.70
   2  -2   8   43.40    7.80
   2  -2   8   52.59    8.40
   2  -2   8   47.90    7.70
   2  -2   8   37.80    8.50
   2  -2   8   41.10    7.00
   3  -2   8    0.60    4.10
   3  -2   8    6.80    3.70
   3  -2   8    0.60    3.30
   3  -2   8    3.20    3.70
   4  -2   8  169.78   24.30
   4  -2   8  221.98   25.10
   4  -2   8  214.58   23.40
   4  -2   8  211.58   27.00
   4  -2   8  250.97   22.80
  -5   2  -8   22.90   21.30
   5  -2   8    9.30    5.20
   5  -2   8    9.80    6.80
   5  -2   8    3.00    3.70
   5  -2   8   -1.40    4.00
   5  -2   8   15.70    4.30
  -6   2  -8   51.19   25.80
   6  -2   8   24.70    6.40
   6  -2   8   34.90   10.60
   6  -2   8   26.40    7.20
   7  -2   8  159.08   20.30
   7  -2   8  210.08   25.90
   7  -2   8  196.68   22.70
  -8   2  -8    0.00   20.10
   8  -2   8   23.00    8.20
   8  -2   8   18.70    5.70
   8  -2   8    6.40    4.50
  -9   2  -8    9.60   18.00
   9  -2   8    2.10    4.20
   9  -2   8   16.80    6.20
  11   1  -8    0.60   13.30
  10   1  -8   12.10   18.30
 -10  -1   8    0.50    2.40
 -10  -1   8    9.80   14.20
 -10  -1   8    6.50    5.00
  -9  -1   8  109.39   23.00
  -9  -1   8  111.69   12.40
   8   1  -8    9.20   23.10
  -8  -1   8   19.90    5.10
  -8  -1   8   14.00    3.60
  -8  -1   8    3.60   12.70
  -8  -1   8   14.60    5.80
   7   1  -8  -22.50   20.90
  -7  -1   8   16.90    3.80
  -7  -1   8   24.80    6.00
  -7  -1   8   -0.10   12.80
  -7  -1   8   17.70    5.80
  -7  -1   8   28.20    5.30
  -7  -1   8   21.50    6.30
   6   1  -8  -36.10   17.60
  -6  -1   8   10.90    4.50
  -6  -1   8    5.70    4.60
  -6  -1   8   16.10    4.50
  -6  -1   8    7.00    3.00
  -6  -1   8   14.50    5.20
  -6  -1   8    7.60   16.30
  -5  -1   8  272.67   33.90
  -5  -1   8  341.97   32.50
  -5  -1   8  309.27   33.50
  -5  -1   8  368.56   33.30
  -5  -1   8  312.27   33.70
  -4  -1   8  130.39   17.30
  -4  -1   8  146.59   16.80
  -4  -1   8  168.38   15.80
  -4  -1   8  164.48   16.60
  -4  -1   8  143.99   17.10
  -4  -1   8  122.89   17.30
  -3  -1   8  375.26   37.90
  -3  -1   8  365.16   39.00
  -3  -1   8  382.66   38.30
  -3  -1   8  368.46   39.50
  -3  -1   8  396.86   37.40
  -3  -1   8  355.06   37.40
  -3  -1   8  376.26   38.50
  -2  -1   8   45.80    7.70
  -2  -1   8   29.80    5.40
  -2  -1   8   47.00    7.90
  -2  -1   8   39.10    6.20
  -2  -1   8   31.00    7.20
  -2  -1   8   34.20    6.80
  -2  -1   8   37.70    6.70
  -1  -1   8  136.59   15.40
  -1  -1   8  140.89   14.80
  -1  -1   8  152.78   15.80
  -1  -1   8  147.29   14.70
  -1  -1   8   96.99   16.50
  -1  -1   8  138.49   16.60
  -1  -1   8  122.19   16.40
  -1  -1   8  117.89   14.60
  -1  -1   8  141.39   15.90
   0  -1   8  209.48   20.60
   0  -1   8  177.78   22.20
   0  -1   8  154.38   21.40
   0  -1   8  195.38   22.30
   0  -1   8  198.78   20.60
   0  -1   8  206.28   21.60
   0  -1   8  218.18   20.70
   1  -1   8  132.79   15.20
   1  -1   8  155.58   15.40
   1  -1   8  130.79   15.10
   1  -1   8  123.49   16.80
   1  -1   8  139.79   16.20
   1  -1   8  140.79   17.30
   2  -1   8   39.70    9.00
   2  -1   8   39.50    6.40
   2  -1   8   42.40    8.00
   2  -1   8   38.50    8.70
   2  -1   8   32.10    7.30
   2  -1   8   49.20    7.40
   3  -1   8   67.59   11.00
   3  -1   8   56.89   10.30
   3  -1   8   52.89    9.80
   3  -1   8   56.99    8.70
   3  -1   8   64.49    8.50
   4  -1   8    1.60    2.90
   4  -1   8    5.00    3.80
   4  -1   8   -1.40    3.50
   4  -1   8    3.70    3.80
   4  -1   8    7.30    5.70
  -5   1  -8  163.28   34.30
   5  -1   8  156.78   22.50
   5  -1   8  166.08   17.80
  -6   1  -8   16.90   22.10
   6  -1   8   14.60    5.30
   6  -1   8   22.70    6.90
   6  -1   8   26.30    9.20
  -7   1  -8   -1.30   20.50
   7  -1   8   16.40    5.10
   7  -1   8   29.30    9.30
   7  -1   8   27.90    6.90
  -8   1  -8   -3.30   18.80
   8  -1   8   19.50    4.50
  -9   1  -8   11.40   16.70
   9  -1   8    3.10    4.60
  10   0  -8   15.10   17.80
 -10   0   8    4.50    4.70
 -10   0   8    3.30    2.30
  -9   0   8  117.69   14.20
  -9   0   8  153.28   16.70
  -8   0   8   81.69   10.70
  -8   0   8   60.89    9.30
  -8   0   8   84.59   10.70
  -8   0   8   80.49   11.90
   7   0  -8  -31.10   19.50
  -7   0   8    9.10    3.40
  -7   0   8   13.30    5.00
  -7   0   8   18.60    6.10
  -7   0   8   18.30    5.20
  -7   0   8   17.90    4.90
  -6   0   8  229.58   24.00
  -6   0   8  227.48   23.00
  -6   0   8  212.88   23.00
  -6   0   8  167.48   23.00
  -6   0   8  213.58   22.00
  -5   0   8  117.89   12.80
  -5   0   8  106.89   14.50
  -5   0   8  105.49   14.10
  -5   0   8  120.39   14.80
  -5   0   8  126.09   14.30
  -4   0   8   45.70    8.60
  -4   0   8   43.60    6.60
  -4   0   8   49.20    8.60
  -4   0   8   40.20    7.80
  -4   0   8   46.60    9.60
  -4   0   8   55.29    8.60
  -3   0   8  552.04   55.19
  -3   0   8  573.94   54.49
  -3   0   8  539.35   53.79
  -3   0   8  588.44   54.09
  -3   0   8  552.94   54.79
  -3   0   8  481.75   56.09
  -3   0   8  521.45   55.29
  -2   0   8   10.70    5.10
  -2   0   8    2.60    3.10
  -2   0   8   11.70    5.50
  -2   0   8    9.30    4.20
  -2   0   8    9.00    3.30
  -2   0   8    9.40    3.70
  -2   0   8    7.10    4.50
  -1   0   8  536.75   51.19
  -1   0   8  509.85   51.09
  -1   0   8  588.34   50.19
  -1   0   8  430.36   52.39
  -1   0   8  495.75   49.70
  -1   0   8  501.45   50.79
  -1   0   8  521.55   52.59
  -1   0   8  434.26   49.80
   0   0   8 1019.90   92.49
   0   0   8  917.71   92.09
   0   0   8  939.21   93.59
   0   0   8  896.81   94.59
   0   0   8  935.31   93.09
   0   0   8 1030.40   92.49
   0   0   8  852.11   93.69
   1   0   8   11.40    4.00
   1   0   8    6.60    3.50
   1   0   8    3.30    4.20
   1   0   8    8.90    4.40
   1   0   8    9.50    4.50
   1   0   8   10.00    3.60
   2   0   8   71.89   11.40
   2   0   8   88.89   13.10
   2   0   8   92.29   11.90
   2   0   8   95.29   11.00
   2   0   8   93.39   11.30
   2   0   8   89.69   12.70
   3   0   8  238.88   21.40
   3   0   8  204.48   22.10
   3   0   8  146.69   19.60
   3   0   8  159.98   21.50
   3   0   8  175.98   21.00
   4   0   8    1.40    2.80
   4   0   8    5.50    3.70
   4   0   8   -1.20    5.70
   4   0   8    1.10    3.60
  -5   0  -8  205.58   35.80
   5   0   8  211.68   20.40
   5   0   8  183.98   25.10
   5   0   8  154.38   20.30
  -6   0  -8   77.99   28.70
   6   0   8  112.29   13.70
   6   0   8  117.09   18.40
   6   0   8  124.69   15.90
  -7   0  -8   -1.70   18.30
   7   0   8    2.70    3.10
   7   0   8    1.40    5.50
   7   0   8   -2.90    3.40
  -8   0  -8    2.90   18.60
   8   0   8   54.29   11.20
   8   0   8   52.69    8.80
  10  -1  -8  -12.60   15.20
 -10   1   8   23.40    6.00
 -10   1   8   21.80    3.60
   9  -1  -8  -11.30   19.90
  -9   1   8   36.00    5.80
  -9   1   8   19.40    4.20
  -9   1   8   34.60    7.20
   8  -1  -8  -39.20   19.00
  -8   1   8    5.60    4.60
  -8   1   8    9.00    5.40
  -8   1   8    0.30    2.70
  -7   1   8    5.60    5.50
  -7   1   8    2.50    2.90
  -7   1   8    4.50    4.10
  -7   1   8    8.30    5.20
  -7   1   8    5.10    4.40
  -6   1   8  238.78   25.30
  -6   1   8  194.38   24.00
  -6   1   8  196.68   25.10
  -6   1   8  279.47   26.70
  -6   1   8  272.37   25.40
  -5   1   8   96.89   13.40
  -5   1   8  106.49   13.60
  -5   1   8  120.79   14.50
  -5   1   8  106.59   13.70
  -4   1   8  107.79   11.70
  -4   1   8  107.79   13.10
  -4   1   8   68.59   10.10
  -4   1   8   97.29   12.30
  -4   1   8   74.89   11.50
  -3   1   8  100.19   12.90
  -3   1   8   85.29   12.70
  -3   1   8   86.99   12.40
  -3   1   8  101.79   11.00
  -3   1   8   79.29   10.70
  -3   1   8   78.19   11.80
  -2   1   8    0.70    3.30
  -2   1   8    1.40    3.80
  -2   1   8    4.90    4.90
  -2   1   8    4.40    5.30
  -2   1   8    1.40    3.00
  -2   1   8    4.00    2.90
  -2   1   8    7.00    3.60
  -1   1   8   48.30    7.30
  -1   1   8   53.49    7.50
  -1   1   8   72.39   11.30
  -1   1   8   30.20    6.60
  -1   1   8   48.60    8.20
  -1   1   8   60.39   10.10
  -1   1   8   51.99    9.20
  -1   1   8   41.20    9.40
   0   1   8   47.90   10.30
   0   1   8   60.39   11.40
   0   1   8   45.20    9.40
   0   1   8   55.29    8.90
   0   1   8   42.00    7.20
   0   1   8   67.39    8.10
   0   1   8   41.20    7.70
   1   1   8   71.39   10.50
   1   1   8   77.99   11.60
   1   1   8   80.39   10.00
   1   1   8   58.79   10.80
   1   1   8   73.39    9.40
   1   1   8   81.19   10.50
   2   1   8   -0.20    3.50
   2   1   8    2.10    3.00
   2   1   8    3.90    3.50
   2   1   8    4.80    3.70
   2   1   8    2.60    4.10
   2   1   8   -1.10    3.00
   3   1   8   15.40    5.30
   3   1   8   25.20    6.30
   3   1   8   32.40    8.10
   3   1   8   31.30    5.60
  -4  -1  -8   61.39   25.00
   4   1   8   65.49   10.90
   4   1   8   53.89   14.70
   4   1   8   46.20    8.60
   4   1   8   68.49    9.10
  -5  -1  -8   34.70   21.70
   5   1   8   23.60    5.50
   5   1   8   14.30    8.10
   5   1   8   27.60    7.50
   5   1   8   22.80    5.30
  -6  -1  -8   -1.90   19.20
   6   1   8    9.20    4.20
   6   1   8    8.60    6.90
   6   1   8   19.30    5.80
  -7  -1  -8    0.40   18.40
   7   1   8   21.00    4.50
  -8  -1  -8    6.50   16.10
   8   1   8    3.20    5.50
 -10   2   8   66.99    8.50
  -9   2   8   57.39    7.80
  -9   2   8   68.59   10.50
  -9   2   8   60.19    9.50
  -8   2   8   24.40    6.20
  -8   2   8   24.60    6.50
  -8   2   8   16.20    4.00
  -7   2   8   53.59    9.50
  -7   2   8   49.10    7.50
  -7   2   8   56.99    9.20
  -6   2   8   -1.80    3.70
  -6   2   8    3.10    5.30
  -6   2   8    0.80    5.20
  -6   2   8    0.70    2.70
  -5   2   8  136.39   14.60
  -5   2   8  142.59   15.80
  -5   2   8  113.19   15.70
  -4   2   8  158.78   19.40
  -4   2   8  209.28   20.80
  -3   2   8   -1.20    3.40
  -3   2   8   -0.90    4.80
  -3   2   8   -1.00    2.70
  -3   2   8    1.90    5.10
  -3   2   8    0.60    3.50
  -2   2   8  254.17   28.40
  -2   2   8  251.47   28.50
  -2   2   8  215.88   26.40
  -2   2   8  226.98   26.50
  -2   2   8  286.47   26.50
  -2   2   8  285.07   29.00
  -1   2   8  238.58   27.50
  -1   2   8  195.38   25.40
  -1   2   8  258.17   25.60
  -1   2   8  247.08   25.30
  -1   2   8  272.97   28.40
  -1   2   8  196.98   30.00
  -1   2   8  283.57   28.60
   0   2   8   17.60    5.80
   0   2   8   10.90    4.00
   0   2   8   16.20    4.60
   0   2   8    7.50    4.00
   0   2   8   11.50    4.70
   0   2   8   18.20    8.70
   1   2   8  127.99   17.60
   1   2   8  177.38   20.60
   1   2   8  164.68   18.00
   1   2   8  198.68   19.00
   2   2   8   99.79   12.10
   2   2   8  101.49   12.50
   3   2   8   52.99    8.80
   3   2   8   34.60    6.80
   3   2   8   39.90    6.70
   3   2   8   25.80    7.80
  -4  -2  -8  132.79   32.00
   4   2   8  173.88   18.90
   4   2   8  150.48   17.00
   4   2   8  152.18   17.40
  -5  -2  -8   -0.80   19.10
   5   2   8   11.40    6.90
   5   2   8    2.70    3.40
   5   2   8    8.10    4.50
   5   2   8    9.30    4.30
  -6  -2  -8    1.50   17.80
   6   2   8    4.10    3.20
   6   2   8    3.20    5.60
   6   2   8    2.60    3.20
  -7  -2  -8   29.20   19.40
   7   2   8   65.99   12.10
   7   2   8   53.49    8.30
  -9   3   8   -5.20    5.10
  -9   3   8   -0.80    2.30
  -8   3   8    8.70    5.50
  -8   3   8    3.70    4.90
  -8   3   8    7.60    3.30
  -7   3   8   39.50    8.50
  -7   3   8   62.29    9.30
  -7   3   8   36.60    6.30
  -6   3   8    4.60    3.60
  -6   3   8   10.50    6.40
  -6   3   8    9.50    4.10
  -6   3   8    8.60    5.80
  -5   3   8    0.70    3.30
  -5   3   8    0.20    3.00
  -5   3   8    0.50    4.60
  -5   3   8    2.20    5.00
  -4   3   8  112.89   14.00
  -4   3   8  110.29   15.70
  -4   3   8  116.79   15.60
  -3   3   8   21.20    5.90
  -3   3   8   40.40    8.60
  -3   3   8   23.90    8.80
  -3   3   8   32.80    6.80
  -3   3   8   33.30    9.30
  -3   3   8   29.90    6.00
  -2   3   8  232.98   25.20
  -2   3   8  236.38   24.60
  -2   3   8  194.38   24.70
  -2   3   8  244.08   27.60
  -2   3   8  275.47   28.00
  -1   3   8   16.20    4.10
  -1   3   8    7.40    3.80
  -1   3   8   19.10    8.50
  -1   3   8   12.20    4.50
  -1   3   8    9.50    5.00
   0   3   8   49.00    8.30
   0   3   8   61.89   10.60
   0   3   8   80.89   11.10
   0   3   8   54.09    8.50
   1   3   8  128.09   15.00
   1   3   8   93.99   14.00
   1   3   8   87.39   12.00
   1   3   8   83.19   11.30
   1   3   8   94.39   11.60
   2   3   8   28.40    6.10
   2   3   8   47.40   10.40
   2   3   8   40.50    7.60
   2   3   8   48.20   10.00
   2   3   8   33.60    6.10
  -3  -3  -8   -7.40   18.20
   3   3   8    7.30    3.60
   3   3   8    8.40    4.70
   3   3   8    3.60    3.70
   3   3   8    7.20    4.00
  -4  -3  -8   24.60   19.20
   4   3   8   32.20    6.40
   4   3   8   44.00    9.00
   4   3   8   46.60    8.70
   4   3   8   39.80    6.70
  -5  -3  -8  -10.70   17.60
   5   3   8   15.70    5.30
   5   3   8    2.80    4.40
  -6  -3  -8    3.60   15.80
  -6  -3  -8    6.20    8.10
   6   3   8    1.60    6.60
   6   3   8    0.50    3.30
  -8   4   8   -4.90    5.40
  -8   4   8   -1.70    7.00
  -8   4   8   -0.20    3.00
  -7   4   8   -3.80    3.30
  -7   4   8   -4.50    6.70
  -7   4   8   -2.60    4.80
  -6   4   8  138.19   18.20
  -6   4   8  135.99   15.60
  -6   4   8  131.49   19.70
  -5   4   8   49.00    9.60
  -5   4   8   22.60    5.70
  -5   4   8   21.40    5.00
  -5   4   8   24.10    8.10
  -4   4   8   -0.70    2.80
  -4   4   8   -1.30    6.40
  -4   4   8   10.70    8.80
  -4   4   8   -0.40    4.10
  -3   4   8   46.40    8.30
  -3   4   8   35.80    6.30
  -3   4   8   47.10   11.40
  -3   4   8   27.70    6.60
  -3   4   8   28.30    6.20
  -2   4   8    4.20    4.60
  -2   4   8    8.70    3.60
  -2   4   8   12.20    5.30
  -2   4   8   37.50   10.00
  -2   4   8   20.40    8.60
  -2   4   8    8.00    4.10
  -1   4   8   43.60    7.90
  -1   4   8   29.80    6.10
  -1   4   8   32.00    6.70
  -1   4   8   20.30    5.50
  -1   4   8   66.29   12.70
   0   4   8  216.78   23.40
   0   4   8  249.48   24.70
   0   4   8  195.08   23.60
   0   4   8  220.68   23.50
   1   4   8    6.70    6.10
   1   4   8    2.70    3.30
   1   4   8    4.60    3.50
   1   4   8    5.00    3.40
  -2  -4  -8   16.10   19.00
   2   4   8   32.50    6.20
   2   4   8   36.50    6.30
   2   4   8   42.40    7.40
   3   4   8   88.89   11.90
   3   4   8  112.79   13.30
   3   4   8  103.69   12.30
  -4  -4  -8   -7.50   15.60
   4   4   8    9.10    5.00
   4   4   8    1.60    3.20
   4   4   8    4.30    3.30
  -5  -4  -8    7.70   20.50
  -5  -4  -8    6.00    6.60
   5   4   8   -2.70    3.00
  -7   5   8    0.90    8.00
  -6   5   8   32.60    6.10
  -6   5   8   49.99    9.50
  -6   5   8   58.39    9.70
  -5   5   8   59.79   11.10
  -5   5   8   32.90    6.30
  -4   5   8    8.00    4.30
  -4   5   8   44.70   10.60
  -4   5   8   16.10    8.30
  -4   5   8    7.00    3.70
  -3   5   8  102.49   14.00
  -3   5   8   86.09   13.30
  -3   5   8  146.39   18.20
  -3   5   8  125.79   15.10
  -3   5   8  124.39   13.70
  -2   5   8    1.20    4.10
  -2   5   8    1.90    4.50
  -2   5   8    0.20    3.40
  -2   5   8   -1.30    2.60
  -1   5   8    3.50    3.30
  -1   5   8    3.70    3.40
  -1   5   8    4.30    4.00
  -1   5   8    8.50    4.80
   0   5   8  100.69   14.00
   0   5   8  103.59   12.30
   0   5   8  102.09   12.30
   0   5   8   89.89   12.00
   1   5   8   34.20    6.40
   1   5   8   31.70    6.10
   1   5   8   32.70    6.50
   2   5   8   12.10    4.40
   2   5   8    3.40    3.30
   2   5   8    8.60    3.70
   3   5   8   24.30    5.00
   3   5   8   50.99    7.90
   3   5   8   34.10    5.60
  -3   6   8    4.80    3.10
  -2   6   8   24.80    6.00
  -2   6   8   42.50    6.70
  -2   6   8   55.69    8.80
  -1   6   8   50.79    8.10
  -1   6   8   41.70    7.50
  -1   6   8   57.59    8.40
   0   6   8    2.90    2.90
   0   6   8    0.90    3.70
   0   6   8    4.80    3.20
   1   6   8   33.20    7.40
   1   6   8   25.30    5.40
   1   6   8   37.60    6.70
   0  14  -9    0.50    4.80
   4  13  -9    5.10    4.20
  -4 -13   9   10.30    4.50
   3  13  -9   38.60    7.20
  -3 -13   9   26.10    7.30
   2  13  -9  117.29   13.40
  -2 -13   9   95.79   14.10
   1  13  -9   25.00    5.80
  -1 -13   9   10.40    5.40
  -1 -13   9   26.10    9.40
   0  13  -9   88.19   10.60
   0 -13   9   63.19   10.30
   0 -13   9   71.79   15.20
  -1  13  -9   54.09    8.00
  -1  13  -9   39.50    9.40
   1 -13   9   40.20   11.90
  -2  13  -9   18.60    6.30
  -2  13  -9   11.00    4.50
   2 -13   9   19.80    8.20
  -3  13  -9   52.29    8.20
  -3  13  -9   65.29   10.20
   3 -13   9   69.29   12.10
  -4  13  -9   76.79   10.10
   4 -13   9   83.59   12.00
   5  12  -9   95.99   11.70
  -5 -12   9   74.39   11.40
   4  12  -9    5.90    3.90
  -4 -12   9    0.50    4.00
   3  12  -9   18.70    5.80
  -3 -12   9   10.40    5.60
   2  12  -9  239.38   25.60
  -2 -12   9  222.18   26.50
   1  12  -9   28.70    7.00
  -1 -12   9   16.30   10.50
  -1 -12   9   20.60    6.40
   0  12  -9   21.80    6.00
   0  12  -9   14.00    5.50
   0 -12   9   11.70    5.50
   0 -12   9   15.00   10.30
  -1  12  -9  110.69   12.90
  -1  12  -9  108.89   13.30
   1 -12   9   82.09   12.80
   1 -12   9   89.79   18.20
  -2  12  -9   16.70    5.80
  -2  12  -9   13.70    4.40
   2 -12   9   18.50    9.70
  -3  12  -9   26.50    8.10
  -3  12  -9   20.80    5.70
   3 -12   9   29.10    9.30
  -4  12  -9    5.70    3.30
  -4  12  -9    1.80    6.80
   4 -12   9    4.10    5.00
  -5  12  -9    6.30    3.30
   5 -12   9    8.20    4.70
   5 -12   9    3.40   11.30
  -6  12  -9  102.19   12.60
   6 -12   9  105.49   15.50
   7  11  -9   11.30    5.50
   6  11  -9   46.60    8.60
  -6 -11   9   46.30    8.90
   5  11  -9    3.20    4.40
  -5 -11   9    4.40    4.20
   4  11  -9  112.39   15.00
  -4 -11   9  119.29   15.70
   3  11  -9   69.39   10.00
  -3 -11   9   44.70   10.30
   2  11  -9    4.40    4.70
   2  11  -9    2.20    5.40
  -2 -11   9   10.30    9.40
  -2 -11   9   10.10    5.00
   1  11  -9  241.88   25.20
   1  11  -9  227.28   25.60
  -1 -11   9  215.38   26.30
   0  11  -9  253.77   26.50
   0  11  -9  240.38   27.10
   0 -11   9  238.08   27.70
  -1  11  -9    0.10    3.70
  -1  11  -9    5.80    4.90
   1 -11   9   -1.00    3.60
   1 -11   9    6.70    8.50
  -2  11  -9  187.88   21.10
  -2  11  -9  206.98   22.30
   2 -11   9  156.68   25.10
  -3  11  -9   46.30    9.10
  -3  11  -9   50.89   10.40
   3 -11   9   51.09   12.60
  -4  11  -9   -1.20    3.30
   4 -11   9    5.80    6.00
   4 -11   9    8.00   13.20
  -5  11  -9   28.00    6.20
   5 -11   9   27.40    7.80
   5 -11   9    6.40   13.10
  -6  11  -9   25.50    5.60
   6 -11   9   12.70    5.10
   6 -11   9   -3.40   11.50
  -7  11  -9    3.60    3.90
   8  10  -9    1.20    4.30
  -8 -10   9   -1.50    2.40
   7  10  -9   58.49   10.00
  -7 -10   9   61.29    8.10
  -7 -10   9   50.59    8.70
   6  10  -9  182.38   22.10
  -6 -10   9  160.38   21.40
  -6 -10   9  215.58   20.10
   5  10  -9    0.00    5.00
  -5 -10   9   -1.10    2.90
  -5 -10   9    1.00    4.20
   4  10  -9  165.58   19.40
  -4 -10   9  149.29   19.50
   3  10  -9  342.57   37.90
   3  10  -9  396.46   38.50
  -3 -10   9  327.67   38.70
   2  10  -9    4.00    5.20
   2  10  -9    1.70    4.50
  -2 -10   9    2.90    8.80
  -2 -10   9    3.50    3.90
   1  10  -9   77.99   12.00
   1  10  -9   91.09   11.80
  -1 -10   9   46.80   14.30
  -1 -10   9   81.69   12.20
   0  10  -9  107.99   14.40
   0  10  -9  131.69   14.00
   0 -10   9   92.19   14.00
   0 -10   9   63.69   16.70
  -1  10  -9    5.30    4.50
  -1  10  -9    2.70    5.40
   1 -10   9    5.20    4.40
   1 -10   9    9.70    8.40
  -2  10  -9  267.17   30.60
  -2  10  -9  323.77   31.70
   2 -10   9  285.27   31.30
   2 -10   9  259.97   34.40
  -3  10  -9    3.60    3.60
  -3  10  -9    5.10    6.40
   3 -10   9    2.40    6.40
  -4  10  -9    1.70    3.70
   4 -10   9    1.40    5.10
   4 -10   9   20.40   16.90
  -5  10  -9  115.69   15.20
  -5  10  -9  113.19   14.50
   5 -10   9  133.39   17.60
  -6  10  -9   -1.00    3.70
  -6  10  -9    1.00    4.10
   6 -10   9   -0.60    3.70
   6 -10   9   -1.50   12.70
  -7  10  -9    7.40    3.70
  -7  10  -9    1.90    4.20
   7 -10   9    7.40    4.00
   7 -10   9   10.10   10.90
   8   9  -9   42.30    9.40
  -8  -9   9   45.90    7.00
  -8  -9   9   65.79    7.60
   7   9  -9    2.30    5.80
  -7  -9   9    2.80    3.00
  -7  -9   9    3.80    4.00
   6   9  -9   -2.50    5.70
  -6  -9   9   -1.20    3.90
  -6  -9   9    1.30    3.10
   5   9  -9  163.28   20.60
  -5  -9   9  156.98   20.10
  -5  -9   9  163.98   17.60
   4   9  -9   37.30    8.60
   4   9  -9   36.30   10.10
  -4  -9   9   29.80    5.40
  -4  -9   9   33.20    8.60
   3   9  -9   39.20    8.30
   3   9  -9   31.60    9.50
   2   9  -9  457.35   43.40
   2   9  -9  447.66   43.50
  -2  -9   9  322.07   42.90
   1   9  -9   39.00    7.80
   1   9  -9   37.50    8.50
  -1  -9   9   19.50    6.90
  -1  -9   9   30.50   10.60
   0   9  -9   14.30    6.60
   0   9  -9   14.60    5.90
   0  -9   9   12.90    8.50
   0  -9   9   12.00    5.30
  -1   9  -9  104.39   14.60
  -1   9  -9   88.09   13.50
   1  -9   9  106.59   14.10
   1  -9   9  104.09   19.10
  -2   9  -9    1.50    3.80
   2  -9   9   -0.90    3.70
   2  -9   9    4.70    6.90
  -3   9  -9    7.00    4.10
   3  -9   9    4.50    5.60
  -4   9  -9   28.10    5.80
  -4   9  -9   21.50    6.80
   4  -9   9    6.10   22.00
   4  -9   9   26.30    8.70
  -5   9  -9  103.79   12.60
  -5   9  -9   88.29   13.50
   5  -9   9  106.39   15.80
  -6   9  -9   47.90    9.00
  -6   9  -9   57.49    8.70
   6  -9   9   17.30   13.90
   6  -9   9   43.00    9.70
  -7   9  -9   72.99   11.00
  -7   9  -9   74.59   10.00
   7  -9   9   59.49   10.70
   7  -9   9   65.49   18.00
  -8   9  -9   16.30    5.70
  -8   9  -9    7.60    3.80
   8  -9   9    5.20    8.40
   8  -9   9    4.60    5.00
   9   8  -9   -5.40    5.40
  -9  -8   9   -3.70    2.50
  -9  -8   9    3.30    2.60
   8   8  -9  102.99   15.20
  -8  -8   9   97.99   11.70
   7   8  -9  162.48   20.50
  -7  -8   9  137.99   17.70
   6   8  -9    3.60    7.20
   6   8  -9   12.20    8.80
  -6  -8   9    9.50    5.10
  -6  -8   9    8.70    3.60
   5   8  -9  239.68   32.50
   5   8  -9  266.47   32.60
  -5  -8   9  301.47   29.50
  -5  -8   9  320.87   32.50
   4   8  -9   47.80   10.70
   4   8  -9   52.79   11.90
  -4  -8   9   48.10    7.30
  -4  -8   9   51.79   10.40
   3   8  -9   14.00    7.80
   3   8  -9   18.80    7.10
  -3  -8   9   15.80    6.20
  -3  -8   9   14.20    3.70
   2   8  -9  540.45   56.29
   2   8  -9  543.05   56.09
   1   8  -9   52.39   10.00
   1   8  -9   44.40   10.10
  -1  -8   9   40.30   11.50
  -1  -8   9   47.20   10.00
   0   8  -9   64.59   12.40
   0   8  -9   85.79   13.20
   0  -8   9   84.39   11.90
   0  -8   9   86.49   15.80
  -1   8  -9 1340.97  119.79
   1  -8   9 1138.69  121.09
   1  -8   9 1134.49  119.19
  -2   8  -9   16.40    6.20
   2  -8   9   18.20    5.70
   2  -8   9   14.90    7.50
  -3   8  -9    6.60    4.90
   3  -8   9    6.00    5.60
   4  -8   9   97.79   15.40
  -5   8  -9   10.80    5.10
   5  -8   9   11.40   16.30
   5  -8   9   11.50    6.00
  -6   8  -9  145.19   18.10
  -6   8  -9  151.08   16.80
   6  -8   9  136.79   19.00
  -7   8  -9   51.69    8.20
  -7   8  -9   56.19    9.60
   7  -8   9   40.00    9.30
   7  -8   9   61.59   16.00
  -8   8  -9   -5.30    3.80
   8  -8   9    2.50    7.30
   8  -8   9   -3.30    3.70
  -9   8  -9   84.39   14.00
   9   7  -9   93.19   14.10
   8   7  -9   37.10   10.90
  -8  -7   9   49.60    7.20
   7   7  -9   22.70   10.00
   7   7  -9   20.20   11.60
  -7  -7   9   35.50    5.70
  -7  -7   9   23.50    5.00
   6   7  -9   25.20   12.50
   6   7  -9   35.10   11.00
  -6  -7   9   34.50    5.70
  -6  -7   9   29.30    7.60
   5   7  -9  159.38   20.80
   5   7  -9   90.69   20.50
  -5  -7   9  153.78   16.00
  -5  -7   9  141.09   18.10
   4   7  -9   -2.70    8.30
   4   7  -9    7.60    6.40
  -4  -7   9    0.10    3.70
  -4  -7   9    0.20    2.50
   3   7  -9   82.19   13.60
   3   7  -9   84.69   15.50
  -3  -7   9   80.59   10.00
  -3  -7   9   83.99   12.40
   2   7  -9   92.09   14.60
   2   7  -9   73.79   11.90
  -2  -7   9   68.69    9.00
  -2  -7   9   64.09   10.80
   1   7  -9    5.00    6.10
   1   7  -9    4.50    5.60
  -1  -7   9    2.50    3.40
  -1  -7   9    1.10    5.60
  -1  -7   9    1.80    3.00
   0   7  -9    0.50    4.80
   0  -7   9    5.80    3.90
   0  -7   9    7.50    6.20
   0  -7   9    7.20    4.30
  -1   7  -9  195.68   26.00
   1  -7   9  246.98   27.90
   1  -7   9  238.28   25.90
  -2   7  -9  109.39   14.60
   2  -7   9   87.79   13.30
   2  -7   9  103.79   15.80
  -3   7  -9   45.10    8.90
   3  -7   9   25.10    7.10
   3  -7   9   28.70    8.50
  -4   7  -9  179.18   19.60
   4  -7   9  141.39   20.30
  -5   7  -9   60.19   10.50
   5  -7   9   53.49   11.70
   5  -7   9   60.89   19.40
  -6   7  -9    2.70    5.10
   6  -7   9    7.00    4.80
   6  -7   9    7.80   11.20
  -7   7  -9   71.19   10.80
   7  -7   9   59.59   11.50
   7  -7   9   76.99   17.20
   8  -7   9   70.39   13.80
   8  -7   9   42.40    8.40
   8  -7   9   58.49   10.00
  -9   7  -9   11.00    4.40
   9  -7   9    9.50    5.90
  10   6  -9    1.10    6.80
 -10  -6   9    1.30    2.70
   9   6  -9  149.19   19.70
  -9  -6   9  116.49   14.60
   8   6  -9   40.40   12.60
   8   6  -9   51.69   13.10
  -8  -6   9   51.69    8.20
   7   6  -9    1.00   11.90
   7   6  -9   13.40   11.30
  -7  -6   9   11.90    3.70
  -7  -6   9   11.00    3.90
   6   6  -9  219.58   26.00
  -6  -6   9  148.89   18.10
  -6  -6   9  158.08   18.00
  -6  -6   9  156.78   19.60
   5   6  -9    9.20   11.40
   5   6  -9   17.10   10.10
  -5  -6   9   15.60    3.80
  -5  -6   9   16.30    5.70
  -5  -6   9    9.20    3.80
   4   6  -9   78.89   14.50
   4   6  -9   36.00   13.10
  -4  -6   9   74.49   10.80
  -4  -6   9   73.59    8.70
  -4  -6   9   46.40    8.80
   3   6  -9  919.91   91.39
  -3  -6   9  918.21   88.69
  -3  -6   9  852.21   89.09
  -3  -6   9  927.01   91.19
   2   6  -9   -0.90    5.90
   2   6  -9   -3.10    6.40
  -2  -6   9    2.00    3.10
  -2  -6   9    3.30    2.70
  -2  -6   9    8.70    4.60
   1   6  -9  261.07   29.60
  -1  -6   9  273.67   26.90
  -1  -6   9  231.68   26.20
  -1  -6   9  234.18   28.90
  -1  -6   9  286.57   28.90
   0   6  -9  876.41   80.29
   0  -6   9  734.63   79.49
   0  -6   9  730.03   77.09
   0  -6   9  807.52   79.09
  -1   6  -9   -2.80    5.10
   1  -6   9    3.10    3.80
   1  -6   9    4.20    5.30
  -2   6  -9   44.00   10.20
   2  -6   9   40.40    8.80
   2  -6   9   51.19   11.30
  -3   6  -9  119.69   15.40
   3  -6   9  107.09   16.10
   3  -6   9  107.49   14.40
  -4   6  -9    6.10    4.20
   4  -6   9   -0.50    4.60
   4  -6   9    2.40    4.30
  -5   6  -9  382.66   43.50
   5  -6   9  424.06   49.80
   5  -6   9  440.86   42.60
   6  -6   9   26.80   11.80
   6  -6   9   23.00    7.30
   7  -6   9   51.99   13.60
   7  -6   9   42.80    9.70
  -8   6  -9   83.89   11.00
   8  -6   9   66.09   14.00
   8  -6   9   59.79   11.40
   8  -6   9   65.09    9.80
  -9   6  -9   10.90    4.40
  -9   6  -9    5.30    4.70
   9  -6   9   10.90    5.90
   9  -6   9    3.70    4.90
  10   5  -9    8.30    8.30
 -10  -5   9    4.70    3.00
   9   5  -9   50.49   14.80
  -9  -5   9   80.29   20.30
  -9  -5   9   54.49    8.70
   8   5  -9   27.10   14.10
   8   5  -9   17.80   13.40
  -8  -5   9   37.90    6.00
  -8  -5   9   33.60   16.40
  -8  -5   9   27.40    5.90
   7   5  -9   13.50   14.80
   7   5  -9    8.70   13.00
  -7  -5   9   -2.70    2.90
  -7  -5   9    7.50   15.00
  -7  -5   9    6.40    3.10
   6   5  -9  147.09   24.30
  -6  -5   9  134.49   15.20
  -6  -5   9  112.79   15.90
  -6  -5   9  125.49   14.60
  -6  -5   9  137.29   27.70
   5   5  -9    5.90   13.10
   5   5  -9    6.40   11.10
  -5  -5   9    6.50    3.20
  -5  -5   9    8.00    3.10
  -5  -5   9    9.30    5.20
   4   5  -9   18.30   10.40
   4   5  -9   22.50   10.10
  -4  -5   9   27.10    7.30
  -4  -5   9   19.80    5.00
  -4  -5   9   21.60    4.60
   3   5  -9  292.47   37.40
  -3  -5   9  379.86   37.00
  -3  -5   9  337.07   35.00
  -3  -5   9  345.37   34.60
   2   5  -9    4.80    7.60
  -2  -5   9   13.00    3.60
  -2  -5   9   18.40    6.40
  -2  -5   9   12.20    4.40
   1   5  -9   45.40   12.40
  -1  -5   9   65.89    8.80
  -1  -5   9   64.09   11.00
  -1  -5   9   77.79   10.80
  -1  -5   9   72.59    9.50
   0   5  -9  214.98   28.50
   0  -5   9  229.18   25.90
   0  -5   9  270.17   27.90
   0  -5   9  260.77   26.30
   0  -5   9  253.37   28.20
  -1   5  -9  184.38   23.00
   1  -5   9  185.88   22.90
   1  -5   9  192.98   21.90
  -2   5  -9   31.30    8.90
   2  -5   9   37.00    9.10
   2  -5   9   34.30    8.00
  -3   5  -9   99.09   14.40
   3  -5   9   81.29   14.10
   3  -5   9  115.59   12.70
   3  -5   9   94.69   13.60
  -4   5  -9   25.00    6.90
   4  -5   9   25.80    6.30
   4  -5   9   20.70    7.30
   4  -5   9   24.00    7.50
   5  -5   9   42.40   12.60
   5  -5   9   39.80    7.50
   5  -5   9   21.10    7.30
   6  -5   9   10.10    5.90
   6  -5   9   12.80    5.60
   6  -5   9   19.00    9.50
   7  -5   9   10.00    5.40
   7  -5   9    2.20    6.30
   7  -5   9    5.40    4.50
   8  -5   9   60.59   12.70
   8  -5   9   48.90    8.90
   8  -5   9   72.09   11.00
  -9   5  -9    0.40    5.00
   9  -5   9   -1.70    5.20
   9  -5   9    2.20    5.10
  10   4  -9   24.70   11.70
  10   4  -9   -8.80   10.40
   9   4  -9    8.80   12.60
   9   4  -9    6.80   12.20
  -9  -4   9    1.80    3.60
  -9  -4   9    0.40    3.00
  -9  -4   9    5.20   14.60
   8   4  -9   38.20   17.60
   8   4  -9    8.80   15.30
  -8  -4   9   34.60    6.90
   7   4  -9   64.69   22.00
  -7  -4   9   83.39   10.60
  -7  -4   9   78.99   22.20
  -7  -4   9   89.09   11.20
   6   4  -9    7.50   16.50
  -6  -4   9    9.00    4.10
  -6  -4   9   11.50    3.60
  -6  -4   9   10.00   16.70
   5   4  -9  154.28   29.50
  -5  -4   9  239.48   22.60
  -5  -4   9  205.88   22.90
   4   4  -9  209.18   26.80
  -4  -4   9  174.48   20.70
   3   4  -9   10.50    9.70
  -3  -4   9   10.40    4.10
  -3  -4   9    6.10    3.00
  -3  -4   9   10.20    3.60
  -3  -4   9   12.10    5.30
  -2  -4   9  219.48   21.50
  -2  -4   9  201.48   20.90
  -2  -4   9  162.08   20.50
  -2  -4   9  204.28   22.70
   1   4  -9   31.30    9.90
  -1  -4   9   41.90    6.60
  -1  -4   9   31.40    7.80
  -1  -4   9   39.90    6.60
  -1  -4   9   49.10    9.40
  -1  -4   9   37.70    7.10
  -1  -4   9   33.20    5.70
   0   4  -9    0.50    6.00
   0  -4   9    2.10    3.80
   0  -4   9    0.10    3.20
   0  -4   9   -0.40    4.40
   0  -4   9    0.50    3.30
   0  -4   9    0.60    3.20
   0  -4   9    1.80    3.50
   0  -4   9    1.50    2.70
  -1   4  -9  385.66   43.30
   1  -4   9  374.36   40.30
   1  -4   9  368.56   40.60
   1  -4   9  424.36   40.70
   1  -4   9  409.56   42.50
   1  -4   9  450.95   43.50
  -2   4  -9   71.99   13.30
   2  -4   9   80.29   10.30
   2  -4   9   80.59   10.30
   2  -4   9   66.49   11.30
   2  -4   9   78.69   12.50
   3  -4   9   11.10    5.10
   3  -4   9    5.40    4.50
   3  -4   9    2.50    3.80
   3  -4   9    2.50    4.20
  -4   4  -9  510.65   60.89
   4  -4   9  490.95   48.80
   4  -4   9  478.25   48.40
   4  -4   9  443.86   50.89
  -5   4  -9   -4.80   21.80
   5  -4   9    0.60    3.30
   5  -4   9    0.00    6.00
   5  -4   9    2.40    4.60
   5  -4   9    8.50    5.20
  -6   4  -9   25.20   25.40
   6  -4   9   40.00    8.10
   6  -4   9   51.69   12.00
   6  -4   9   50.19   10.50
   7  -4   9   95.49   16.00
   7  -4   9   88.39   12.50
   7  -4   9  103.09   14.50
  -8   4  -9   12.30   29.40
   8  -4   9   11.80    4.70
   8  -4   9    8.30    6.30
   8  -4   9    9.60    4.70
  -9   4  -9   33.30   10.10
   9  -4   9   29.10    7.10
  10   3  -9   62.19   16.40
   9   3  -9   13.60   14.40
   9   3  -9   19.80   13.80
  -9  -3   9    2.10   14.80
   8   3  -9   14.30   18.10
  -8  -3   9   14.40   17.00
  -8  -3   9   11.30    3.90
  -8  -3   9    6.60    4.30
  -7  -3   9  117.19   13.00
  -7  -3   9   79.39   23.80
  -7  -3   9  101.99   13.40
   6   3  -9   -6.60   18.30
  -6  -3   9    3.50    3.20
  -6  -3   9    3.50    2.80
  -6  -3   9    1.30    3.60
  -5  -3   9  119.89   12.50
  -5  -3   9   98.29   13.80
  -5  -3   9  107.79   13.40
  -5  -3   9  129.69   15.00
  -5  -3   9  105.39   16.60
  -4  -3   9  115.59   17.80
  -4  -3   9  159.18   16.50
  -4  -3   9  159.88   15.70
  -4  -3   9  110.49   16.50
  -4  -3   9  174.88   18.30
   3   3  -9    2.20   10.10
  -3  -3   9   14.00    4.00
  -3  -3   9   11.30    5.10
  -3  -3   9    7.90    3.10
  -3  -3   9    8.70    4.20
  -3  -3   9   13.10    3.80
  -2  -3   9  268.47   31.10
  -2  -3   9  322.27   33.40
  -2  -3   9  286.57   30.70
  -2  -3   9  348.97   31.70
  -2  -3   9  306.27   32.30
   1   3  -9   21.50   10.40
  -1  -3   9   52.89    7.10
  -1  -3   9   48.90    7.80
  -1  -3   9   54.89    8.10
  -1  -3   9   58.19    9.00
  -1  -3   9   52.69    8.70
   0   3  -9    8.40    8.20
   0  -3   9   29.40    5.80
   0  -3   9   25.00    6.70
   0  -3   9   28.20    5.80
   0  -3   9   26.50    4.90
   0  -3   9   26.00    6.70
   0  -3   9   27.00    6.50
   0  -3   9   26.20    5.60
  -1   3  -9  293.57   39.00
   1  -3   9  375.76   36.80
   1  -3   9  364.26   39.00
   1  -3   9  386.16   39.40
   1  -3   9  340.17   36.80
   1  -3   9  376.36   36.70
   1  -3   9  387.86   38.10
   2  -3   9   56.89    9.10
   2  -3   9   53.19    8.60
   2  -3   9   46.20   10.30
   2  -3   9   62.99    9.90
   2  -3   9   56.49   11.40
   3  -3   9   18.40    5.70
   3  -3   9    8.40    4.60
   3  -3   9   15.00    5.90
   3  -3   9   17.80    5.20
   4  -3   9  272.17   28.00
   4  -3   9  190.98   26.70
   4  -3   9  190.48   24.70
   4  -3   9  278.17   24.90
  -5   3  -9   20.90   21.00
   5  -3   9    1.60    4.40
   5  -3   9   -4.80    4.90
   5  -3   9   -1.00    3.20
   5  -3   9    2.30    7.70
  -6   3  -9  -22.10   20.60
   6  -3   9    0.80    4.20
   6  -3   9   -2.90    5.50
   6  -3   9    3.70    3.70
   7  -3   9   87.89   14.70
   7  -3   9   82.59   12.70
   7  -3   9   71.39   10.70
  -8   3  -9   -0.30   18.30
   8  -3   9    5.00    4.10
   8  -3   9    7.80    4.50
   8  -3   9    9.50    5.80
  10   2  -9    3.40   11.50
  10   2  -9   -8.60   12.60
 -10  -2   9   14.50    5.00
   9   2  -9   28.60   17.60
   8   2  -9  -10.80   18.90
  -8  -2   9   38.40    6.20
  -8  -2   9   29.60    6.70
  -8  -2   9   23.60    4.50
   7   2  -9  -10.20   18.90
  -7  -2   9   20.30    5.40
  -7  -2   9   18.00    3.80
  -7  -2   9   15.20    5.80
  -6  -2   9  329.37   32.60
  -6  -2   9  326.47   31.50
  -6  -2   9  268.97   33.00
  -6  -2   9  313.37   32.60
  -5  -2   9  182.28   16.90
  -5  -2   9  185.98   18.80
  -5  -2   9  120.69   18.20
  -5  -2   9  136.89   17.70
  -4  -2   9   11.20    4.00
  -4  -2   9    2.00    5.70
  -4  -2   9   13.90    3.60
  -4  -2   9    9.10    5.30
  -4  -2   9   11.70    5.60
  -3  -2   9   12.10    4.00
  -3  -2   9   12.50    5.60
  -3  -2   9    4.90    4.50
  -3  -2   9   13.00    4.00
  -3  -2   9   -5.50    5.80
  -3  -2   9   16.90    3.70
  -2  -2   9  304.07   31.10
  -2  -2   9  277.27   30.30
  -2  -2   9  313.67   30.20
  -2  -2   9  322.77   33.10
  -2  -2   9  264.07   31.50
  -1  -2   9   62.09    9.60
  -1  -2   9   69.49    9.30
  -1  -2   9   68.79    8.70
  -1  -2   9   65.99   10.70
  -1  -2   9   67.59   10.80
   0  -2   9  828.52   82.19
   0  -2   9  862.31   80.19
   0  -2   9  833.22   79.99
   0  -2   9  780.62   80.09
   0  -2   9  716.53   82.19
   0  -2   9  859.71   81.29
   1  -2   9    1.00    3.30
   1  -2   9    4.30    4.10
   1  -2   9    3.40    3.60
   1  -2   9    2.70    4.90
   1  -2   9    3.20    3.10
   1  -2   9    9.80    4.00
   2  -2   9   61.19    9.10
   2  -2   9   51.69   10.90
   2  -2   9   54.29    9.00
   2  -2   9   48.40    7.90
   2  -2   9   42.20    8.90
   2  -2   9   47.40   10.40
   3  -2   9  121.69   18.40
   3  -2   9  150.58   18.80
   3  -2   9  128.59   16.40
   3  -2   9  170.68   16.50
   4  -2   9   25.80    7.90
   4  -2   9   17.90    5.70
   4  -2   9   15.10    6.10
   4  -2   9   30.90    5.50
  -5   2  -9   23.80   20.10
   5  -2   9    9.30    4.50
   5  -2   9   16.70    4.70
   5  -2   9    8.90    4.70
  -6   2  -9  119.59   32.30
   6  -2   9  119.49   19.20
   6  -2   9  136.29   17.30
   6  -2   9  125.99   15.10
  -7   2  -9    3.50   19.10
   7  -2   9   -1.20    4.20
   7  -2   9    1.90    3.60
   7  -2   9    3.50    5.30
   8  -2   9   52.49    8.90
   8  -2   9   74.39   12.50
   8  -2   9   74.69   10.90
  10   1  -9  -12.10   12.50
  -9  -1   9   63.29    9.20
  -9  -1   9   81.59   10.60
  -9  -1   9   47.60    7.50
  -8  -1   9   46.60    7.00
  -8  -1   9   58.79    9.20
  -8  -1   9   41.40    8.70
  -8  -1   9   65.89    8.90
   7   1  -9  -22.10   18.80
  -7  -1   9   15.20    5.70
  -7  -1   9    8.20    3.10
  -7  -1   9    1.40    4.70
  -7  -1   9    9.60    4.80
  -7  -1   9   15.90    4.50
  -6  -1   9  180.28   19.80
  -6  -1   9  182.58   19.70
  -6  -1   9  182.18   19.60
  -6  -1   9  173.08   18.20
  -6  -1   9  136.69   19.70
  -5  -1   9   80.79   13.60
  -5  -1   9  115.09   14.10
  -5  -1   9   96.69   13.20
  -5  -1   9  107.09   13.40
  -5  -1   9  116.09   12.00
  -4  -1   9    0.70    2.40
  -4  -1   9   -4.70    3.20
  -4  -1   9   -3.10    5.10
  -4  -1   9    5.20    3.80
  -4  -1   9    3.60    4.20
  -4  -1   9   -0.50    3.80
  -3  -1   9  453.95   46.50
  -3  -1   9  453.45   47.50
  -3  -1   9  431.56   49.20
  -3  -1   9  493.25   47.50
  -3  -1   9  497.35   46.60
  -2  -1   9   51.09   10.90
  -2  -1   9   45.80    8.00
  -2  -1   9   41.60    7.80
  -2  -1   9   26.20    8.90
  -2  -1   9   31.70    7.90
  -2  -1   9   47.50    6.90
  -2  -1   9   37.70    6.20
   1   1  -9  -17.40    9.10
  -1  -1   9    1.50    3.80
  -1  -1   9    2.50    2.80
  -1  -1   9    2.50    3.70
  -1  -1   9    2.80    3.40
  -1  -1   9    4.20    3.90
  -1  -1   9   -1.70    4.80
   0  -1   9  508.25   55.29
   0  -1   9  552.94   54.59
   0  -1   9  604.54   53.59
   0  -1   9  542.25   55.69
   0  -1   9  591.14   53.69
   0  -1   9  433.56   53.09
   1  -1   9   59.59   12.50
   1  -1   9   74.19   10.70
   1  -1   9   75.69    9.70
   1  -1   9   64.19   11.10
   1  -1   9   57.89    9.00
   1  -1   9   73.99    9.50
   2  -1   9  180.58   21.80
   2  -1   9  180.68   19.50
   2  -1   9  147.89   19.60
   2  -1   9  211.78   20.70
   2  -1   9  149.59   21.00
   2  -1   9  183.28   19.10
   3  -1   9  369.26   32.40
   3  -1   9  249.48   32.20
   3  -1   9  283.77   34.80
   3  -1   9  350.86   35.50
  -4   1  -9   39.90   23.20
   4  -1   9   26.80    7.60
   4  -1   9   39.60    7.50
  -5   1  -9   84.99   25.00
   5  -1   9   46.50    8.30
   5  -1   9   56.59    8.40
   5  -1   9   37.20    9.20
   6  -1   9   83.29   12.10
   6  -1   9  114.59   14.50
   6  -1   9   94.69   16.30
  -7   1  -9   14.90   18.20
   7  -1   9    3.70    3.70
   7  -1   9    2.10    3.90
   7  -1   9    0.50    5.40
  -8   1  -9    3.80   16.20
   8  -1   9   19.30    5.60
   9   0  -9  -26.60   17.10
  -9   0   9    0.80    2.30
  -9   0   9    3.50    4.40
   8   0  -9  -23.50   18.30
  -8   0   9   -1.40    2.40
  -8   0   9    1.90    4.10
  -8   0   9   -7.80    4.60
  -8   0   9    6.20    4.80
  -7   0   9   72.69   10.60
  -7   0   9   58.79   10.50
  -7   0   9   73.59   11.20
  -7   0   9   89.39   11.30
  -7   0   9   62.99    8.90
  -6   0   9    4.30    5.30
  -6   0   9    3.80    4.80
  -6   0   9    5.20    3.90
  -6   0   9   -2.60    3.70
  -6   0   9    1.90    2.90
  -5   0   9   -2.20    2.60
  -5   0   9    2.50    5.30
  -5   0   9    2.00    4.30
  -5   0   9   -4.00    3.80
  -5   0   9    3.00    3.80
  -4   0   9   15.40    6.30
  -4   0   9   15.40    5.50
  -4   0   9   15.00    5.60
  -4   0   9   28.20    6.60
  -4   0   9   19.20    5.30
  -4   0   9   13.60    4.00
  -3   0   9  131.39   17.40
  -3   0   9  140.39   15.10
  -3   0   9  161.58   17.00
  -3   0   9   88.29   16.80
  -3   0   9  147.49   15.10
  -3   0   9  117.19   15.40
  -2   0   9   82.09   13.50
  -2   0   9  119.59   13.80
  -2   0   9   62.89   12.90
  -2   0   9  112.39   11.70
  -2   0   9  110.49   14.50
  -2   0   9   77.99   11.10
  -1   0   9  259.77   29.40
  -1   0   9  290.77   26.70
  -1   0   9  305.47   29.10
  -1   0   9  193.68   27.00
  -1   0   9  247.58   26.60
  -1   0   9  232.88   26.40
   0   0   9   59.09   10.20
   0   0   9   51.39   11.90
   0   0   9   68.19    8.70
   0   0   9   37.50    7.60
   0   0   9   51.09    7.90
   0   0   9   62.59    9.40
   0   0   9   47.70   10.80
   1   0   9    8.10    4.10
   1   0   9    7.00    4.10
   1   0   9    4.30    4.20
   1   0   9    7.20    4.00
   1   0   9    2.90    3.20
   1   0   9    5.80    4.50
   2   0   9    6.50    5.60
   2   0   9   13.90    3.90
   2   0   9   16.90    5.40
   2   0   9   11.50    5.40
   2   0   9   18.50    5.50
   2   0   9   16.80    6.30
   3   0   9    5.40    4.30
   3   0   9    3.10    4.10
   3   0   9   -0.20    3.70
   3   0   9    0.80    4.10
  -4   0  -9   29.80   21.90
   4   0   9   45.60    9.80
   4   0   9   23.10    6.20
  -5   0  -9   10.00   20.10
   5   0   9   25.50    5.90
   5   0   9   36.00    8.50
   5   0   9   22.70    5.70
  -6   0  -9   -3.60   18.70
   6   0   9   12.40    4.80
   6   0   9   24.40    6.40
  -7   0  -9    1.30   16.90
   7   0   9   27.90    8.00
   7   0   9   53.29    7.00
  -9   1   9    9.10    6.40
  -9   1   9    4.50    2.60
  -9   1   9    7.30    7.00
  -8   1   9    2.30    2.50
  -8   1   9   -1.00    5.00
  -8   1   9    2.10    5.00
  -7   1   9  260.67   28.10
  -7   1   9  281.27   29.80
  -7   1   9  289.57   29.50
  -6   1   9   56.69   10.10
  -6   1   9   54.49    9.60
  -6   1   9   54.69    8.10
  -6   1   9   74.29   10.50
  -5   1   9   11.60    5.80
  -5   1   9   12.70    6.40
  -5   1   9    6.20    3.20
  -5   1   9   10.90    4.60
  -4   1   9  130.69   15.50
  -4   1   9  157.78   16.60
  -4   1   9  110.79   15.70
  -4   1   9  105.49   13.90
  -3   1   9   10.70    3.70
  -3   1   9   13.40    5.10
  -3   1   9   18.60    6.90
  -3   1   9   18.20    6.50
  -3   1   9   18.80    4.90
  -3   1   9   16.10    6.70
  -2   1   9  206.68   26.90
  -2   1   9  317.37   29.50
  -2   1   9  267.57   29.90
  -2   1   9  310.67   27.40
  -2   1   9  206.38   28.80
  -1   1   9  347.97   37.10
  -1   1   9  371.36   37.00
  -1   1   9  347.17   39.60
  -1   1   9  386.26   39.40
   0   1   9    0.00    3.20
   0   1   9    3.80    3.50
   0   1   9    0.60    3.10
   0   1   9   -2.50    3.20
   0   1   9    2.90    3.60
   0   1   9    0.40    4.00
   1   1   9  190.38   21.30
   1   1   9  173.28   23.10
   1   1   9  200.98   21.80
   1   1   9  215.48   21.80
   2   1   9  105.29   12.50
   2   1   9   85.89   11.80
   2   1   9  119.19   13.50
   2   1   9  101.29   14.90
   2   1   9   91.79   14.10
   3   1   9    7.10    4.00
   3   1   9    5.00    4.60
   3   1   9    8.10    4.90
   3   1   9    1.30    3.50
  -4  -1  -9  199.58   36.10
   4   1   9  202.78   23.70
   4   1   9  176.68   20.80
   4   1   9  205.08   21.40
  -5  -1  -9   83.19   28.60
   5   1   9  147.89   15.60
   5   1   9  162.78   17.90
   5   1   9  116.09   15.30
  -6  -1  -9   -7.80   16.80
   6   1   9   13.30    5.00
   6   1   9    7.10    3.50
  -7  -1  -9    5.90   15.50
  -8   2   9    1.10    4.10
  -8   2   9   -0.50    5.40
  -8   2   9    0.60    2.60
  -7   2   9   71.59   10.10
  -7   2   9   93.49   13.70
  -7   2   9   86.99   12.00
  -6   2   9    2.00    3.60
  -6   2   9   -1.70    3.30
  -6   2   9   14.70    7.50
  -6   2   9    2.70    4.70
  -5   2   9   11.90    4.30
  -5   2   9    6.70    5.60
  -5   2   9   15.30    7.30
  -5   2   9    5.70    3.70
  -4   2   9   36.10    6.90
  -4   2   9   50.39    8.50
  -4   2   9   62.19   11.00
  -4   2   9   52.59    9.60
  -3   2   9    8.10    4.20
  -3   2   9   12.50    4.40
  -3   2   9    7.50    4.30
  -3   2   9   25.40    8.30
  -3   2   9   17.90    7.20
  -2   2   9    3.40    3.40
  -2   2   9    2.50    3.70
  -2   2   9    0.30    4.10
  -2   2   9    1.80    6.70
  -2   2   9   -1.20    2.90
  -1   2   9   55.09    9.40
  -1   2   9   61.09    9.70
  -1   2   9   81.49   13.80
  -1   2   9   61.79    9.60
   0   2   9   11.80    4.10
   0   2   9   11.20    4.50
   0   2   9   11.90    4.80
   0   2   9    5.10    3.90
   0   2   9   12.50    5.70
   1   2   9   67.39    9.80
   1   2   9   65.59   10.10
   1   2   9   67.79   11.80
   1   2   9   98.89   12.90
   2   2   9    5.70    4.10
   2   2   9    3.90    3.50
   2   2   9    3.90    4.30
   2   2   9   -1.00    6.10
   2   2   9    1.60    4.20
  -3  -2  -9   54.19   23.50
   3   2   9   84.19   12.60
   3   2   9   77.19   10.20
   3   2   9   66.59   10.30
   3   2   9   92.39   11.40
  -4  -2  -9   22.90   18.90
   4   2   9   13.80    4.60
   4   2   9   16.00    5.20
   4   2   9   34.10    7.80
  -5  -2  -9   -1.00   17.00
   5   2   9    1.50    4.10
   5   2   9    4.60    3.50
   5   2   9    4.30    3.80
  -6  -2  -9    6.50   16.00
  -8   3   9  108.99   12.20
  -7   3   9    2.80    3.10
  -7   3   9    0.40    4.80
  -7   3   9   11.30    7.00
  -6   3   9   27.30    4.90
  -6   3   9   14.40    4.70
  -6   3   9   17.40    6.50
  -5   3   9   27.00    5.70
  -5   3   9   45.40    9.00
  -5   3   9   36.00    6.30
  -4   3   9   23.40    5.70
  -4   3   9   60.39   11.30
  -4   3   9   25.90    7.90
  -4   3   9   21.40    5.40
  -3   3   9  233.88   27.70
  -3   3   9  250.87   27.40
  -3   3   9  290.87   27.80
  -3   3   9  278.97   30.10
  -2   3   9   72.49   10.90
  -2   3   9   81.99   11.30
  -2   3   9   66.59   10.10
  -2   3   9   87.29   14.10
  -2   3   9   72.39   10.20
  -1   3   9   18.10    5.00
  -1   3   9   27.10    6.80
  -1   3   9   23.20    5.50
  -1   3   9   13.80    4.50
   0   3   9   90.49   12.50
   0   3   9  136.89   14.90
   0   3   9   95.99   12.60
   0   3   9   96.39   12.50
   1   3   9   48.30    7.90
   1   3   9   35.00    6.70
   1   3   9   41.10    8.00
   1   3   9   67.09   10.60
  -2  -3  -9   11.00   18.20
   2   3   9   16.70    5.00
   2   3   9   12.60    3.90
   2   3   9   11.20    4.60
  -3  -3  -9  119.19   26.40
   3   3   9  144.89   16.30
   3   3   9  145.09   15.40
   3   3   9  121.19   15.00
  -4  -3  -9    6.70   17.60
   4   3   9   26.50    5.10
   4   3   9   14.90    4.50
  -6   4   9   23.30    8.10
  -6   4   9    0.30    3.40
  -6   4   9    3.90    5.70
  -5   4   9   42.30    6.70
  -5   4   9   35.00    6.50
  -5   4   9   52.29   10.20
  -4   4   9    1.60    3.70
  -4   4   9   -2.00    5.90
  -4   4   9   -2.40    2.70
  -3   4   9   43.90    7.30
  -3   4   9   48.80    7.50
  -3   4   9   29.00    6.00
  -3   4   9   41.90    9.70
  -2   4   9   56.09    8.70
  -2   4   9   51.79    8.30
  -2   4   9   37.20    6.80
  -2   4   9   49.80    8.20
  -1   4   9    9.30    3.80
  -1   4   9   16.50    5.40
  -1   4   9    9.90    4.80
  -1   4   9   12.30    4.10
   0   4   9  123.19   14.10
   0   4   9  141.19   15.80
   0   4   9  103.89   13.70
   0   4   9  114.09   14.00
  -1  -4  -9   -4.90   17.00
   1   4   9    9.20    4.00
   1   4   9   10.90    3.70
   1   4   9   10.30    3.90
  -2  -4  -9   16.60   16.70
   2   4   9   16.80    5.00
   2   4   9   10.90    3.90
   2   4   9   16.20    4.00
   3   4   9   54.59    9.20
   3   4   9   29.80    5.30
  -3   5   9    2.30    2.80
  -2   5   9   -2.30    4.20
  -2   5   9    3.10    3.80
  -2   5   9    1.60    2.90
  -1   5   9   38.30    6.50
  -1   5   9   22.30    5.10
   0   5   9    5.60    3.30
   0   5   9    1.00    3.30
   1   5   9   18.00    5.50
   1   5   9   26.20    6.00
   3  13 -10   -2.80    3.40
  -3 -13  10   -0.80    3.30
   2  13 -10   86.49   10.60
  -2 -13  10   76.79   10.80
   1  13 -10    5.00    3.80
  -1 -13  10   -0.10    6.30
  -1 -13  10    5.80    3.80
   0  13 -10    2.20    3.80
   0 -13  10    3.40    6.50
   0 -13  10    0.50    3.60
  -1  13 -10   88.49   12.20
  -1  13 -10  108.09   12.70
   1 -13  10  109.79   15.70
  -2  13 -10    6.80    5.60
  -2  13 -10    6.40    3.50
   2 -13  10   12.00    5.90
  -3  13 -10    0.00    3.00
   3 -13  10    7.20    4.40
   5  12 -10    2.90    3.70
  -5 -12  10    0.60    3.00
  -5 -12  10    1.90    2.60
   4  12 -10   25.10    6.00
  -4 -12  10   20.00    5.50
  -4 -12  10   13.20    3.80
   3  12 -10  166.68   19.30
  -3 -12  10  184.08   18.30
  -3 -12  10  160.68   19.80
   2  12 -10    3.40    4.00
  -2 -12  10    3.30    3.70
   1  12 -10   47.10    8.10
   1  12 -10   49.50    8.10
  -1 -12  10   43.20    8.60
  -1 -12  10   39.00   10.60
   0  12 -10   82.59   11.50
   0  12 -10   92.79   11.40
   0 -12  10   86.29   11.70
   0 -12  10   87.89   15.70
  -1  12 -10    3.10    3.60
  -1  12 -10    2.10    4.50
   1 -12  10    3.70    3.90
   1 -12  10    2.80    7.00
  -2  12 -10   66.19   10.80
  -2  12 -10   67.79    9.60
   2 -12  10   87.69   13.90
  -3  12 -10   97.19   12.90
   3 -12  10  124.09   15.80
  -4  12 -10   -0.50    2.80
   4 -12  10    4.70    3.90
  -5  12 -10  105.89   12.00
   5 -12  10   95.09   12.90
   6  11 -10   41.10    8.50
  -6 -11  10   37.20    6.80
  -6 -11  10   46.50    6.20
   5  11 -10    9.20    5.60
  -5 -11  10   17.30    5.10
   4  11 -10   88.79   12.50
  -4 -11  10   94.39   12.80
   3  11 -10  219.08   22.80
   3  11 -10  156.78   22.10
  -3 -11  10  211.18   23.20
   2  11 -10    1.50    4.80
   2  11 -10    7.40    4.70
  -2 -11  10    1.60    3.70
  -2 -11  10    1.30    3.10
   1  11 -10   91.29   12.60
   1  11 -10   98.99   12.50
  -1 -11  10   78.69   15.40
  -1 -11  10   92.89   12.80
   0  11 -10   88.39   12.90
   0  11 -10  109.99   12.80
   0 -11  10  101.19   17.20
   0 -11  10   95.89   13.00
  -1  11 -10   29.60    6.00
  -1  11 -10   20.10    6.70
   1 -11  10   20.90    6.40
   1 -11  10   32.20   10.10
  -2  11 -10   18.20    5.00
  -2  11 -10   20.50    8.50
   2 -11  10   16.50    7.90
  -3  11 -10   68.49   10.10
   3 -11  10   84.29   13.60
  -4  11 -10   -0.40    3.30
   4 -11  10    5.80    4.70
  -5  11 -10   33.00    6.40
   5 -11  10   31.60    7.60
  -6  11 -10    5.30    3.70
   6 -11  10    2.10    3.30
   7  10 -10   83.49   11.60
  -7 -10  10   75.99    9.80
  -7 -10  10   93.49   10.10
   6  10 -10   10.90    5.30
  -6 -10  10    7.60    2.80
  -6 -10  10    6.10    4.00
  -6 -10  10    7.00    3.40
   5  10 -10  105.59   13.40
  -5 -10  10   85.59   11.00
  -5 -10  10   85.39   12.40
   4  10 -10   88.39   13.60
   4  10 -10  101.69   13.40
  -4 -10  10   91.89   13.30
   3  10 -10   -3.00    4.90
   3  10 -10    0.90    4.40
  -3 -10  10    1.50    3.40
   2  10 -10  172.38   19.30
   2  10 -10  171.48   19.50
  -2 -10  10  165.68   17.60
  -2 -10  10  131.29   19.00
   1  10 -10   19.90    6.10
   1  10 -10   19.40    7.00
  -1 -10  10   22.20    6.50
  -1 -10  10   20.70    8.90
   0  10 -10   27.70    7.80
   0  10 -10   31.90    7.20
   0 -10  10   23.80    9.30
   0 -10  10   36.80    8.10
  -1  10 -10  469.85   55.29
  -1  10 -10  560.74   56.29
   1 -10  10  644.24   58.99
   1 -10  10  527.95   56.09
  -2  10 -10   63.89    9.70
   2 -10  10   87.69   14.10
   2 -10  10   63.09   10.40
  -3  10 -10   11.90    4.90
   3 -10  10   13.00    6.70
  -4  10 -10  119.39   15.70
   4 -10  10  133.69   17.60
  -5  10 -10   -3.50    4.20
  -5  10 -10   -2.10    3.50
   5 -10  10    3.50    4.00
  -6  10 -10    4.60    3.60
  -6  10 -10    7.50    4.10
   6 -10  10   -0.40    3.10
  -7  10 -10   18.50    5.60
   7 -10  10   17.10    5.00
   8   9 -10   60.29   10.10
  -8  -9  10   57.89    7.60
   7   9 -10   70.19   11.20
  -7  -9  10   75.99    8.50
  -7  -9  10   48.10    8.90
   6   9 -10   -1.80    5.80
  -6  -9  10   -0.40    2.40
  -6  -9  10    3.30    2.80
  -6  -9  10    1.40    3.30
   5   9 -10  188.78   27.10
   5   9 -10  277.27   28.20
  -5  -9  10  250.07   24.90
  -5  -9  10  241.98   26.90
  -5  -9  10  228.88   25.20
   4   9 -10  306.07   36.30
   4   9 -10  368.66   36.60
  -4  -9  10  359.06   36.50
  -4  -9  10  304.17   33.60
   3   9 -10   -1.60    5.50
   3   9 -10    4.10    5.20
  -3  -9  10    2.50    3.30
  -3  -9  10    0.30    3.00
   2   9 -10  208.48   23.40
   2   9 -10  213.88   23.30
  -2  -9  10  160.78   22.60
  -2  -9  10  212.88   21.40
   1   9 -10   82.59   12.60
   1   9 -10   87.29   11.90
  -1  -9  10   82.29   10.30
  -1  -9  10   63.09   11.20
  -1  -9  10   85.79   15.10
   0   9 -10   23.90    7.60
   0   9 -10   13.80    5.80
   0  -9  10   21.70    6.40
  -1   9 -10  188.38   25.20
   1  -9  10  268.27   28.70
   1  -9  10  239.88   26.00
  -2   9 -10   19.00    6.00
   2  -9  10   21.00    6.30
   2  -9  10   24.80    8.30
  -3   9 -10    5.60    4.10
   3  -9  10    5.50    5.00
  -4   9 -10  292.07   32.30
   4  -9  10  308.27   33.90
  -5   9 -10    7.10    3.70
  -5   9 -10    1.20    4.00
   5  -9  10    2.50    3.80
   5  -9  10    4.10    5.00
  -6   9 -10    2.80    3.80
  -6   9 -10    3.40    4.30
   6  -9  10    3.20    3.40
  -7   9 -10   88.49   11.80
  -7   9 -10   75.09   10.60
   7  -9  10   81.19   11.50
   8   8 -10    3.60    6.50
  -8  -8  10   16.10    3.40
  -8  -8  10    6.40    3.00
   7   8 -10   -2.40    6.60
  -7  -8  10    6.10    3.00
  -7  -8  10    3.50    2.70
   6   8 -10  159.68   21.90
   6   8 -10  159.58   21.80
  -6  -8  10  144.39   19.50
  -6  -8  10  203.08   18.50
  -6  -8  10  170.58   18.50
   5   8 -10   11.40    7.90
   5   8 -10   -0.30    6.60
  -5  -8  10    7.70    3.10
  -5  -8  10    4.00    2.90
  -5  -8  10    8.80    4.40
   4   8 -10   31.30    8.60
   4   8 -10   17.20    8.40
  -4  -8  10   20.80    4.90
  -4  -8  10   27.90    7.30
  -4  -8  10   17.40    4.20
   3   8 -10  167.98   19.50
   3   8 -10  148.79   19.90
  -3  -8  10  154.88   16.40
  -3  -8  10  114.49   17.80
  -3  -8  10  164.48   16.90
   2   8 -10   82.79   12.80
   2   8 -10   91.29   12.90
  -2  -8  10   89.79   10.50
  -2  -8  10   64.69   11.20
   1   8 -10    5.20    5.90
   1   8 -10   -2.10    4.40
  -1  -8  10    2.50    3.40
  -1  -8  10    0.90    3.00
  -1  -8  10    0.40    5.30
   0  -8  10  447.26   48.20
   0  -8  10  449.46   47.10
  -1   8 -10   19.60    7.20
   1  -8  10   27.20    7.00
   1  -8  10   30.80    8.90
  -2   8 -10    6.90    4.40
   2  -8  10    5.80    3.90
   2  -8  10    7.40    5.40
  -3   8 -10   45.60    9.00
   3  -8  10   26.20    8.00
   3  -8  10   35.90    8.10
  -4   8 -10   41.70    8.70
   4  -8  10   38.30    9.30
  -5   8 -10   70.19   11.40
   5  -8  10   83.49   10.70
   5  -8  10   55.59   11.00
  -6   8 -10   27.20    5.90
  -6   8 -10   30.00    7.20
   6  -8  10   23.80    6.90
  -7   8 -10   56.99    9.10
   7  -8  10   51.59   11.70
   7  -8  10   53.29    9.40
   8  -8  10   22.90    5.10
   9   7 -10   78.39   12.70
  -9  -7  10   75.09    9.50
   8   7 -10  116.29   15.20
  -8  -7  10   80.79   11.10
   7   7 -10    2.70    8.60
   7   7 -10   24.40    9.00
  -7  -7  10    9.40    3.70
  -7  -7  10   15.20    3.90
   6   7 -10  327.67   32.30
   6   7 -10  275.07   32.40
  -6  -7  10  208.98   27.10
  -6  -7  10  264.17   28.80
   5   7 -10   89.09   13.90
   5   7 -10   50.39   14.70
  -5  -7  10   75.49   11.40
  -5  -7  10   83.09    9.60
  -5  -7  10   55.89    9.30
   4   7 -10    4.00    7.80
   4   7 -10   10.80    7.60
  -4  -7  10    8.90    4.90
  -4  -7  10    6.40    3.60
  -4  -7  10   10.40    3.30
   3   7 -10  253.67   35.20
   3   7 -10  327.67   35.40
  -3  -7  10  320.87   32.60
  -3  -7  10  340.77   33.20
  -3  -7  10  340.27   35.10
   2   7 -10   34.90    9.50
   2   7 -10   10.20    7.30
  -2  -7  10   26.40    5.20
  -2  -7  10   26.00    7.50
  -2  -7  10   32.70    6.20
   1   7 -10  102.69   16.50
  -1  -7  10   98.69   15.10
  -1  -7  10  136.19   17.00
  -1  -7  10  154.58   14.80
   0   7 -10  546.65   63.69
   0  -7  10  642.24   64.39
   0  -7  10  646.14   62.49
   0  -7  10  641.94   63.79
  -1   7 -10   -2.90    4.60
   1  -7  10    2.00    4.60
   1  -7  10   -0.40    3.20
  -2   7 -10  114.99   15.40
   2  -7  10   98.69   14.10
   2  -7  10  108.19   15.50
  -3   7 -10  474.25   44.80
   3  -7  10  379.86   45.20
   3  -7  10  420.66   44.60
  -4   7 -10    2.30    4.30
   4  -7  10   -2.80    4.50
   4  -7  10    0.90    3.90
  -5   7 -10   11.60    5.50
   5  -7  10    1.70    5.40
   5  -7  10    8.70    4.70
   6  -7  10  149.19   19.10
  -7   7 -10   15.70    4.70
   7  -7  10   13.70    5.00
   7  -7  10   12.90    5.20
   7  -7  10   12.40    7.10
  -8   7 -10   75.79   10.50
   8  -7  10   65.49   10.60
   9   6 -10   -3.90    7.10
  -9  -6  10    2.00    3.10
   8   6 -10   -1.10    8.40
   8   6 -10    2.00    8.40
  -8  -6  10    0.90    2.80
  -8  -6  10   -1.40    2.80
   7   6 -10   23.10   11.50
   7   6 -10   16.50   11.00
  -7  -6  10   24.60    4.40
  -7  -6  10   13.80    4.30
   6   6 -10   71.99   19.20
   6   6 -10  146.09   20.70
  -6  -6  10  113.99   15.60
  -6  -6  10  148.69   14.70
   5   6 -10   57.99   13.60
   5   6 -10   30.90   13.00
  -5  -6  10   59.89    7.80
  -5  -6  10   46.40    9.60
   4   6 -10   51.89   14.00
   4   6 -10   76.99   13.80
  -4  -6  10   48.00    9.40
  -4  -6  10   75.19   10.90
  -4  -6  10   77.19    9.10
   3   6 -10  121.59   19.80
  -3  -6  10  100.39   15.20
  -3  -6  10  116.09   14.20
  -3  -6  10  136.89   13.90
   2   6 -10    2.80    6.40
  -2  -6  10    7.60    3.70
  -2  -6  10    7.20    4.40
  -2  -6  10    3.10    3.00
   1   6 -10   -0.80    5.60
  -1  -6  10    2.00    3.70
  -1  -6  10   -0.60    3.40
  -1  -6  10    1.80    2.90
  -1  -6  10    0.70    4.40
   0   6 -10  277.97   28.30
   0  -6  10  224.98   25.10
   0  -6  10  225.48   26.80
   0  -6  10  217.78   26.00
  -1   6 -10   14.60    6.30
   1  -6  10   13.00    5.70
   1  -6  10    9.20    4.80
  -2   6 -10   65.69   12.50
   2  -6  10   76.89   12.30
   2  -6  10   66.99   10.60
  -3   6 -10  128.49   16.60
   3  -6  10  142.69   15.60
   3  -6  10  116.19   16.70
   3  -6  10  123.79   17.40
  -4   6 -10  200.08   23.20
   4  -6  10  180.88   24.30
   4  -6  10  231.78   22.70
   5  -6  10    3.10    3.90
   5  -6  10   13.10    5.90
   5  -6  10   -3.30    5.70
   6  -6  10   52.29   10.80
   6  -6  10   57.09    8.70
   7  -6  10   11.50    8.20
   7  -6  10    6.60    4.90
   7  -6  10    8.80    4.80
  -8   6 -10   12.10    4.90
   8  -6  10   10.90    8.00
   8  -6  10   16.70    5.40
   8  -6  10   11.40    4.40
   9   5 -10    8.60    8.80
   9   5 -10    7.80    9.10
  -9  -5  10    8.20    4.00
  -9  -5  10   13.50    3.50
   8   5 -10    2.50   10.80
   8   5 -10   14.80   10.80
  -8  -5  10    9.30    3.80
  -8  -5  10   15.80    3.80
   7   5 -10  196.18   28.70
  -7  -5  10  236.78   23.10
  -7  -5  10  204.98   23.40
   6   5 -10    6.90   12.40
   6   5 -10    5.40   12.40
  -6  -5  10   -3.30    4.40
  -6  -5  10    1.10    2.70
  -6  -5  10    1.30    2.70
   5   5 -10  101.19   17.60
  -5  -5  10   69.89    9.50
  -5  -5  10   89.99   11.60
  -5  -5  10   55.49    9.60
   4   5 -10  246.48   34.10
  -4  -5  10  286.77   28.60
  -4  -5  10  282.07   30.40
   3   5 -10   -4.50    6.90
  -3  -5  10    5.50    3.40
  -3  -5  10    2.20    3.80
  -3  -5  10    1.40    3.10
  -3  -5  10    0.60    2.60
   2   5 -10  196.88   31.00
  -2  -5  10  310.77   28.80
  -2  -5  10  299.47   28.10
  -2  -5  10  238.28   29.50
  -2  -5  10  272.97   28.00
   1   5 -10  486.75   58.89
  -1  -5  10  540.45   56.19
  -1  -5  10  547.05   56.19
  -1  -5  10  663.23   57.19
  -1  -5  10  577.64   58.39
   0   5 -10    0.70    6.40
   0  -5  10   -3.00    4.70
   0  -5  10    0.20    4.10
   0  -5  10    2.00    3.40
   0  -5  10   -0.20    3.40
   0  -5  10    3.60    3.60
  -1   5 -10  182.48   23.00
   1  -5  10  181.08   19.70
   1  -5  10  145.09   19.70
   1  -5  10  196.28   21.80
   1  -5  10  216.58   22.90
  -2   5 -10   88.19   14.20
   2  -5  10   86.59   11.70
   2  -5  10   82.39   13.10
   2  -5  10   99.49   11.80
   2  -5  10  104.19   14.50
  -3   5 -10    8.60    5.30
   3  -5  10   -3.80    4.20
   3  -5  10    5.00    4.00
   3  -5  10    0.90    3.90
   3  -5  10    6.20    4.60
   4  -5  10  265.67   26.70
   4  -5  10  269.67   26.90
   4  -5  10  236.18   29.10
   4  -5  10  218.68   28.50
   5  -5  10   54.69    9.10
   5  -5  10   55.19    9.00
   6  -5  10    3.10    4.80
   6  -5  10    4.90    4.20
   7  -5  10  184.08   19.60
   7  -5  10  128.19   16.80
  -8   5 -10    5.90    4.30
   8  -5  10    2.30    3.60
   8  -5  10    4.00    3.40
   9   4 -10   -5.10    9.60
   9   4 -10    7.80    9.60
  -9  -4  10   -1.90    3.70
  -9  -4  10    2.70    2.80
   8   4 -10   14.70   13.10
   8   4 -10    1.10   12.20
  -8  -4  10    7.30    4.20
  -8  -4  10   11.90    3.90
   7   4 -10  132.49   24.30
   6   4 -10   12.70   13.60
   6   4 -10   -9.90   13.20
  -6  -4  10   -1.00    2.70
  -6  -4  10    2.20    3.10
   5   4 -10    2.40   14.00
   5   4 -10    9.30   12.20
  -5  -4  10   -2.60    2.80
  -5  -4  10    3.60    4.20
  -5  -4  10    1.50    2.70
  -4  -4  10  195.38   21.90
  -4  -4  10  214.98   22.80
   3   4 -10    3.40    9.50
  -3  -4  10   10.10    5.00
  -3  -4  10   14.20    4.20
  -3  -4  10    4.60    3.80
  -3  -4  10   11.00    3.70
   2   4 -10   37.80   12.30
  -2  -4  10   66.99    9.90
  -2  -4  10   63.59    9.10
  -2  -4  10   72.49    9.10
  -2  -4  10   57.49    9.90
  -2  -4  10   56.69    8.10
   1   4 -10  112.99   19.30
  -1  -4  10  149.39   15.50
  -1  -4  10  134.99   17.00
  -1  -4  10  113.09   14.40
  -1  -4  10  136.89   15.40
   0   4 -10    5.80    7.00
   0  -4  10    3.90    4.30
   0  -4  10   -3.00    3.60
   0  -4  10    4.20    5.10
   0  -4  10    1.50    3.50
   0  -4  10    1.40    3.30
   0  -4  10    7.10    3.80
  -1   4 -10  191.68   24.70
   1  -4  10  184.38   22.40
   1  -4  10  226.78   25.00
   1  -4  10  191.58   24.40
   1  -4  10  235.48   22.40
   2  -4  10   47.70    8.60
   2  -4  10   62.49    9.00
   2  -4  10   57.19   11.80
   2  -4  10   71.79   11.40
   3  -4  10  129.69   14.50
   3  -4  10  108.39   16.30
   3  -4  10  119.59   14.50
   3  -4  10  108.79   16.40
  -4   4 -10  111.09   28.90
   4  -4  10   80.59   11.10
   4  -4  10   66.79   12.40
   4  -4  10   74.79   11.30
   4  -4  10   68.89   12.50
  -5   4 -10   62.59   26.00
   5  -4  10   61.99    8.90
   5  -4  10   51.09    8.60
   5  -4  10   46.60   10.40
  -6   4 -10    1.00   20.60
   6  -4  10    5.70    3.90
   6  -4  10   -0.50    4.20
   7  -4  10   72.79   11.10
   7  -4  10   61.69    9.20
  -8   4 -10    1.50    4.50
   8  -4  10   -1.20    3.30
   8  -4  10   -2.70    3.50
   9   3 -10   -2.70   11.10
   9   3 -10    8.50   12.10
  -9  -3  10   21.60    4.20
   8   3 -10    7.90   14.90
   8   3 -10   16.90   15.40
  -8  -3  10   42.40    8.00
  -8  -3  10   62.89    7.60
   7   3 -10   27.00   15.90
   7   3 -10    8.20   15.30
  -7  -3  10   23.00    4.90
  -7  -3  10   10.60    5.40
   6   3 -10   68.19   24.60
  -6  -3  10  110.39   13.20
  -6  -3  10  129.39   14.80
  -5  -3  10  148.19   13.90
  -5  -3  10  138.09   16.60
  -5  -3  10  108.39   14.30
  -5  -3  10   93.39   15.00
   4   3 -10   11.30   12.60
  -4  -3  10    9.80    3.40
  -4  -3  10   13.00    5.70
  -4  -3  10    9.10    3.60
  -4  -3  10    7.40    4.50
  -3  -3  10  429.96   50.29
  -3  -3  10  596.24   53.49
  -3  -3  10  498.35   49.70
  -3  -3  10  501.55   50.09
  -2  -3  10  254.57   30.20
  -2  -3  10  291.27   29.20
  -2  -3  10  320.57   29.70
  -2  -3  10  260.37   31.30
  -2  -3  10  263.17   28.40
   1   3 -10   62.19   15.40
  -1  -3  10  107.59   11.80
  -1  -3  10   98.39   12.60
  -1  -3  10  112.09   12.70
  -1  -3  10   90.79   14.20
  -1  -3  10  109.49   13.90
   0   3 -10   44.40   11.30
   0  -3  10   30.70    9.40
   0  -3  10   55.99   10.30
   0  -3  10   75.59   10.80
   0  -3  10   46.60    8.30
   0  -3  10   60.29    7.90
   0  -3  10   55.19    8.30
   1  -3  10   61.09   10.70
   1  -3  10   56.09    9.70
   1  -3  10   38.30    8.00
   1  -3  10   67.79    8.60
   1  -3  10   77.79   10.10
   1  -3  10   45.80   11.10
   2  -3  10   24.00    6.20
   2  -3  10   29.10    8.60
   2  -3  10   38.40    6.90
   2  -3  10   31.20    8.20
   3  -3  10  470.65   49.50
   3  -3  10  415.66   48.80
   3  -3  10  458.95   46.10
   3  -3  10  478.85   46.40
  -4   3 -10    4.40   21.30
   4  -3  10    7.10    4.40
   4  -3  10    4.20    5.00
   4  -3  10    4.30    3.90
   4  -3  10    7.20    4.70
  -5   3 -10    2.00   20.80
   5  -3  10    2.90    3.70
   5  -3  10    3.20    4.30
   5  -3  10   10.90    4.30
   6  -3  10  108.49   13.30
   6  -3  10  107.79   15.20
  -7   3 -10    8.10   17.60
   7  -3  10    2.60    3.50
   7  -3  10    7.20    3.90
   9   2 -10    7.40   13.30
   9   2 -10    6.90   12.80
  -8  -2  10  109.59   13.80
  -8  -2  10  106.89   12.60
  -7  -2  10    6.90    4.00
  -7  -2  10    2.30    2.90
  -7  -2  10    1.90    3.50
  -6  -2  10   91.69   13.50
  -6  -2  10   92.99   11.40
  -6  -2  10   81.99   10.10
  -6  -2  10   72.29   11.60
  -5  -2  10   69.89    7.90
  -5  -2  10   57.99    9.10
  -5  -2  10   45.20    9.80
  -5  -2  10   44.10    9.40
   4   2 -10    0.50   12.70
  -4  -2  10    4.20    4.70
  -4  -2  10    2.90    3.70
  -4  -2  10    3.30    2.90
  -4  -2  10    0.80    3.20
  -3  -2  10  166.68   16.50
  -3  -2  10  159.98   16.90
  -3  -2  10  169.58   20.00
  -3  -2  10  113.39   17.00
  -2  -2  10  106.19   12.60
  -2  -2  10   84.59   13.40
   1   2 -10    6.80    9.10
  -1  -2  10   -0.30    2.70
  -1  -2  10   -0.70    3.90
  -1  -2  10   -0.80    4.10
  -1  -2  10    1.20    3.70
   0  -2  10  156.98   19.70
   0  -2  10  178.88   18.40
   0  -2  10  159.98   20.50
   0  -2  10  168.98   18.60
   1  -2  10   14.90    6.70
   1  -2  10   12.00    4.50
   1  -2  10   25.30    7.20
   1  -2  10   30.30    6.10
   1  -2  10   29.90    6.20
   1  -2  10   21.70    6.40
   2  -2  10   -2.00    3.90
   2  -2  10    1.60    4.90
   2  -2  10   -3.90    4.40
   2  -2  10   -0.70    3.40
   2  -2  10    0.10    3.60
   2  -2  10    0.90    3.70
   3  -2  10  311.07   36.00
   3  -2  10  300.07   33.30
   3  -2  10  338.07   33.30
   3  -2  10  335.37   36.30
  -4   2 -10   76.99   26.80
   4  -2  10   89.19   10.30
   4  -2  10   52.29   12.10
   4  -2  10   75.39   12.30
   4  -2  10   59.39    9.80
  -5   2 -10    8.80   19.70
   5  -2  10    6.60    4.50
   5  -2  10   -3.00    4.60
   5  -2  10   14.10    4.70
   6  -2  10   91.09   12.20
   6  -2  10  105.09   14.20
  -7   2 -10    2.90   16.80
   7  -2  10   16.50    5.20
   7  -2  10    5.60    3.80
   9   1 -10    6.40   12.30
  -9  -1  10    3.60    3.40
  -8  -1  10   24.90    4.70
  -8  -1  10   29.30    7.40
  -8  -1  10   36.30    6.20
  -7  -1  10   91.79   10.80
  -7  -1  10   74.99   13.50
  -7  -1  10   80.69   12.20
  -7  -1  10  115.09   12.50
  -6  -1  10   13.40    7.10
  -6  -1  10   27.20    6.30
  -6  -1  10   26.50    6.50
  -6  -1  10   22.30    4.50
  -5  -1  10   24.50    6.90
  -5  -1  10   11.60    7.60
  -5  -1  10   30.00    6.80
  -5  -1  10   25.10    4.70
  -4  -1  10  198.98   23.10
  -4  -1  10  158.88   20.60
  -4  -1  10  205.58   22.70
  -4  -1  10  138.89   21.00
  -4  -1  10  230.68   20.20
   3   1 -10  -11.40   10.20
  -3  -1  10   10.00    6.10
  -3  -1  10   10.80    4.00
  -3  -1  10    7.30    4.60
  -3  -1  10   14.10    4.20
  -3  -1  10   12.40    3.70
   2   1 -10  -11.80    9.80
  -2  -1  10    2.40    3.80
  -2  -1  10    5.80    3.80
  -2  -1  10    7.70    5.50
  -2  -1  10    5.30    3.00
  -1  -1  10    6.10    4.80
  -1  -1  10   12.70    4.20
  -1  -1  10   13.70    5.30
  -1  -1  10    9.00    4.50
   0  -1  10   64.89    8.80
   0  -1  10   55.09    8.70
   0  -1  10   53.59    8.90
   0  -1  10   62.09   11.60
   0  -1  10   61.59   10.00
   0  -1  10   50.29   11.90
   1  -1  10   94.69   11.60
   1  -1  10   57.59   10.10
   1  -1  10  108.29   12.30
   1  -1  10   89.19   13.20
   1  -1  10   63.99   13.50
   1  -1  10   84.09   10.90
   2  -1  10  143.39   20.00
   2  -1  10  151.08   19.10
   2  -1  10  216.48   20.90
   2  -1  10  205.88   23.00
   2  -1  10  170.08   21.90
   2  -1  10  189.18   19.90
   3  -1  10   85.39   13.70
   3  -1  10   97.39   14.50
   3  -1  10   83.19   11.70
   3  -1  10   95.59   11.70
  -4   1 -10   18.80   20.50
   4  -1  10   13.40    5.30
   4  -1  10   16.10    5.10
   4  -1  10   19.50    6.90
  -5   1 -10   21.20   20.10
   5  -1  10   29.20    7.60
   5  -1  10   21.40    5.50
   5  -1  10   15.10    5.30
  -6   1 -10   -2.30   17.00
   6  -1  10    0.00    3.30
   6  -1  10    1.60    3.70
  -7   1 -10   -8.90   14.90
   9   0 -10    1.10   11.90
  -8   0  10   -9.50    7.20
  -8   0  10    1.10    2.40
  -8   0  10    4.50    4.50
  -7   0  10  222.78   23.20
  -7   0  10  210.28   22.00
  -7   0  10  201.78   24.10
  -6   0  10   10.30    3.50
  -6   0  10    6.70    4.90
  -6   0  10   10.30    4.50
  -6   0  10   11.30    6.90
  -5   0  10   13.20    4.00
  -5   0  10   14.70    8.00
  -5   0  10   15.60    5.10
  -5   0  10   14.00    5.50
  -4   0  10  290.77   30.50
  -4   0  10  238.98   30.40
  -4   0  10  277.37   29.60
  -4   0  10  289.47   28.30
  -3   0  10   33.50    8.20
  -3   0  10   30.10    6.30
  -3   0  10   33.40    7.80
  -3   0  10   52.39    7.70
  -3   0  10   40.80    9.80
  -2   0  10    1.60    4.00
  -2   0  10    0.90    2.70
  -2   0  10    1.60    3.90
  -2   0  10    0.70    3.70
  -2   0  10   -3.50    5.50
  -1   0  10  137.39   16.90
  -1   0  10  110.09   17.70
  -1   0  10  191.68   17.70
  -1   0  10  175.68   20.30
  -1   0  10  141.39   16.90
   0   0  10   51.39   10.60
   0   0  10   45.60    8.20
   0   0  10   48.30   11.10
   0   0  10   60.19    8.40
   0   0  10   53.29    8.80
   0   0  10   53.39    9.40
   1   0  10   95.49   13.00
   1   0  10  103.39   13.20
   1   0  10  127.99   14.30
   1   0  10   99.69   15.00
   1   0  10  114.69   14.00
   1   0  10  104.19   15.30
   2   0  10  139.29   18.70
   2   0  10  161.98   18.60
   2   0  10  156.78   20.20
   2   0  10  161.58   17.90
   2   0  10  156.18   17.60
   3   0  10   11.00    4.40
   3   0  10    8.60    4.70
   3   0  10   10.90    5.50
  -4   0 -10   43.50   20.90
   4   0  10   61.29   10.30
   4   0  10   54.69    8.50
   4   0  10   39.40    7.40
  -5   0 -10   22.30   19.70
   5   0  10   38.80    6.90
   5   0  10   58.09    9.60
   5   0  10   57.49    8.20
  -6   0 -10   -8.70   15.30
   6   0  10   13.30    4.70
   6   0  10    7.80    3.60
   8  -1 -10  -10.30   11.60
  -7   1  10   -0.60    2.70
  -7   1  10    3.70    4.20
  -7   1  10   10.30    7.30
  -7   1  10    4.20    4.30
   6  -1 -10   -8.20   12.60
  -6   1  10   17.70    5.80
  -6   1  10   14.90    4.20
  -6   1  10   27.90    8.20
  -6   1  10   19.60    5.10
   5  -1 -10  -12.90   12.30
  -5   1  10    0.90    3.70
  -5   1  10    8.10    8.40
  -5   1  10    1.00    3.20
  -5   1  10    1.70    4.70
  -4   1  10   71.69   11.90
  -4   1  10   69.49   12.00
  -4   1  10  115.89   15.40
  -4   1  10   73.59   10.10
  -3   1  10   37.60    8.90
  -3   1  10   39.20    8.10
  -3   1  10   42.80    7.10
  -3   1  10   40.20    6.90
  -2   1  10   76.79   10.00
  -2   1  10   47.90    9.60
  -2   1  10   64.19   12.30
  -2   1  10   78.59   10.10
  -1   1  10   60.19   10.40
  -1   1  10   81.19   10.40
  -1   1  10   80.89   10.40
  -1   1  10   57.59    9.80
   0   1  10   30.50    6.50
   0   1  10   33.80    6.50
   0   1  10   40.90    9.10
   0   1  10   39.90    7.10
   0   1  10   29.40    6.40
   1   1  10   12.20    4.80
   1   1  10   12.50    4.40
   1   1  10   13.80    6.00
   1   1  10    9.30    5.90
   1   1  10    7.50    4.20
   2   1  10   57.59    8.80
   2   1  10   56.79   10.90
   2   1  10   60.89    8.90
   2   1  10   63.29   10.30
  -3  -1 -10   -4.90   17.90
   3   1  10   15.10    4.20
   3   1  10    6.00    4.70
   3   1  10    7.40    4.60
   3   1  10    6.80    3.90
  -4  -1 -10   27.30   17.90
   4   1  10    6.00    3.70
   4   1  10    4.70    4.10
   4   1  10   -2.80    3.50
  -5  -1 -10  -12.10   15.60
   5   1  10    0.90    3.50
   5   1  10    0.80    3.30
  -7   2  10   27.10    7.10
  -7   2  10    5.20    2.90
  -6   2  10   45.50    8.10
  -6   2  10   54.19    7.20
  -6   2  10   31.80    6.40
  -5   2  10  165.98   15.90
  -5   2  10  138.49   17.20
  -5   2  10  116.49   15.80
  -4   2  10    1.20    5.50
  -4   2  10    0.80    3.50
  -4   2  10   -0.80    3.20
  -3   2  10   55.29    7.90
  -3   2  10   45.70    7.50
  -3   2  10   54.79   10.60
  -3   2  10   45.10    8.20
  -2   2  10   80.69   11.70
  -2   2  10  107.19   12.30
  -2   2  10   87.69   11.80
  -1   2  10   33.90    6.00
  -1   2  10   49.50    7.60
  -1   2  10   27.30    6.30
  -1   2  10   27.40    6.40
   0   2  10  134.09   16.20
   0   2  10  135.19   15.70
   0   2  10  139.39   15.80
   1   2  10  103.29   13.10
   1   2  10  115.19   15.00
   1   2  10   99.99   12.40
   1   2  10   89.59   12.30
  -2  -2 -10    4.10   17.60
   2   2  10   -0.40    3.40
   2   2  10    3.20    4.00
   2   2  10    6.00    4.00
   2   2  10    5.90    4.90
  -3  -2 -10   46.20   18.60
   3   2  10   58.89    8.60
   3   2  10   59.19   10.40
   3   2  10   56.39    8.40
   3   2  10   53.39    9.20
  -4  -2 -10   11.70   16.60
   4   2  10   13.00    4.10
   4   2  10    8.30    4.00
  -6   3  10   24.70    4.50
  -5   3  10   60.19    7.90
  -5   3  10   50.29   10.60
  -5   3  10   47.20    7.70
  -4   3  10   37.80    8.80
  -4   3  10   47.60    7.10
  -4   3  10   39.70    7.10
  -3   3  10   -4.70    4.00
  -3   3  10    8.00    4.10
  -2   3  10   69.79    9.90
  -2   3  10   76.09   10.30
  -2   3  10   64.79    9.30
  -1   3  10   -3.20    3.30
  -1   3  10    0.00    4.50
  -1   3  10   -1.70    2.80
  -1   3  10    1.60    4.50
   0   3  10    5.60    3.60
   0   3  10    3.20    4.10
   0   3  10    5.50    5.40
   0   3  10    5.40    3.50
  -1  -3 -10    4.70   16.70
   1   3  10   11.40    3.90
   1   3  10   11.20    3.90
   1   3  10   15.90    4.20
  -2  -3 -10   15.70   16.10
   2   3  10    3.30    3.80
   2   3  10    2.60    3.20
   2   3  10    3.10    3.40
  -2   4  10   10.90    4.00
  -1   4  10   97.29   11.80
   0   4  10    6.40    4.30
  -1 -13  11   19.30    5.40
   1 -13  11    2.40    4.20
   2 -13  11   23.30    6.70
   4  12 -11   -1.10    4.00
  -4 -12  11   -0.50    2.80
   3  12 -11   27.80    6.30
  -3 -12  11   27.30    6.10
   2  12 -11    6.20    4.20
   2  12 -11    1.80    4.20
  -2 -12  11    3.70    3.30
   1  12 -11   61.79    9.20
   1  12 -11   70.09    9.00
  -1 -12  11   57.69    9.00
   0  12 -11  177.88   18.10
   0  12 -11  145.19   18.10
   0 -12  11  167.48   18.60
   0 -12  11  169.48   20.00
  -1  12 -11    1.40    3.10
   1 -12  11    2.80    3.50
   1 -12  11    4.70    4.80
  -2  12 -11    7.90    3.80
   2 -12  11   19.90    5.90
  -3  12 -11   46.20    7.50
   3 -12  11   53.69    8.90
  -4  12 -11   21.20    4.60
   4 -12  11   22.00    5.30
   5  11 -11   12.70    5.20
  -5 -11  11    9.20    4.10
  -5 -11  11   10.10    3.00
   4  11 -11  172.48   20.60
  -4 -11  11  193.98   19.30
  -4 -11  11  177.48   20.40
   3  11 -11   12.70    4.90
   3  11 -11    2.40    4.90
  -3 -11  11    7.00    3.10
  -3 -11  11   10.50    4.30
   2  11 -11  138.29   16.80
   2  11 -11  146.79   16.40
  -2 -11  11  135.49   16.70
   1  11 -11  104.89   13.50
   1  11 -11  119.79   13.50
  -1 -11  11   90.99   14.90
  -1 -11  11  112.19   13.70
   0  11 -11   26.60    6.10
   0  11 -11   23.50    7.70
   0 -11  11   31.40    6.70
   0 -11  11   35.90    8.40
  -1  11 -11   84.59   10.90
   1 -11  11   74.69   11.20
   1 -11  11  106.59   13.90
  -2  11 -11    3.00    3.20
   2 -11  11    8.40    5.10
  -3  11 -11    2.30    3.00
   3 -11  11    2.10    3.80
  -4  11 -11  157.68   18.80
   4 -11  11  178.08   19.80
  -5  11 -11   19.90    4.80
   5 -11  11   11.70    4.30
   6  10 -11    1.30    4.80
  -6 -10  11    4.10    2.80
  -6 -10  11    1.50    2.30
  -6 -10  11    1.60    3.10
   5  10 -11   15.70    7.30
   5  10 -11   23.30    6.80
  -5 -10  11   23.60    4.50
  -5 -10  11   24.40    6.10
   4  10 -11   84.89   12.40
   4  10 -11   96.09   12.60
  -4 -10  11   86.19   10.70
  -4 -10  11   89.49   12.10
   3  10 -11   -0.10    4.50
   3  10 -11   -3.90    4.70
  -3 -10  11    5.60    3.80
  -3 -10  11    2.70    2.90
   2  10 -11  200.08   23.90
   2  10 -11  213.68   23.80
  -2 -10  11  214.08   22.40
  -2 -10  11  222.18   24.00
   1  10 -11  392.06   37.60
   1  10 -11  329.27   37.40
  -1 -10  11  319.57   38.00
  -1 -10  11  397.16   38.10
   0  10 -11   23.90    5.90
   0 -10  11   19.50    7.00
   0 -10  11   21.80    6.10
  -1  10 -11   34.50    7.30
   1 -10  11   35.00    8.40
   1 -10  11   33.00    7.30
  -2  10 -11   91.69   11.90
   2 -10  11   77.79   11.90
   2 -10  11  109.69   14.20
  -3  10 -11    8.10    4.30
   3 -10  11    7.40    4.90
  -4  10 -11   94.99   13.10
   4 -10  11   95.19   13.60
   4 -10  11  117.49   12.90
  -5  10 -11   11.80    6.00
  -5  10 -11   16.10    5.10
   5 -10  11   12.90    4.60
   5 -10  11   18.30   10.80
  -6  10 -11    6.90    4.00
   6 -10  11    1.90    3.00
   7   9 -11   36.10    8.30
  -7  -9  11   53.59    6.50
   6   9 -11   30.10    7.70
   6   9 -11   30.80    8.00
  -6  -9  11   27.10    6.00
  -6  -9  11   38.40    5.40
  -6  -9  11   25.70    5.00
   5   9 -11   46.20    9.70
   5   9 -11   39.30    9.40
  -5  -9  11   45.20    6.60
  -5  -9  11   43.60    6.70
  -5  -9  11   44.80    7.80
   4   9 -11   11.60    6.00
   4   9 -11    8.20    6.20
  -4  -9  11    9.50    4.70
  -4  -9  11    6.00    3.00
  -4  -9  11   11.90    3.60
   3   9 -11  143.19   17.90
   3   9 -11  135.79   17.30
  -3  -9  11  146.39   15.60
  -3  -9  11  126.49   16.80
   2   9 -11   -2.90    5.60
   2   9 -11    5.70    5.20
  -2  -9  11    5.10    3.50
  -2  -9  11    3.40    3.60
   1   9 -11    4.20    4.20
  -1  -9  11    1.30    3.40
  -1  -9  11    2.00    5.00
   0   9 -11  180.48   24.10
   0  -9  11  239.78   25.00
   0  -9  11  236.88   25.90
  -1   9 -11   32.90    7.40
   1  -9  11   42.20    8.10
   1  -9  11   34.50    8.80
  -2   9 -11   -1.70    3.90
   2  -9  11    5.90    4.10
   2  -9  11    4.10    4.60
  -3   9 -11  218.68   23.90
   3  -9  11  209.88   24.90
  -4   9 -11   -1.00    3.60
   4  -9  11   -3.20    4.20
   4  -9  11    0.60    3.40
  -5   9 -11    6.10    3.60
  -5   9 -11   -5.50    3.80
   5  -9  11   -7.80    5.10
   5  -9  11    1.20    2.90
  -6   9 -11   68.59   10.10
  -6   9 -11   82.09    9.60
   6  -9  11   60.79    8.90
   6  -9  11   60.59    9.90
   8   8 -11   10.90    6.20
  -8  -8  11   14.10    3.20
   7   8 -11    3.70    6.00
   7   8 -11    3.60    6.30
  -7  -8  11    3.90    2.50
  -7  -8  11    3.50    2.40
   6   8 -11  173.68   23.10
   6   8 -11  180.98   23.30
  -6  -8  11  179.98   21.30
  -6  -8  11  228.58   20.40
  -6  -8  11  180.98   20.50
   5   8 -11  265.37   29.50
   5   8 -11  256.87   29.90
  -5  -8  11  256.97   26.40
  -5  -8  11  267.67   28.20
  -5  -8  11  235.88   26.80
   4   8 -11   -0.90    5.80
   4   8 -11   -1.60    6.10
  -4  -8  11   -0.30    2.30
  -4  -8  11    1.50    3.50
  -4  -8  11    0.10    2.60
   3   8 -11  248.58   27.70
   3   8 -11  192.58   27.60
  -3  -8  11  259.77   25.50
  -3  -8  11  296.47   26.30
  -3  -8  11  219.58   27.00
   2   8 -11  108.09   16.20
  -2  -8  11  144.79   14.70
  -2  -8  11  120.09   15.80
   1   8 -11    3.90    4.80
  -1  -8  11    2.70    3.10
  -1  -8  11    2.80    3.70
   0   8 -11   90.69   14.20
   0  -8  11  118.69   15.60
   0  -8  11  120.29   14.70
  -1   8 -11   47.30    9.20
   1  -8  11   44.70    9.60
   1  -8  11   42.80    9.00
  -2   8 -11   63.69   10.80
   2  -8  11   62.89    9.80
   2  -8  11   57.99   10.90
  -3   8 -11  370.86   38.10
   3  -8  11  308.07   38.00
   3  -8  11  412.66   36.90
   3  -8  11  345.27   38.80
  -4   8 -11    0.50    4.10
   4  -8  11    5.90    4.40
   4  -8  11    6.20    3.90
  -5   8 -11   12.10    5.00
   5  -8  11    7.30    3.80
   5  -8  11    8.00    5.20
   5  -8  11    2.90    4.80
  -6   8 -11  146.19   15.50
   6  -8  11  127.09   16.60
   6  -8  11  133.39   15.00
  -7   8 -11    2.90    3.70
   7  -8  11    1.00    3.00
   7  -8  11   -1.10    3.60
   8   7 -11   -2.00    6.60
   8   7 -11    5.50    6.70
  -8  -7  11   11.70    2.90
  -8  -7  11    4.20    2.60
   7   7 -11   46.20   11.20
   7   7 -11   57.89   12.40
  -7  -7  11   51.79    8.00
  -7  -7  11   74.09    8.10
   6   7 -11   22.30    9.10
   6   7 -11   17.00    8.50
  -6  -7  11   14.90    4.10
  -6  -7  11   16.50    5.60
  -6  -7  11   15.30    3.80
   5   7 -11   10.80    8.10
   5   7 -11    3.80    7.40
  -5  -7  11   17.30    5.50
  -5  -7  11   11.80    3.40
  -5  -7  11   12.70    3.70
   4   7 -11   63.89   12.50
   4   7 -11   65.99   13.80
  -4  -7  11   66.29    9.20
  -4  -7  11   63.89    8.60
  -4  -7  11   74.89   10.80
   3   7 -11   39.80   10.40
  -3  -7  11   44.20    6.90
  -3  -7  11   51.29    7.50
  -3  -7  11   50.49    8.00
  -3  -7  11   37.50    8.80
   2   7 -11   -0.30    5.20
  -2  -7  11    0.10    3.30
  -2  -7  11    5.00    3.10
  -2  -7  11    0.10    3.30
   1   7 -11  125.39   16.10
  -1  -7  11  106.09   14.50
   0   7 -11   89.89   13.70
   0  -7  11   78.59   12.20
   0  -7  11   99.29   13.50
  -1   7 -11   27.50    7.80
   1  -7  11   25.20    7.40
   1  -7  11   26.20    6.90
  -2   7 -11   86.09   12.50
   2  -7  11   72.69   11.40
   2  -7  11   72.39   10.10
   2  -7  11   67.69   10.00
   2  -7  11   77.29   12.10
  -3   7 -11   80.89   12.40
   3  -7  11   87.19   11.30
   3  -7  11   80.79   12.70
   3  -7  11  102.89   11.60
   3  -7  11   74.79   12.60
  -4   7 -11    0.40    4.20
   4  -7  11    8.70    5.10
   4  -7  11   -4.80    4.70
   4  -7  11    4.10    3.60
   5  -7  11   16.80    5.30
   5  -7  11   14.10    5.20
   5  -7  11   20.70    5.90
   6  -7  11    1.10    3.10
   6  -7  11    4.00    4.10
   7  -7  11   56.99    7.60
   8   6 -11    6.70    6.90
   8   6 -11  -11.40    6.90
  -8  -6  11    0.50    2.50
  -8  -6  11    4.50    2.70
   7   6 -11  298.37   35.90
   7   6 -11  296.07   36.70
  -7  -6  11  360.26   33.40
   6   6 -11   77.19   16.20
   6   6 -11   72.79   14.30
  -6  -6  11   74.49   10.00
  -6  -6  11   88.49    9.90
  -6  -6  11   66.89   10.70
   5   6 -11   12.40    9.40
   5   6 -11   13.80    8.50
  -5  -6  11   26.80    6.70
  -5  -6  11   19.50    4.40
  -5  -6  11   18.30    5.10
  -4  -6  11  342.07   34.50
  -4  -6  11  334.57   32.40
  -4  -6  11  267.47   32.60
   3   6 -11   10.80    8.30
  -3  -6  11   15.80    4.00
  -3  -6  11   14.30    4.80
  -3  -6  11   12.60    4.50
  -3  -6  11   14.10    5.60
   2   6 -11   25.20    8.60
  -2  -6  11   31.80    5.90
  -2  -6  11   36.40    6.20
  -2  -6  11   29.10    6.50
   1   6 -11  289.37   32.50
  -1  -6  11  236.08   30.70
  -1  -6  11  338.07   29.90
  -1  -6  11  273.57   29.40
   0   6 -11   -1.00    5.30
   0  -6  11    1.50    3.40
   0  -6  11   -2.10    3.30
   0  -6  11   -2.10    4.00
   0  -6  11   -2.90    4.90
  -1   6 -11  191.98   23.70
   1  -6  11  226.98   24.20
   1  -6  11  231.28   23.90
   1  -6  11  157.88   21.00
  -2   6 -11  590.04   58.79
   2  -6  11  602.04   56.99
   2  -6  11  578.54   59.59
   2  -6  11  473.45   56.79
   2  -6  11  628.54   59.99
  -3   6 -11    2.40    4.60
   3  -6  11    2.10    4.30
   3  -6  11   -1.60    3.90
   3  -6  11   -1.00    3.30
   3  -6  11    5.60    4.60
   4  -6  11   29.10    7.90
   4  -6  11   46.80    7.80
   4  -6  11   44.30    7.50
   5  -6  11   83.79   11.10
   5  -6  11  106.89   12.50
   5  -6  11   76.29   12.70
   6  -6  11    4.80    4.10
   6  -6  11    5.80    4.10
   7  -6  11  110.79   13.00
   7  -6  11   81.69   10.90
  -9  -5  11   10.30    3.10
   8   5 -11   10.90    8.90
   8   5 -11   -3.50    8.40
  -8  -5  11    0.90    3.40
  -8  -5  11   12.40    3.30
   7   5 -11   94.49   19.40
  -7  -5  11  153.08   14.80
  -7  -5  11  125.39   15.20
   6   5 -11   10.80   11.60
   6   5 -11    6.10   11.80
  -6  -5  11    7.20    3.10
  -6  -5  11    2.60    3.30
   5   5 -11    6.10    9.60
  -5  -5  11    5.80    3.10
  -5  -5  11    8.70    4.60
  -5  -5  11    4.60    3.40
   4   5 -11   99.19   19.10
  -4  -5  11  141.69   15.60
   3   5 -11   10.70    8.30
  -3  -5  11    1.60    3.90
  -3  -5  11   10.40    5.10
  -3  -5  11    6.90    4.10
  -3  -5  11    8.80    3.40
   2   5 -11    2.90    7.50
  -2  -5  11    5.20    4.10
  -2  -5  11    9.40    4.60
  -2  -5  11    5.90    4.40
  -2  -5  11    7.00    3.60
   1   5 -11  175.68   24.50
  -1  -5  11  211.48   22.90
  -1  -5  11  217.58   21.90
  -1  -5  11  186.18   21.40
   0   5 -11   15.60    7.20
   0  -5  11    8.50    5.00
   0  -5  11   10.00    4.50
   0  -5  11    9.30    5.30
   0  -5  11    9.20    5.10
  -1   5 -11   -1.40    5.60
   1  -5  11    0.90    3.10
   1  -5  11    1.20    3.90
   1  -5  11    3.10    4.10
   1  -5  11    4.70    3.80
  -2   5 -11  103.59   15.90
   2  -5  11  144.79   17.20
   2  -5  11  135.89   14.10
   2  -5  11  122.49   16.50
   2  -5  11   89.19   14.00
   3  -5  11    2.60    4.60
   3  -5  11    1.00    3.70
   3  -5  11    8.70    4.50
   3  -5  11    9.50    4.80
   4  -5  11   73.09   13.10
   4  -5  11   71.99   12.40
   4  -5  11   95.39   12.00
   4  -5  11   86.09   10.80
   5  -5  11   18.00    6.10
   5  -5  11   15.80    5.40
   5  -5  11   16.40    4.70
   6  -5  11   92.99   12.90
   6  -5  11   87.99   11.00
   7  -5  11    6.30    3.50
   7  -5  11   -0.20    3.80
   9   4 -11    0.40   10.90
  -8  -4  11  153.28   17.40
   7   4 -11   12.20   12.70
  -7  -4  11    6.90    4.00
  -7  -4  11    7.10    3.10
   6   4 -11   16.00   13.40
  -6  -4  11   41.00    8.10
  -6  -4  11   40.70    6.60
  -5  -4  11  102.19   13.50
   4   4 -11    2.50   10.40
  -4  -4  11    2.10    3.00
  -4  -4  11    2.80    4.40
  -4  -4  11   -1.50    3.50
  -3  -4  11  204.58   22.50
  -3  -4  11  189.68   20.00
  -3  -4  11  172.38   19.70
  -3  -4  11  152.78   20.60
   2   4 -11  188.98   29.60
  -2  -4  11  283.27   25.80
  -2  -4  11  276.27   25.90
  -2  -4  11  239.38   28.00
  -2  -4  11  246.78   26.70
  -2  -4  11  193.58   24.70
   1   4 -11    2.10    6.90
  -1  -4  11    3.70    4.20
  -1  -4  11    2.00    3.00
  -1  -4  11    4.20    4.40
  -1  -4  11    0.60    3.50
   0   4 -11  376.86   41.90
   0  -4  11  443.66   40.60
   0  -4  11  437.96   41.80
   0  -4  11  311.47   41.30
   0  -4  11  359.96   38.90
  -1   4 -11  339.97   37.70
   1  -4  11  323.77   32.00
   1  -4  11  245.78   30.60
   1  -4  11  279.47   33.60
   1  -4  11  345.47   33.80
   1  -4  11  279.97   30.40
   2  -4  11   18.50    5.00
   2  -4  11   13.50    4.90
   2  -4  11   14.50    6.00
   2  -4  11   12.50    6.20
   3  -4  11   49.20   10.90
   3  -4  11   34.20    9.10
   3  -4  11   46.50    7.60
   3  -4  11   44.50    7.70
  -4   4 -11   14.10   18.60
   4  -4  11    5.60    5.60
   4  -4  11    3.00    3.80
   4  -4  11    7.90    4.60
   4  -4  11    4.40    4.20
  -5   4 -11    9.00   20.50
   5  -4  11   21.90    6.30
   5  -4  11   16.50    5.00
   5  -4  11   21.10    5.10
   6  -4  11  199.18   21.50
   6  -4  11  207.48   23.60
   7  -4  11    1.90    4.50
   7  -4  11   -0.70    2.80
  -8  -3  11  139.49   16.20
   7   3 -11   18.70   13.50
  -7  -3  11   -0.10    3.20
  -7  -3  11   -5.10    3.00
   6   3 -11   20.50   14.40
  -6  -3  11   53.29    9.20
  -6  -3  11   53.69    8.20
  -5  -3  11  270.37   29.60
  -5  -3  11  259.47   26.40
  -5  -3  11  234.88   28.00
  -5  -3  11  263.87   27.40
   4   3 -11    3.60   11.70
  -4  -3  11    2.10    3.20
  -4  -3  11    1.50    4.70
  -4  -3  11    0.80    2.70
  -4  -3  11    5.80    3.70
   3   3 -11   18.80   11.30
  -3  -3  11   17.50    5.70
  -3  -3  11   28.90    8.20
  -3  -3  11   24.30    5.50
  -3  -3  11   21.00    5.40
  -3  -3  11   22.60    4.70
  -2  -3  11  326.77   34.30
  -2  -3  11  270.17   29.90
  -2  -3  11  318.57   30.90
  -2  -3  11  288.07   30.50
  -2  -3  11  270.17   31.70
   1   3 -11    4.00    7.90
  -1  -3  11    3.10    4.50
  -1  -3  11    8.80    3.50
  -1  -3  11    7.30    4.30
  -1  -3  11   10.30    5.20
   0  -3  11   28.50    8.50
   0  -3  11   29.40    7.20
   0  -3  11   21.80    5.50
   0  -3  11   25.10    7.20
   0  -3  11   28.90    5.80
   1  -3  11   30.60    6.10
   1  -3  11   19.40    7.50
   1  -3  11   26.20    7.50
   1  -3  11   27.90    6.80
   1  -3  11   24.60    5.60
   1  -3  11   33.60    7.40
   2  -3  11   10.30    5.30
   2  -3  11   14.60    6.40
   2  -3  11    7.40    4.50
   2  -3  11   15.60    4.80
   3  -3  11  140.89   16.80
   3  -3  11  151.58   19.50
   3  -3  11  155.28   19.90
   3  -3  11  149.99   17.10
  -4   3 -11   41.80   20.00
   4  -3  11   52.99   10.50
   4  -3  11   46.90    7.80
   4  -3  11   54.59    8.20
  -5   3 -11   -0.30   18.20
   5  -3  11    6.90    4.00
   5  -3  11   -6.20    4.40
   5  -3  11    3.80    3.70
   6  -3  11   99.29   12.70
   6  -3  11  123.79   14.90
   8   2 -11   20.70   11.40
  -8  -2  11    4.70    3.70
  -8  -2  11    3.30    3.20
  -7  -2  11  125.79   12.80
  -7  -2  11   81.59   12.50
  -7  -2  11   95.89   11.40
   6   2 -11   19.90   13.70
  -6  -2  11    3.10    2.80
  -6  -2  11    3.80    3.70
  -6  -2  11    3.20    3.70
   5   2 -11   30.30   14.20
  -5  -2  11   35.00    5.50
  -5  -2  11   40.30    7.30
  -5  -2  11   27.90    7.50
  -4  -2  11  266.57   29.70
  -4  -2  11  284.87   32.40
  -4  -2  11  301.27   29.10
  -3  -2  11   93.99   13.80
  -3  -2  11   83.69   10.00
  -3  -2  11   85.59   10.90
  -3  -2  11   50.19   11.40
   2   2 -11   -2.80    9.50
  -2  -2  11   -0.30    4.00
  -2  -2  11    1.00    4.50
  -2  -2  11    1.90    2.80
  -2  -2  11   -0.70    3.90
  -1  -2  11  177.88   19.70
  -1  -2  11  212.18   19.30
  -1  -2  11  128.59   21.60
  -1  -2  11  174.48   20.50
   0  -2  11    3.50    4.30
   0  -2  11   -0.50    3.60
   0  -2  11   -2.10    3.90
   0  -2  11    4.80    4.50
   0  -2  11    7.30    4.60
   0  -2  11    3.30    4.50
   1  -2  11   10.50    4.90
   1  -2  11    4.90    4.80
   1  -2  11   15.00    5.80
   1  -2  11    6.70    5.60
   1  -2  11    7.90    4.20
   1  -2  11   11.10    4.50
   2  -2  11   12.90    5.10
   2  -2  11   22.10    6.80
   2  -2  11   17.30    5.00
   2  -2  11   19.60    7.30
   3  -2  11    3.70    3.70
   3  -2  11   -0.10    4.50
   3  -2  11    1.90    3.90
   3  -2  11   -3.80    3.80
  -4   2 -11   57.79   20.40
   4  -2  11   55.59   10.60
   4  -2  11   44.70    7.70
   4  -2  11   51.49    8.30
  -5   2 -11   32.40   19.80
   5  -2  11   30.50    6.40
   5  -2  11   52.29    7.30
  -6   2 -11   -7.40   15.50
   6  -2  11   27.30    6.10
   6  -2  11   12.20    4.10
   8   1 -11   10.90   10.80
   7   1 -11    6.90   12.50
  -7  -1  11   24.10    4.20
  -7  -1  11   24.40    5.50
  -6  -1  11   99.89   13.10
  -6  -1  11  107.19   11.90
   5   1 -11    8.90   12.30
  -5  -1  11    2.90    2.70
  -5  -1  11    1.40    3.70
  -4  -1  11  279.37   25.10
  -4  -1  11  199.18   26.10
  -4  -1  11  233.28   27.60
  -3  -1  11   62.69   11.40
  -3  -1  11   79.69   10.40
  -3  -1  11   69.49   12.40
  -3  -1  11   70.49    9.50
  -2  -1  11   -0.40    4.40
  -2  -1  11    0.40    4.00
  -2  -1  11    0.00    3.60
  -2  -1  11    5.20    3.50
  -1  -1  11  261.07   28.70
  -1  -1  11  291.37   28.60
  -1  -1  11  272.47   31.90
   0  -1  11    6.30    4.10
   0  -1  11    5.40    4.20
   0  -1  11    5.30    5.00
   0  -1  11    9.10    4.10
   0  -1  11    1.70    4.00
   1  -1  11    4.40    4.30
   1  -1  11    3.30    4.10
   1  -1  11    8.50    5.10
   1  -1  11   -3.30    4.80
   1  -1  11    9.90    5.30
   1  -1  11    7.20    4.10
   2  -1  11  196.78   23.50
   2  -1  11  200.88   21.10
   2  -1  11  180.18   21.40
   2  -1  11  186.98   20.80
  -3   1 -11   33.10   20.50
   3  -1  11   46.60    8.50
   3  -1  11   64.79   11.80
   3  -1  11   66.29    8.70
  -4   1 -11   30.70   17.70
   4  -1  11    3.50    4.20
   4  -1  11   18.10    6.00
   4  -1  11   19.10    4.70
   5  -1  11   90.49   12.10
   5  -1  11  114.39   14.10
   7   0 -11    7.70   11.10
  -7   0  11    7.40    2.90
   6   0 -11   -9.70   11.10
  -6   0  11    2.20    2.80
  -6   0  11    3.30    3.50
  -5   0  11   97.69   11.30
  -5   0  11   88.89   13.50
  -4   0  11    4.20    3.20
  -4   0  11    1.30    4.20
  -3   0  11   23.00    7.30
  -3   0  11   21.60    4.70
  -3   0  11   15.70    5.40
  -3   0  11   12.10    5.10
  -2   0  11    9.00    3.80
  -2   0  11    4.60    5.20
  -2   0  11    9.10    4.30
  -2   0  11    5.70    4.10
  -1   0  11   16.60    5.40
  -1   0  11   28.80    6.00
  -1   0  11   16.00    5.30
  -1   0  11   26.70    8.20
   0   0  11   33.30    6.70
   0   0  11   16.40    4.90
   0   0  11   25.90    5.70
   0   0  11   12.10    4.90
   1   0  11   43.50    8.60
   1   0  11   46.70    9.50
   1   0  11   37.90    6.80
   1   0  11   41.80    7.40
   1   0  11   29.20    6.70
   2   0  11   26.50    6.70
   2   0  11   25.80    5.90
   2   0  11   38.90    8.70
   2   0  11   39.30    6.70
  -3   0 -11   27.80   18.60
   3   0  11   28.30    7.30
   3   0  11   17.50    5.10
   3   0  11   21.50    4.80
  -4   0 -11   -0.70   15.80
   4   0  11   13.90    5.30
   4   0  11    7.50    3.90
   4   0  11    5.80    4.00
  -6   1  11   11.10    4.30
  -6   1  11   20.60    3.90
  -5   1  11  230.78   21.80
  -5   1  11  173.38   22.20
  -5   1  11  224.68   26.40
  -4   1  11    8.30    4.00
  -4   1  11    4.50    3.50
  -4   1  11    1.10    6.40
  -3   1  11   13.30    4.20
  -3   1  11    8.60    4.60
  -3   1  11    7.30    4.30
  -2   1  11  192.98   20.70
  -2   1  11  189.18   21.30
  -1   1  11    3.10    3.50
  -1   1  11    3.30    3.30
  -1   1  11    5.10    4.40
   0   1  11   11.40    4.40
   0   1  11   11.30    5.40
   0   1  11    5.60    3.90
   0   1  11    8.00    3.80
   1   1  11   95.59   14.60
   1   1  11  103.59   13.20
   1   1  11  118.69   12.90
   1   1  11   96.39   12.50
  -2  -1 -11   11.60   17.30
   2   1  11   29.20    6.10
   2   1  11   22.90    5.30
   2   1  11   43.70    8.30
   2   1  11   21.20    5.00
  -3  -1 -11   24.10   16.60
   3   1  11   30.30    5.70
  -5   2  11   52.49    7.40
  -4   2  11    6.30    3.10
  -4   2  11    2.70    3.20
  -3   2  11    5.80    3.20
  -3   2  11    5.70    3.40
  -2   2  11   23.00    5.60
  -2   2  11   35.20    6.50
  -2   2  11   49.90    6.90
  -1   2  11   47.30    7.10
  -1   2  11   41.90    7.10
  -1   2  11   24.90    5.70
   0   2  11    8.50    3.90
   0   2  11   10.20    4.10
  -1  -2 -11   -0.50   15.80
   1   2  11    8.00    3.80
   1   2  11   17.00    4.50
  -3 -12  12   25.80    5.20
  -2 -12  12   25.60    5.50
   1  12 -12  306.07   30.40
  -1 -12  12  287.77   30.70
   0  12 -12    1.10    2.80
   0 -12  12   -2.80    2.80
   0 -12  12   -3.00    7.40
  -1  12 -12   25.70    5.20
   1 -12  12   25.70    5.90
  -2  12 -12   67.29    8.80
   2 -12  12   69.39    9.70
   4  11 -12  128.49   16.80
  -4 -11  12  139.29   15.90
  -4 -11  12  151.88   15.10
   3  11 -12    6.70    4.00
   3  11 -12    0.80    5.40
  -3 -11  12   -1.90    3.20
  -3 -11  12    5.90    3.00
   2  11 -12    3.40    3.60
  -2 -11  12    5.60    3.30
   1  11 -12   96.29   12.10
  -1 -11  12   98.59   12.20
   0  11 -12    0.10    2.80
   0 -11  12    0.90    2.70
   0 -11  12    1.30    4.00
  -1  11 -12   95.79   11.40
   1 -11  12  100.79   12.80
   1 -11  12   87.29   11.60
  -2  11 -12  112.89   13.60
   2 -11  12  122.99   14.70
  -3  11 -12   29.60    5.50
   3 -11  12   33.10    5.00
   3 -11  12   17.10    5.10
  -4  11 -12   17.20    4.60
   4 -11  12   18.30    4.60
   5  10 -12    6.40    5.80
   5  10 -12    8.20    5.00
  -5 -10  12   14.00    3.10
  -5 -10  12   16.20    4.40
   4  10 -12   33.60    7.70
   4  10 -12   40.00    7.90
  -4 -10  12   39.20    6.90
  -4 -10  12   40.40    6.10
   3  10 -12   86.49   12.30
  -3 -10  12   85.09   10.70
  -3 -10  12  100.99   12.00
   2  10 -12  122.09   15.00
  -2 -10  12  123.69   15.00
   1  10 -12    2.80    3.90
  -1 -10  12    4.90    3.40
   0  10 -12   28.60    6.20
   0 -10  12   33.20    6.90
   0 -10  12   24.60    6.70
  -1  10 -12   45.20    8.00
   1 -10  12   39.70    7.60
   1 -10  12   41.30    8.20
  -2  10 -12    5.10    3.60
   2 -10  12    8.20    4.20
   2 -10  12    5.40    4.40
  -3  10 -12   91.59   12.30
   3 -10  12   92.79   13.00
   3 -10  12  122.89   12.30
  -4  10 -12    0.50    3.30
   4 -10  12    1.60    4.50
   4 -10  12    0.00    2.70
   4 -10  12   -8.00    3.80
   5 -10  12   -1.00    2.60
   6   9 -12   24.00    7.40
   6   9 -12   37.50    8.00
  -6  -9  12   40.20    6.60
  -6  -9  12   41.80    5.80
  -6  -9  12   43.80    5.90
   5   9 -12   89.09   12.20
   5   9 -12   60.99   11.80
  -5  -9  12   80.89    9.80
  -5  -9  12   85.19    9.70
  -5  -9  12   95.49   10.90
   4   9 -12    6.80    4.90
   4   9 -12    2.70    7.60
  -4  -9  12    1.10    2.70
  -4  -9  12    1.00    3.10
   3   9 -12  265.67   29.90
  -3  -9  12  301.07   29.60
  -3  -9  12  253.57   27.90
  -3  -9  12  267.87   27.80
   2   9 -12  290.67   31.30
  -2  -9  12  295.77   31.10
  -2  -9  12  281.87   29.80
   1   9 -12   29.70    7.40
  -1  -9  12   33.90    7.30
   0   9 -12  238.98   28.10
   0  -9  12  289.27   28.70
   0  -9  12  254.77   28.60
  -1   9 -12   68.09   10.00
   1  -9  12   67.59   10.90
   1  -9  12   72.49   10.20
  -2   9 -12    2.40    3.60
   2  -9  12    1.50    4.10
   2  -9  12    7.60    3.60
   2  -9  12    3.50    3.80
  -3   9 -12   52.99    9.00
   3  -9  12   63.19    9.50
   3  -9  12   41.80    8.20
   3  -9  12   78.19    8.80
  -4   9 -12   13.00    4.80
   4  -9  12   13.70    4.60
   4  -9  12   21.90    5.00
   4  -9  12   12.60    4.80
  -5   9 -12    9.30    3.80
  -5   9 -12    6.00    4.50
   5  -9  12    3.70    4.00
   5  -9  12    3.50    3.00
  -7  -8  12   13.00    3.30
   6   8 -12   10.00    6.50
   6   8 -12    2.30    4.90
  -6  -8  12   -1.80    2.30
  -6  -8  12    5.70    2.50
  -6  -8  12    4.70    3.80
   5   8 -12   10.90    6.50
  -5  -8  12   13.50    4.60
  -5  -8  12   14.10    3.70
  -5  -8  12   11.90    3.20
   4   8 -12   90.69   13.50
  -4  -8  12   90.79   11.50
  -4  -8  12   74.79    9.80
   3   8 -12    3.40    5.10
  -3  -8  12    8.40    3.50
  -3  -8  12    6.60    3.80
  -3  -8  12    1.50    3.20
  -3  -8  12    2.00    3.20
   2   8 -12   10.70    5.90
  -2  -8  12   15.20    5.20
  -2  -8  12    9.80    4.30
  -2  -8  12   13.70    4.20
   1   8 -12   61.19   11.30
  -1  -8  12   74.79    9.10
  -1  -8  12   57.69    9.40
   0   8 -12    4.10    4.40
   0  -8  12    5.50    4.60
   0  -8  12    9.60    4.30
   0  -8  12   14.30    3.90
  -1   8 -12    0.00    4.20
   1  -8  12   -1.00    3.70
   1  -8  12    1.20    3.20
   1  -8  12   -0.70    3.20
  -2   8 -12  229.08   26.40
   2  -8  12  227.78   27.00
   2  -8  12  276.97   25.40
   2  -8  12  230.28   27.00
  -3   8 -12   20.60    6.00
   3  -8  12   27.00    5.80
   3  -8  12   23.30   10.20
   3  -8  12   17.00    5.60
   3  -8  12   20.20    5.70
  -4   8 -12    2.80    4.10
   4  -8  12    2.40    3.10
   4  -8  12    3.10    4.30
   4  -8  12   -3.40    4.20
   5  -8  12   69.29    9.80
   5  -8  12   79.89   10.30
   5  -8  12   49.50    8.30
   6  -8  12   33.30    6.60
   7   7 -12   73.49   12.70
  -7  -7  12   69.09    9.60
  -7  -7  12   85.79    9.30
   6   7 -12   54.69   11.70
  -6  -7  12   51.09    6.70
  -6  -7  12   40.00    7.80
  -6  -7  12   51.39    7.60
   5   7 -12    5.30    7.50
  -5  -7  12   -2.60    2.20
  -5  -7  12    2.30    2.20
  -5  -7  12   -1.10    3.30
   4   7 -12  592.44   62.19
  -4  -7  12  664.43   60.89
  -4  -7  12  563.24   58.69
  -4  -7  12  562.64   59.29
   3   7 -12   83.29   14.70
  -3  -7  12   87.49   10.90
  -3  -7  12   66.99   10.10
  -3  -7  12   98.39   12.00
  -3  -7  12   81.59   10.80
   2   7 -12    4.40    5.00
  -2  -7  12   -1.60    3.20
  -2  -7  12   -0.60    3.30
  -2  -7  12   -0.30    3.70
  -2  -7  12    1.10    2.90
   1   7 -12  403.66   42.00
  -1  -7  12  401.26   39.60
  -1  -7  12  368.26   41.10
   0   7 -12   48.10    9.30
   0  -7  12   34.90    7.70
   0  -7  12   35.20    6.40
   0  -7  12   34.70    7.90
  -1   7 -12    3.10    4.70
   1  -7  12   -0.10    3.30
   1  -7  12   -0.60    3.70
   1  -7  12    1.60    3.80
  -2   7 -12  120.39   16.40
   2  -7  12  170.08   18.00
   2  -7  12  135.19   17.40
   2  -7  12  131.49   17.40
   2  -7  12  144.49   16.00
  -3   7 -12    7.40    4.40
   3  -7  12   -4.40    3.90
   3  -7  12    1.00    4.30
   3  -7  12    2.80    3.80
   3  -7  12    1.40    3.10
   4  -7  12   83.69   12.10
   4  -7  12   76.79   10.40
   4  -7  12   98.49   11.60
   5  -7  12  226.88   21.60
   5  -7  12  177.28   20.80
   5  -7  12  204.38   22.80
   6  -7  12    7.30    3.20
   7   6 -12    7.50    7.10
  -7  -6  12   14.40    3.40
  -7  -6  12    5.60    3.60
   6   6 -12   -2.50    7.80
  -6  -6  12    8.40    3.00
  -6  -6  12    7.30    3.30
   5   6 -12   39.10   11.60
  -5  -6  12   42.60    6.30
  -5  -6  12   38.40    8.00
  -5  -6  12   33.40    6.70
   4   6 -12   69.29   14.70
  -4  -6  12   86.99   11.60
  -4  -6  12   76.19   10.80
  -4  -6  12   77.49   10.00
   3   6 -12   19.70    8.50
  -3  -6  12   23.70    5.10
  -3  -6  12   23.10    6.20
  -3  -6  12   17.20    4.50
  -3  -6  12   18.50    5.50
   2   6 -12   26.00    8.70
  -2  -6  12   25.90    6.90
  -2  -6  12   21.60    6.20
  -2  -6  12   38.80    6.30
  -2  -6  12   26.90    5.50
   1   6 -12  123.39   18.10
  -1  -6  12  125.49   17.20
  -1  -6  12  162.68   16.30
   0   6 -12   12.80    6.40
   0  -6  12   11.00    5.40
   0  -6  12    5.20    8.60
   0  -6  12    8.40    4.50
   0  -6  12   12.90    4.30
  -1   6 -12   65.69   11.40
   1  -6  12   69.49    9.90
   1  -6  12   63.79   11.00
   1  -6  12   76.09   11.50
  -2   6 -12   54.79    9.60
   2  -6  12   50.39    8.20
   2  -6  12   60.39   10.70
   2  -6  12   64.89    9.40
   2  -6  12   66.69   10.60
   3  -6  12   -0.40    3.40
   3  -6  12    0.20    4.20
   3  -6  12    2.50    3.40
   3  -6  12   -2.10    4.10
   4  -6  12    7.10    3.60
   4  -6  12    9.10    4.60
   4  -6  12   12.20    4.70
   5  -6  12   35.20    5.50
   5  -6  12   19.30    5.70
   5  -6  12   36.60    7.10
   6  -6  12    3.50    3.20
  -8  -5  12  161.88   17.60
   7   5 -12   -1.00    8.70
  -7  -5  12    7.60    3.40
  -7  -5  12    4.00    3.20
   6   5 -12    9.40    9.40
  -6  -5  12    2.30    3.00
  -6  -5  12    1.20    3.30
   5   5 -12  283.07   38.40
  -5  -5  12  345.67   34.10
  -5  -5  12  322.57   34.90
  -5  -5  12  360.26   36.10
   4   5 -12   -3.20    8.30
  -4  -5  12    5.50    4.10
  -4  -5  12    8.20    5.00
  -4  -5  12    2.60    3.10
   3   5 -12   38.80   11.00
  -3  -5  12   47.70    9.60
  -3  -5  12   43.10    7.20
  -3  -5  12   46.90    7.20
  -3  -5  12   42.90    8.30
   2   5 -12  267.37   34.80
  -2  -5  12  338.27   32.20
  -2  -5  12  300.57   31.90
  -2  -5  12  271.87   32.60
  -2  -5  12  373.06   35.40
   1   5 -12   11.00    6.30
  -1  -5  12   -0.30    4.20
  -1  -5  12    1.00    3.30
  -1  -5  12    8.60    4.10
   0   5 -12   68.79   12.20
   0  -5  12   81.09   10.10
   0  -5  12   46.50    9.60
   0  -5  12   73.59   11.50
  -1   5 -12  200.38   25.10
   1  -5  12  227.68   25.60
   1  -5  12  221.78   26.20
   1  -5  12  227.48   23.80
   2  -5  12    4.50    3.90
   2  -5  12   -0.90    3.60
   2  -5  12    1.30    4.20
   2  -5  12   -0.80    3.50
   3  -5  12  174.08   20.60
   3  -5  12  140.39   18.00
   3  -5  12  196.18   18.80
   3  -5  12  161.98   20.80
   4  -5  12  191.98   19.10
   4  -5  12  169.18   20.60
   4  -5  12  179.58   22.50
   4  -5  12  159.18   18.60
   5  -5  12    0.50    2.90
   5  -5  12   11.90    4.10
   5  -5  12   -1.60    3.10
   6  -5  12   16.90    4.80
   7   4 -12   14.70    8.80
  -7  -4  12    1.90    3.00
  -7  -4  12   -3.10    2.80
   6   4 -12   13.50   10.00
  -6  -4  12    7.90    3.70
  -6  -4  12    7.50    3.60
  -5  -4  12  241.88   24.50
  -5  -4  12  242.08   26.60
  -5  -4  12  206.78   25.00
   4   4 -12   -0.80    8.60
  -4  -4  12   -2.10    2.90
  -4  -4  12   -0.60    4.10
  -4  -4  12   -0.30    2.90
   3   4 -12    5.50    8.40
  -3  -4  12   10.30    5.70
  -3  -4  12    7.00    4.20
  -3  -4  12   11.40    3.70
  -3  -4  12    8.50    4.20
   2   4 -12  182.38   25.20
  -2  -4  12  166.38   22.30
  -2  -4  12  211.58   21.80
  -2  -4  12  251.27   25.70
   1   4 -12   34.50    9.70
  -1  -4  12   47.90    7.20
  -1  -4  12   36.80    6.90
  -1  -4  12   35.90    7.90
  -1  -4  12   44.20   10.50
   0  -4  12   16.80    5.50
   0  -4  12   16.30    6.70
   0  -4  12   18.30    5.00
   1  -4  12  233.88   26.70
   1  -4  12  235.08   24.80
   1  -4  12  228.28   27.80
   2  -4  12    1.10    4.00
   2  -4  12    0.10    3.40
   2  -4  12   -2.10    3.70
   2  -4  12   -1.80    3.80
  -3   4 -12    2.60   18.10
   3  -4  12    2.30    3.50
   3  -4  12   -2.00    3.90
   3  -4  12    2.80    4.90
   3  -4  12    2.80    4.00
   4  -4  12    2.00    3.40
   4  -4  12    7.60    3.60
   4  -4  12    4.50    3.40
  -5   4 -12    2.70   35.10
   5  -4  12    2.70    4.60
   5  -4  12   13.30    3.70
   5  -4  12   23.60    5.70
   7   3 -12    4.30    9.30
  -7  -3  12   19.10    4.00
  -7  -3  12   11.10    4.10
   6   3 -12   41.40   13.40
  -6  -3  12   84.69   10.10
   5   3 -12    0.90    9.30
  -5  -3  12    1.10    3.20
  -5  -3  12    6.20    3.20
   4   3 -12   60.39   14.20
  -4  -3  12   68.79    9.20
  -4  -3  12   95.99   13.10
  -4  -3  12   72.39   10.60
   3   3 -12   14.60    9.80
  -3  -3  12   25.40    5.10
  -3  -3  12   34.90    6.10
  -3  -3  12   40.80    9.50
  -3  -3  12   32.90    7.10
   2   3 -12    1.50    8.00
  -2  -3  12    2.00    2.90
  -2  -3  12    3.90    4.00
  -2  -3  12    6.10    5.50
  -2  -3  12   -0.10    3.90
  -1  -3  12  333.17   38.80
  -1  -3  12  374.26   38.00
  -1  -3  12  373.96   38.30
  -1  -3  12  428.66   42.50
   0  -3  12  112.79   12.90
   0  -3  12  129.19   16.00
   0  -3  12   80.59   12.60
   0  -3  12   78.39   13.00
   1  -3  12    7.90    4.90
   1  -3  12   11.00    4.30
   1  -3  12    9.20    5.70
   1  -3  12    6.10    4.30
   1  -3  12    6.30    4.40
   2  -3  12  162.78   19.70
   2  -3  12  161.48   16.80
   2  -3  12  123.69   16.20
   2  -3  12  148.59   18.70
  -3   3 -12    9.90   18.70
   3  -3  12   50.29    9.20
   3  -3  12   39.20    7.00
   3  -3  12   56.59    7.80
  -4   3 -12    7.30   16.90
   4  -3  12    3.60    3.40
   4  -3  12    2.50    3.50
   4  -3  12    2.00    3.70
  -5   3 -12   -9.50   30.70
   5  -3  12   31.00    6.40
   5  -3  12   20.50    6.90
   7   2 -12    2.30    9.20
  -6  -2  12  207.08   22.30
  -6  -2  12  204.78   21.20
   5   2 -12    0.40    9.20
  -5  -2  12    3.40    2.80
   4   2 -12    3.90    9.80
  -4  -2  12   25.10    7.60
  -4  -2  12   25.80    4.60
  -4  -2  12   27.80    6.10
  -3  -2  12  140.49   15.90
  -3  -2  12  135.49   15.10
  -3  -2  12  125.49   16.40
  -3  -2  12  153.18   18.70
  -2  -2  12    6.40    4.00
  -2  -2  12    3.90    3.00
  -2  -2  12    8.00    5.70
  -2  -2  12    5.10    4.00
  -1  -2  12  227.08   23.30
  -1  -2  12  183.68   23.90
  -1  -2  12  222.88   23.40
  -1  -2  12  248.08   27.00
   0  -2  12  132.89   17.20
   0  -2  12  169.68   20.10
   0  -2  12  129.89   17.10
   0  -2  12  159.38   16.90
   1  -2  12    1.40    4.20
   1  -2  12    3.00    3.50
   1  -2  12    3.10    4.10
   1  -2  12    3.10    3.40
   1  -2  12    0.70    3.80
   2  -2  12   72.89   11.40
   2  -2  12   67.59   10.00
  -3   2 -12   19.40   17.10
   3  -2  12   20.70    6.10
   3  -2  12   25.70    5.00
  -4   2 -12    2.90   16.10
   4  -2  12   -1.80    3.20
   4  -2  12   -0.80    3.70
   4  -2  12    4.70    3.50
  -6  -1  12    1.20    2.70
  -6  -1  12    2.70    3.00
   5   1 -12   16.20   11.50
  -5  -1  12   44.30    7.50
  -5  -1  12   52.69    6.50
  -4  -1  12    7.90    2.90
  -4  -1  12    3.20    3.80
  -3  -1  12    2.20    5.00
  -3  -1  12    4.80    2.80
  -3  -1  12    2.60    4.70
  -3  -1  12    3.40    3.80
  -2  -1  12  170.98   19.90
  -2  -1  12  137.99   17.70
  -2  -1  12  174.48   17.00
  -2  -1  12  137.39   17.10
  -1  -1  12   14.90    6.50
  -1  -1  12   11.90    4.40
  -1  -1  12   12.80    4.40
  -1  -1  12    7.80    4.00
   0  -1  12    4.90    4.70
   0  -1  12   12.40    4.20
   0  -1  12    6.10    3.40
   1  -1  12   28.00    5.40
   1  -1  12   30.30    6.20
   1  -1  12   38.50    6.80
  -2   1 -12    5.60   16.10
   2  -1  12    0.80    4.10
   2  -1  12    4.60    3.50
   2  -1  12   -0.90    3.30
  -3   1 -12   15.60   14.50
   3  -1  12   -3.60    3.30
   3  -1  12   -5.50    3.30
   3  -1  12    2.20    3.90
  -5   0  12   37.80    6.60
  -5   0  12   46.60    6.30
  -4   0  12   41.90    6.00
  -4   0  12   36.80    7.00
  -3   0  12   33.10    6.80
  -3   0  12   43.00    6.10
  -2   0  12  151.48   16.70
  -1   0  12    8.30    4.40
  -1   0  12    8.20    3.60
  -1   0  12    7.50    3.90
   0   0  12    8.00    3.70
   0   0  12   11.10    4.10
   1   0  12  162.68   17.50
   1   0  12  154.88   17.70
  -2   0 -12   -6.40   14.60
   2   0  12    1.80    3.10
  -3   1  12    9.10    4.30
  -3   1  12    4.90    3.10
  -2   1  12    8.80    3.70
  -2   1  12   17.40    4.20
  -1   1  12    9.40    3.90
  -1   1  12    5.20    3.30
  -3 -11  13   29.20    6.20
   2  11 -13   46.10    7.20
  -2 -11  13   41.60    6.50
   1  11 -13   12.30    4.10
  -1 -11  13   14.30    4.10
  -1 -11  13   18.40    3.70
   0  11 -13  147.19   15.70
   0 -11  13  124.69   15.70
   0 -11  13  157.78   15.30
  -1  11 -13  146.59   17.40
   1 -11  13  176.38   17.00
  -2  11 -13   14.20    4.10
   2 -11  13   21.50    4.60
   4  10 -13    7.20    4.50
  -4 -10  13    6.70    3.20
   3  10 -13    8.50    4.40
  -3 -10  13   10.40    3.80
  -3 -10  13    8.70    4.10
   2  10 -13   81.19   10.70
  -2 -10  13   75.19    9.50
  -2 -10  13   81.19   10.20
   1  10 -13    3.40    3.20
  -1 -10  13    1.40    2.60
  -1 -10  13    1.20    2.50
   0  10 -13  141.29   17.10
   0 -10  13  175.78   16.50
   0 -10  13  143.29   17.20
  -1  10 -13  155.18   17.40
   1 -10  13  146.19   17.80
   1 -10  13  141.49   17.80
   1 -10  13  190.18   17.00
  -2  10 -13    3.90    3.20
   2 -10  13    1.30    3.00
   2 -10  13    3.70    3.40
  -3  10 -13   65.29    9.10
   3 -10  13   65.49    9.00
   5   9 -13   48.40    8.70
  -5  -9  13   49.70    7.00
   4   9 -13   92.39   12.00
  -4  -9  13   83.69   10.70
  -4  -9  13   79.69   10.20
   3   9 -13   57.99    9.20
  -3  -9  13   51.89    7.90
  -3  -9  13   50.39    8.10
  -3  -9  13   56.49    8.00
   2   9 -13   38.70    7.90
  -2  -9  13   44.00    6.80
  -2  -9  13   40.40    6.20
  -2  -9  13   10.00    8.80
   1   9 -13  117.69   14.80
  -1  -9  13  123.79   13.70
  -1  -9  13  124.39   14.70
   0   9 -13   26.00    5.80
   0  -9  13   22.60    4.90
   0  -9  13   21.80    5.60
  -1   9 -13   23.50    5.50
   1  -9  13   22.70    5.80
   1  -9  13   31.20    5.10
   1  -9  13   19.60    5.40
  -2   9 -13   78.29   10.20
   2  -9  13   70.79   10.90
   2  -9  13   79.89   10.50
  -3   9 -13   -4.60    3.50
   3  -9  13   -6.20    3.20
   3  -9  13    1.20    2.80
   4  -9  13   -0.30    2.70
  -6  -8  13  129.39   15.90
   5   8 -13   -2.90    4.80
  -5  -8  13   -0.20    3.10
  -5  -8  13    1.40    2.60
  -5  -8  13   -0.80    3.10
   4   8 -13  114.69   15.30
  -4  -8  13  105.39   13.00
  -4  -8  13  114.99   13.60
   3   8 -13  114.89   14.40
  -3  -8  13   94.39   12.50
  -3  -8  13  103.79   12.20
  -3  -8  13  108.69   13.20
   2   8 -13   -0.50    4.20
  -2  -8  13    4.60    3.80
  -2  -8  13    1.30    2.80
  -2  -8  13    6.50    3.20
   1   8 -13  443.46   48.90
  -1  -8  13  501.85   47.70
  -1  -8  13  484.15   49.30
   0   8 -13  141.99   18.30
   0  -8  13  164.58   18.90
   0  -8  13  170.08   17.40
  -1   8 -13    2.80    3.70
   1  -8  13   -0.50    3.60
   1  -8  13    2.10    3.60
   1  -8  13    3.00    3.10
  -2   8 -13  105.29   13.70
   2  -8  13  113.09   14.70
   2  -8  13  132.39   13.50
   2  -8  13  109.99   14.30
  -3   8 -13   28.10    6.70
   3  -8  13   50.29    7.00
   3  -8  13   39.20    7.10
   4  -8  13   -4.60    5.90
   4  -8  13    2.40    2.70
   6   7 -13   71.59   11.80
  -6  -7  13   69.59    8.70
  -6  -7  13   76.29    9.30
   5   7 -13   49.99   10.90
  -5  -7  13   65.29    8.50
  -5  -7  13   62.79    8.90
  -5  -7  13   55.39    7.70
   4   7 -13   12.30    5.80
  -4  -7  13   -0.70    3.40
  -4  -7  13   -1.70    2.80
  -4  -7  13    3.60    3.60
   3   7 -13   43.20    8.80
  -3  -7  13   35.40    5.60
  -3  -7  13   29.90    6.10
  -3  -7  13   45.70    8.40
  -3  -7  13   33.20    6.00
   2   7 -13   75.59   12.30
  -2  -7  13   65.49    9.70
  -2  -7  13   85.89   11.30
   1   7 -13   26.30    7.00
  -1  -7  13    8.20    5.30
  -1  -7  13   25.90    6.50
  -1  -7  13   29.20    5.30
   0   7 -13    8.40    4.90
   0  -7  13    8.40    3.80
   0  -7  13    6.50    4.40
  -1   7 -13   32.80    6.80
   1  -7  13   22.20    6.20
   1  -7  13   31.00    7.50
   1  -7  13   41.60    6.10
  -2   7 -13   57.69    9.50
   2  -7  13   71.99    8.90
   2  -7  13   54.79    9.40
   2  -7  13   62.39   10.30
   3  -7  13   13.90    5.90
   3  -7  13   25.60    4.50
   3  -7  13   12.20    4.70
   4  -7  13   93.59   10.60
   4  -7  13   80.69   11.10
   6   6 -13    2.10    5.70
  -6  -6  13   -1.70    2.60
  -6  -6  13    5.70    2.70
   5   6 -13  173.58   21.10
  -5  -6  13  160.58   17.50
  -5  -6  13  152.58   18.80
  -5  -6  13  175.88   18.20
   4   6 -13   25.40    8.50
  -4  -6  13   33.90    6.40
  -4  -6  13   35.20    5.60
  -4  -6  13   38.00    7.60
   3   6 -13   18.80    7.30
  -3  -6  13   20.30    5.10
  -3  -6  13   14.50    4.40
  -3  -6  13   32.40    7.20
   2   6 -13  375.76   41.60
  -2  -6  13  402.86   39.40
   1   6 -13    3.10    5.30
  -1  -6  13    2.20    3.80
  -1  -6  13   10.00    3.80
  -1  -6  13   13.10    5.20
   0   6 -13   -2.60    5.00
   0  -6  13    4.70    4.30
   0  -6  13    7.00    3.70
  -1   6 -13  278.87   31.70
   1  -6  13  222.18   27.60
   1  -6  13  259.67   29.10
   1  -6  13  280.37   26.70
   2  -6  13    3.50    3.40
   2  -6  13    1.10    3.00
   2  -6  13    4.60    3.90
   3  -6  13   38.60    8.00
   3  -6  13   20.10    5.00
   3  -6  13   32.00    6.60
   3  -6  13   44.80    6.60
   4  -6  13   93.59   12.10
   6   5 -13   17.80    7.30
  -6  -5  13    7.80    3.60
  -6  -5  13   21.10    3.80
   5   5 -13   52.39   11.10
  -5  -5  13   59.89    9.80
  -5  -5  13   60.59    7.50
  -5  -5  13   47.50    8.10
   4   5 -13    9.50    6.70
  -4  -5  13    7.40    3.50
  -4  -5  13    7.30    4.70
   3   5 -13    5.20    6.30
  -3  -5  13   -0.80    3.90
  -3  -5  13   -4.60    3.60
  -3  -5  13    0.30    2.90
   2   5 -13  134.29   17.30
  -2  -5  13  145.49   14.70
  -2  -5  13  107.09   14.80
   1   5 -13  -11.10    5.00
  -1  -5  13    2.00    3.70
  -1  -5  13    5.00    3.60
  -1  -5  13   -0.90    3.30
   0  -5  13    1.70    3.80
   0  -5  13    2.90    3.50
   1  -5  13  116.49   12.70
   1  -5  13  115.59   14.80
   1  -5  13   91.09   13.70
   2  -5  13   40.40    8.80
   2  -5  13   25.90    6.50
   2  -5  13   38.70    5.90
   3  -5  13    0.00    3.40
   3  -5  13    4.90    4.40
   3  -5  13    3.50    3.10
   3  -5  13    3.80    3.20
   4  -5  13  106.49   13.30
   6   4 -13  191.98   22.50
  -6  -4  13  172.68   19.30
   5   4 -13    2.50    6.90
  -5  -4  13   -0.40    2.70
   4   4 -13   12.40    7.80
  -4  -4  13   17.10    6.10
  -4  -4  13   10.90    4.20
   3   4 -13  119.99   18.80
  -3  -4  13  181.88   19.10
  -3  -4  13  161.28   16.30
  -3  -4  13  113.69   16.20
   2   4 -13   20.40    7.90
  -2  -4  13   35.60    8.70
  -2  -4  13   29.00    5.40
  -2  -4  13   24.80    5.70
  -1  -4  13   36.60    7.30
  -1  -4  13   52.29    7.80
  -1  -4  13   65.79   10.10
   0  -4  13  142.49   18.80
   0  -4  13  153.48   16.60
   1  -4  13    6.60    3.60
   1  -4  13    4.70    4.30
   2  -4  13  180.08   20.50
   2  -4  13  185.68   18.30
   2  -4  13  148.79   19.50
   3  -4  13   50.79    8.10
   3  -4  13   44.90    7.50
   5   3 -13    1.70    7.30
  -5  -3  13    2.70    2.90
   4   3 -13   42.90   10.80
  -4  -3  13   58.29    9.90
  -4  -3  13   58.89    8.70
  -3  -3  13  197.48   21.20
  -3  -3  13  234.98   23.90
  -3  -3  13  177.78   21.70
  -2  -3  13   16.40    4.80
  -2  -3  13   14.20    4.90
  -2  -3  13   13.00    4.60
  -2  -3  13   26.10    7.20
  -1  -3  13    4.80    3.50
  -1  -3  13    3.70    4.30
  -1  -3  13    2.90    3.30
   0  -3  13  151.28   19.20
   0  -3  13  155.68   16.90
   1  -3  13    2.40    4.20
   1  -3  13   -1.60    3.20
  -2   3 -13   23.50   17.30
   2  -3  13   38.80    8.40
   2  -3  13   37.60    6.10
  -4  -2  13   16.60    4.30
  -3  -2  13    1.70    3.20
  -3  -2  13    1.20    4.60
  -3  -2  13    2.50    3.00
  -2  -2  13   55.79    7.40
  -2  -2  13   36.10    6.90
  -2  -2  13   48.50    7.60
  -2  -2  13   52.89    9.20
  -1  -2  13   30.20    7.50
  -1  -2  13   21.80    5.20
   0  -2  13    2.80    3.30
   0  -2  13   -1.40    3.00
   1  -2  13  166.68   18.00
  -2  -1  13   14.20    3.70
   2   9 -14   -0.10    3.50
  -2  -9  14    5.10    3.10
   1   9 -14   16.90    4.80
  -1  -9  14   19.50    3.80
  -1  -9  14   14.00    4.50
   0   9 -14   83.89   11.70
   0  -9  14  101.79   11.20
   0  -9  14  111.49   12.50
   1  -9  14    0.90    2.60
   3   8 -14   26.20    6.70
  -3  -8  14   42.90    6.70
   2   8 -14  134.49   14.70
  -2  -8  14  108.79   13.60
   1   8 -14   -1.10    3.80
  -1  -8  14    3.60    2.80
  -1  -8  14    0.50    3.10
   0   8 -14    8.90    4.00
   0  -8  14    6.50    3.00
   0  -8  14    5.90    3.90
   1  -8  14   54.59    7.10
   1  -8  14   49.20    8.30
   4   7 -14   69.59   12.70
   3   7 -14   -2.70    4.20
  -3  -7  14    0.10    3.40
  -3  -7  14    1.10    2.80
   2   7 -14  174.58   19.80
   1   7 -14   59.19   10.50
  -1  -7  14   77.19    9.30
  -1  -7  14   93.99   11.10
   0   7 -14   10.10    4.90
   0  -7  14    8.00    3.10
   0  -7  14    8.10    3.90
   1  -7  14  342.27   32.90
   1  -7  14  312.47   34.50
   2  -7  14   16.10    3.90
   3   6 -14   58.59    9.20
  -3  -6  14   42.10    6.80
   2   6 -14   20.30    6.00
  -2  -6  14   14.60    4.20
  -2  -6  14   37.80    7.10
  -2  -6  14   18.90    4.30
   1   6 -14   34.00    7.70
  -1  -6  14   37.80    7.90
  -1  -6  14   29.70    5.10
   0  -6  14    9.50    4.20
   0  -6  14    8.10    3.00
   1  -6  14   63.99    8.10
   1  -6  14   59.39    9.40
  -3  -5  14  189.08   20.30
  -2  -5  14    0.60    3.30
  -2  -5  14    8.10    4.20
  -1  -5  14   15.40    3.60
  -1  -5  14   16.20    5.30
   0  -5  14  153.58   15.30
   0  -5  14  128.49   16.70
   1  -5  14    9.50    2.80
   1  -5  14    4.50    4.00
  -2  -4  14   29.80    9.90
  -1  -4  14   10.90    4.80
   0  -4  14   82.89   11.60
_computing_structure_solution     'SHELXT 2014/4 (Sheldrick, 2014)'
;
_shelx_hkl_checksum              18117
_shelx_res_file
;
TITL 4IBA2.RES IN P-1
    G:\000_Acta_E_RC_DR\_2016_ActaCryst_IUCrDATA\su4116_Ishelx.res
    created by SHELXL-2016/6 at 16:00:58 on 20-Dec-2016
CELL  1.54178 11.05430 12.16120 12.34640 119.14000 94.66800 93.18200
ZERR 4  0.00100  0.00100  0.00100  0.00400  0.00500  0.00500
LATT 1
SFAC C H I N O S
UNIT 56 48 4 4 12 4
TEMP -100
SIZE    0.07    0.12    0.25
L.S. 9
FMAP 2
PLAN 20
ACTA
BOND $H
CONF
HTAB
WGHT    0.113000
FVAR       0.25109
I1    3    0.997950    0.281467   -0.252967    11.00000    0.05462    0.03609 =
         0.03067    0.01914    0.00843   -0.00233
S1    6    0.751620    0.174543    0.352841    11.00000    0.03453    0.02408 =
         0.02504    0.01404    0.00228    0.00079
O1    5    0.831638    0.107320    0.386937    11.00000    0.03920    0.03076 =
         0.03021    0.01990   -0.00190    0.00218
O2    5    0.719039    0.292233    0.450139    11.00000    0.04561    0.02641 =
         0.02418    0.01276    0.00763   -0.00375
O3    5    0.818070    0.011768    0.108370    11.00000    0.04042    0.02712 =
         0.03567    0.01758    0.01009    0.00744
N1    4    0.811282    0.214118    0.255963    11.00000    0.03636    0.02504 =
         0.02434    0.01608    0.00411    0.00198
AFIX  43
H1    2    0.827821    0.294813    0.279541    11.00000   -1.20000
AFIX   0
C1    1    0.617775    0.071744    0.265996    11.00000    0.03916    0.02515 =
         0.02281    0.01111    0.00038    0.00155
C2    1    0.521227    0.110780    0.214189    11.00000    0.03459    0.02993 =
         0.03376    0.01478   -0.00043    0.00520
C3    1    0.417319    0.022036    0.153417    11.00000    0.03876    0.03917 =
         0.04639    0.02068   -0.00372    0.00204
AFIX  43
H3    2    0.350362    0.043818    0.117099    11.00000   -1.20000
AFIX   0
C4    1    0.409566   -0.096263    0.144865    11.00000    0.02979    0.03253 =
         0.04408    0.01204   -0.00227    0.00004
AFIX  43
H4    2    0.337588   -0.153414    0.103983    11.00000   -1.20000
AFIX   0
C5    1    0.506582   -0.131743    0.195806    11.00000    0.04095    0.02575 =
         0.03959    0.01253   -0.00112   -0.00145
AFIX  43
H5    2    0.502342   -0.213616    0.187899    11.00000   -1.20000
AFIX   0
C6    1    0.608626   -0.046471    0.257735    11.00000    0.03091    0.03085 =
         0.02983    0.01510    0.00538    0.00258
AFIX  43
H6    2    0.673931   -0.068811    0.295485    11.00000   -1.20000
AFIX   0
C7    1    0.835882    0.123408    0.138600    11.00000    0.02399    0.01943 =
         0.03335    0.01408   -0.00009   -0.00283
C8    1    0.878650    0.168396    0.054517    11.00000    0.02730    0.02440 =
         0.02866    0.01504    0.00318    0.00584
C9    1    0.885412    0.294364    0.082682    11.00000    0.03109    0.02895 =
         0.02388    0.01087    0.00497    0.00211
AFIX  43
H9    2    0.865884    0.357746    0.161014    11.00000   -1.20000
AFIX   0
C10   1    0.921356    0.327404   -0.005540    11.00000    0.05001    0.02362 =
         0.02410    0.01332    0.00355   -0.00370
AFIX  43
H10   2    0.926372    0.413321    0.013469    11.00000   -1.20000
AFIX   0
C11   1    0.949731    0.233836   -0.121279    11.00000    0.04092    0.02814 =
         0.02768    0.01487    0.00505    0.00761
C12   1    0.944509    0.108364   -0.147286    11.00000    0.04129    0.02765 =
         0.02293    0.01127    0.00097    0.01152
AFIX  43
H12   2    0.965631    0.044622   -0.224612    11.00000   -1.20000
AFIX   0
C13   1    0.908326    0.076840   -0.059782    11.00000    0.03662    0.02358 =
         0.03267    0.01334    0.00263    0.00181
AFIX  43
H13   2    0.903828   -0.009000   -0.078578    11.00000   -1.20000
AFIX   0
C14   1    0.524862    0.234780    0.218151    11.00000    0.05391    0.03309 =
         0.04695    0.02363   -0.01194    0.00147
AFIX 137
H14A  2    0.446169    0.241537    0.180359    11.00000   -1.50000
H14B  2    0.589802    0.241554    0.171524    11.00000   -1.50000
H14C  2    0.541018    0.303192    0.305187    11.00000   -1.50000
AFIX   0
I2    3    0.350560    0.476297   -0.112413    11.00000    0.04232    0.05615 =
         0.03805    0.03396    0.00692    0.00677
S2    6    0.144443    0.403509    0.525096    11.00000    0.03819    0.02220 =
         0.02587    0.01420    0.00721    0.00499
O4    5    0.196030    0.515445    0.640056    11.00000    0.05260    0.01942 =
         0.02499    0.01137    0.01052   -0.00143
O5    5    0.017181    0.365927    0.507632    11.00000    0.04061    0.02895 =
         0.04095    0.02003    0.00881    0.00141
O6    5    0.120394    0.238859    0.257565    11.00000    0.04776    0.02089 =
         0.03138    0.01252    0.00144    0.00123
N2    4    0.181909    0.436322    0.415683    11.00000    0.03107    0.02408 =
         0.03171    0.01866    0.00571    0.00239
AFIX  43
H2    2    0.212606    0.513728    0.437907    11.00000   -1.20000
AFIX   0
C15   1    0.224387    0.275702    0.505039    11.00000    0.04697    0.02556 =
         0.01714    0.01249    0.00637    0.00731
C16   1    0.354315    0.287765    0.524718    11.00000    0.04609    0.03811 =
         0.03017    0.02386    0.01378    0.01097
C17   1    0.407096    0.180856    0.508354    11.00000    0.05198    0.04461 =
         0.03417    0.02413    0.00865    0.01627
AFIX  43
H17   2    0.493510    0.185113    0.521427    11.00000   -1.20000
AFIX   0
C18   1    0.337062    0.067499    0.473321    11.00000    0.05379    0.03746 =
         0.04353    0.02786    0.01187    0.01931
AFIX  43
H18   2    0.376524   -0.004767    0.459878    11.00000   -1.20000
AFIX   0
C19   1    0.211544    0.058272    0.457806    11.00000    0.05268    0.02340 =
         0.03337    0.01732    0.00219    0.00274
AFIX  43
H19   2    0.164404   -0.018055    0.438802    11.00000   -1.20000
AFIX   0
C20   1    0.155044    0.161776    0.470293    11.00000    0.04669    0.02577 =
         0.02654    0.01758   -0.00103   -0.00299
AFIX  43
H20   2    0.068594    0.155170    0.455117    11.00000   -1.20000
AFIX   0
C21   1    0.166130    0.344904    0.289942    11.00000    0.02899    0.02481 =
         0.02851    0.01226    0.00182    0.00547
C22   1    0.213192    0.384151    0.201116    11.00000    0.03222    0.02873 =
         0.02941    0.01833   -0.00066   -0.00023
C23   1    0.215864    0.287213    0.080326    11.00000    0.04727    0.02892 =
         0.02774    0.01450    0.00329    0.00563
AFIX  43
H23   2    0.189032    0.202605    0.058519    11.00000   -1.20000
AFIX   0
C24   1    0.256445    0.311840   -0.007291    11.00000    0.04896    0.03418 =
         0.03067    0.02157    0.00700    0.00978
AFIX  43
H24   2    0.260178    0.244419   -0.089385    11.00000   -1.20000
AFIX   0
C25   1    0.292673    0.436328    0.023387    11.00000    0.04104    0.05164 =
         0.03290    0.02936   -0.00154    0.00708
C26   1    0.289670    0.535331    0.144261    11.00000    0.03942    0.03235 =
         0.03208    0.02010    0.00272   -0.00331
AFIX  43
H26   2    0.314058    0.620255    0.165411    11.00000   -1.20000
AFIX   0
C27   1    0.250512    0.507914    0.233193    11.00000    0.04575    0.02605 =
         0.02268    0.01211    0.00471    0.00452
AFIX  43
H27   2    0.249286    0.574251    0.316386    11.00000   -1.20000
AFIX   0
C28   1    0.434023    0.406304    0.561004    11.00000    0.04387    0.03608 =
         0.05115    0.02828    0.00242    0.00156
AFIX 137
H28A  2    0.431842    0.466625    0.649623    11.00000   -1.50000
H28B  2    0.404602    0.443550    0.510389    11.00000   -1.50000
H28C  2    0.518041    0.386688    0.546863    11.00000   -1.50000
AFIX   0
HKLF 4
REM  4IBA2.RES IN P-1
REM R1 =  0.0624 for    3621 Fo > 4sig(Fo)  and  0.0814 for all    4724 data
REM    363 parameters refined using      0 restraints
END
WGHT      0.1130      0.0000
REM Instructions for potential hydrogen bonds
EQIV $1 -x+1, -y+1, -z+1
HTAB N1 O4_$1
HTAB N2 O2_$1
EQIV $2 x-1, y, z
HTAB C20 O1_$2
REM Highest difference peak  1.402,  deepest hole -1.392,  1-sigma level  0.210
Q1    1   1.0046  0.2239 -0.3386  11.00000  0.05    1.40
Q2    1   1.1092  0.2825 -0.2466  11.00000  0.05    1.29
Q3    1   0.2367  0.4632 -0.1334  11.00000  0.05    1.18
Q4    1   0.8960  0.2807 -0.2617  11.00000  0.05    1.17
Q5    1   0.4615  0.4744 -0.1075  11.00000  0.05    1.17
Q6    1   0.3046  0.5413 -0.1558  11.00000  0.05    1.13
Q7    1   0.8542  0.2479 -0.1274  11.00000  0.05    1.09
Q8    1   1.0403  0.2163 -0.2098  11.00000  0.05    1.08
Q9    1   0.4656  0.5213 -0.0488  11.00000  0.05    1.06
Q10   1   0.3810  0.4024 -0.0666  11.00000  0.05    1.05
Q11   1   0.3450  0.5402 -0.0341  11.00000  0.05    1.00
Q12   1   0.8992  0.1945 -0.3489  11.00000  0.05    0.98
Q13   1   1.0525  0.2203 -0.2695  11.00000  0.05    0.93
Q14   1   0.3546  0.4166 -0.1928  11.00000  0.05    0.87
Q15   1   0.2915  0.5412 -0.0805  11.00000  0.05    0.85
Q16   1   0.1618  0.2724  0.6346  11.00000  0.05    0.83
Q17   1   0.9333  0.3444 -0.2119  11.00000  0.05    0.81
Q18   1   0.9533  0.3596 -0.2899  11.00000  0.05    0.80
Q19   1   0.1820  0.4720  0.0025  11.00000  0.05    0.80
Q20   1   0.2631  0.3796 -0.2222  11.00000  0.05    0.74
;
_shelx_res_checksum              25346
loop_
_space_group_symop_operation_xyz
'x, y, z'
'-x, -y, -z'
loop_
_atom_site_type_symbol
_atom_site_label
_atom_site_fract_x
_atom_site_fract_y
_atom_site_fract_z
_atom_site_U_iso_or_equiv
_atom_site_adp_type
_atom_site_calc_flag
_atom_site_occupancy
I I1 0.99795(6) 0.28147(5) -0.25297(5) 0.0394(2) Uani d 1
S S1 0.7516(2) 0.17454(18) 0.35284(17) 0.0273(5) Uani d 1
O O1 0.8316(6) 0.1073(5) 0.3869(5) 0.0318(13) Uani d 1
O O2 0.7190(6) 0.2922(5) 0.4501(5) 0.0321(14) Uani d 1
O O3 0.8181(6) 0.0118(5) 0.1084(5) 0.0330(14) Uani d 1
N N1 0.8113(7) 0.2141(6) 0.2560(6) 0.0269(15) Uani d 1
H H1 0.827821 0.294813 0.279541 0.032 Uiso calc 1
C C1 0.6178(8) 0.0717(7) 0.2660(7) 0.0297(19) Uani d 1
C C2 0.5212(9) 0.1108(8) 0.2142(8) 0.033(2) Uani d 1
C C3 0.4173(10) 0.0220(9) 0.1534(9) 0.042(2) Uani d 1
H H3 0.350362 0.043818 0.117099 0.051 Uiso calc 1
C C4 0.4096(9) -0.0963(8) 0.1449(9) 0.039(2) Uani d 1
H H4 0.337588 -0.153414 0.103983 0.047 Uiso calc 1
C C5 0.5066(9) -0.1317(8) 0.1958(8) 0.038(2) Uani d 1
H H5 0.502342 -0.213616 0.187899 0.045 Uiso calc 1
C C6 0.6086(8) -0.0465(7) 0.2577(7) 0.0304(19) Uani d 1
H H6 0.673931 -0.068811 0.295485 0.036 Uiso calc 1
C C7 0.8359(8) 0.1234(7) 0.1386(7) 0.0256(18) Uani d 1
C C8 0.8786(8) 0.1684(7) 0.0545(7) 0.0258(17) Uani d 1
C C9 0.8854(8) 0.2944(8) 0.0827(7) 0.0289(19) Uani d 1
H H9 0.865884 0.357746 0.161014 0.035 Uiso calc 1
C C10 0.9214(9) 0.3274(8) -0.0055(7) 0.032(2) Uani d 1
H H10 0.926372 0.413321 0.013469 0.039 Uiso calc 1
C C11 0.9497(9) 0.2338(8) -0.1213(7) 0.0316(19) Uani d 1
C C12 0.9445(8) 0.1084(8) -0.1473(7) 0.0310(19) Uani d 1
H H12 0.965631 0.044622 -0.224612 0.037 Uiso calc 1
C C13 0.9083(8) 0.0768(8) -0.0598(7) 0.0314(19) Uani d 1
H H13 0.903828 -0.009000 -0.078578 0.038 Uiso calc 1
C C14 0.5249(10) 0.2348(9) 0.2182(9) 0.044(2) Uani d 1
H H14A 0.446169 0.241537 0.180359 0.066 Uiso calc 1
H H14B 0.589802 0.241554 0.171524 0.066 Uiso calc 1
H H14C 0.541018 0.303192 0.305187 0.066 Uiso calc 1
I I2 0.35056(6) 0.47630(6) -0.11241(5) 0.0407(2) Uani d 1
S S2 0.1444(2) 0.40351(17) 0.52510(17) 0.0275(5) Uani d 1
O O4 0.1960(6) 0.5154(5) 0.6401(5) 0.0320(14) Uani d 1
O O5 0.0172(6) 0.3659(5) 0.5076(5) 0.0355(14) Uani d 1
O O6 0.1204(6) 0.2389(5) 0.2576(5) 0.0338(14) Uani d 1
N N2 0.1819(6) 0.4363(6) 0.4157(6) 0.0268(15) Uani d 1
H H2 0.212606 0.513728 0.437907 0.032 Uiso calc 1
C C15 0.2244(9) 0.2757(7) 0.5050(6) 0.0288(19) Uani d 1
C C16 0.3543(9) 0.2878(8) 0.5247(7) 0.034(2) Uani d 1
C C17 0.4071(10) 0.1809(9) 0.5084(8) 0.041(2) Uani d 1
H H17 0.493510 0.185113 0.521427 0.049 Uiso calc 1
C C18 0.3371(10) 0.0675(9) 0.4733(8) 0.041(2) Uani d 1
H H18 0.376524 -0.004767 0.459878 0.049 Uiso calc 1
C C19 0.2115(9) 0.0583(8) 0.4578(7) 0.035(2) Uani d 1
H H19 0.164404 -0.018055 0.438802 0.042 Uiso calc 1
C C20 0.1550(9) 0.1618(7) 0.4703(7) 0.032(2) Uani d 1
H H20 0.068594 0.155170 0.455117 0.038 Uiso calc 1
C C21 0.1661(8) 0.3449(8) 0.2899(7) 0.0278(18) Uani d 1
C C22 0.2132(8) 0.3842(8) 0.2011(7) 0.0288(18) Uani d 1
C C23 0.2159(9) 0.2872(8) 0.0803(7) 0.034(2) Uani d 1
H H23 0.189032 0.202605 0.058519 0.041 Uiso calc 1
C C24 0.2564(9) 0.3118(8) -0.0073(8) 0.035(2) Uani d 1
H H24 0.260178 0.244419 -0.089385 0.042 Uiso calc 1
C C25 0.2927(9) 0.4363(9) 0.0234(8) 0.038(2) Uani d 1
C C26 0.2897(9) 0.5353(8) 0.1443(7) 0.033(2) Uani d 1
H H26 0.314058 0.620255 0.165411 0.040 Uiso calc 1
C C27 0.2505(9) 0.5079(7) 0.2332(7) 0.031(2) Uani d 1
H H27 0.249286 0.574251 0.316386 0.038 Uiso calc 1
C C28 0.4340(10) 0.4063(8) 0.5610(9) 0.041(2) Uani d 1
H H28A 0.431842 0.466625 0.649623 0.062 Uiso calc 1
H H28B 0.404602 0.443550 0.510389 0.062 Uiso calc 1
H H28C 0.518041 0.386688 0.546863 0.062 Uiso calc 1
loop_
_atom_site_aniso_label
_atom_site_aniso_U_11
_atom_site_aniso_U_22
_atom_site_aniso_U_33
_atom_site_aniso_U_12
_atom_site_aniso_U_13
_atom_site_aniso_U_23
I1 0.0546(5) 0.0361(4) 0.0307(3) -0.0023(3) 0.0084(3) 0.0191(2)
S1 0.0345(12) 0.0241(10) 0.0250(9) 0.0008(8) 0.0023(8) 0.0140(7)
O1 0.039(4) 0.031(3) 0.030(3) 0.002(3) -0.002(2) 0.020(2)
O2 0.046(4) 0.026(3) 0.024(3) -0.004(3) 0.008(2) 0.013(2)
O3 0.040(4) 0.027(3) 0.036(3) 0.007(3) 0.010(3) 0.018(2)
N1 0.036(4) 0.025(3) 0.024(3) 0.002(3) 0.004(3) 0.016(3)
C1 0.039(6) 0.025(4) 0.023(4) 0.002(4) 0.000(3) 0.011(3)
C2 0.035(5) 0.030(4) 0.034(4) 0.005(4) 0.000(4) 0.015(3)
C3 0.039(6) 0.039(5) 0.046(5) 0.002(4) -0.004(4) 0.021(4)
C4 0.030(5) 0.033(5) 0.044(5) 0.000(4) -0.002(4) 0.012(4)
C5 0.041(6) 0.026(4) 0.040(5) -0.001(4) -0.001(4) 0.013(4)
C6 0.031(5) 0.031(4) 0.030(4) 0.003(4) 0.005(3) 0.015(3)
C7 0.024(5) 0.019(4) 0.033(4) -0.003(3) 0.000(3) 0.014(3)
C8 0.027(5) 0.024(4) 0.029(4) 0.006(3) 0.003(3) 0.015(3)
C9 0.031(5) 0.029(4) 0.024(4) 0.002(4) 0.005(3) 0.011(3)
C10 0.050(6) 0.024(4) 0.024(4) -0.004(4) 0.004(4) 0.013(3)
C11 0.041(6) 0.028(4) 0.028(4) 0.008(4) 0.005(4) 0.015(3)
C12 0.041(6) 0.028(4) 0.023(4) 0.012(4) 0.001(3) 0.011(3)
C13 0.037(5) 0.024(4) 0.033(4) 0.002(4) 0.003(4) 0.013(3)
C14 0.054(7) 0.033(5) 0.047(5) 0.001(4) -0.012(5) 0.024(4)
I2 0.0423(4) 0.0562(4) 0.0381(3) 0.0068(3) 0.0069(3) 0.0340(3)
S2 0.0382(13) 0.0222(9) 0.0259(9) 0.0050(8) 0.0072(8) 0.0142(7)
O4 0.053(4) 0.019(3) 0.025(3) -0.001(3) 0.011(3) 0.011(2)
O5 0.041(4) 0.029(3) 0.041(3) 0.001(3) 0.009(3) 0.020(2)
O6 0.048(4) 0.021(3) 0.031(3) 0.001(3) 0.001(3) 0.013(2)
N2 0.031(4) 0.024(3) 0.032(3) 0.002(3) 0.006(3) 0.019(3)
C15 0.047(6) 0.026(4) 0.017(3) 0.007(4) 0.006(3) 0.012(3)
C16 0.046(6) 0.038(5) 0.030(4) 0.011(4) 0.014(4) 0.024(4)
C17 0.052(7) 0.045(5) 0.034(4) 0.016(5) 0.009(4) 0.024(4)
C18 0.054(7) 0.037(5) 0.044(5) 0.019(5) 0.012(4) 0.028(4)
C19 0.053(7) 0.023(4) 0.033(4) 0.003(4) 0.002(4) 0.017(3)
C20 0.047(6) 0.026(4) 0.027(4) -0.003(4) -0.001(4) 0.018(3)
C21 0.029(5) 0.025(4) 0.029(4) 0.005(4) 0.002(3) 0.012(3)
C22 0.032(5) 0.029(4) 0.029(4) 0.000(4) -0.001(3) 0.018(3)
C23 0.047(6) 0.029(4) 0.028(4) 0.006(4) 0.003(4) 0.014(3)
C24 0.049(6) 0.034(5) 0.031(4) 0.010(4) 0.007(4) 0.022(4)
C25 0.041(6) 0.052(6) 0.033(4) 0.007(4) -0.002(4) 0.029(4)
C26 0.039(6) 0.032(4) 0.032(4) -0.003(4) 0.003(4) 0.020(4)
C27 0.046(6) 0.026(4) 0.023(4) 0.005(4) 0.005(4) 0.012(3)
C28 0.044(6) 0.036(5) 0.051(5) 0.002(4) 0.002(4) 0.028(4)
loop_
_atom_type_symbol
_atom_type_description
_atom_type_scat_dispersion_real
_atom_type_scat_dispersion_imag
_atom_type_scat_source
C C 0.0181 0.0091 'International Tables Vol C Tables 4.2.6.8 and 6.1.1.4'
H H 0.0000 0.0000 'International Tables Vol C Tables 4.2.6.8 and 6.1.1.4'
I I -0.3257 6.8362 'International Tables Vol C Tables 4.2.6.8 and 6.1.1.4'
N N 0.0311 0.0180 'International Tables Vol C Tables 4.2.6.8 and 6.1.1.4'
O O 0.0492 0.0322 'International Tables Vol C Tables 4.2.6.8 and 6.1.1.4'
S S 0.3331 0.5567 'International Tables Vol C Tables 4.2.6.8 and 6.1.1.4'
loop_
_geom_angle_atom_site_label_1
_geom_angle_atom_site_label_2
_geom_angle_atom_site_label_3
_geom_angle
O1 S1 O2 118.2(3)
O1 S1 N1 110.5(4)
O2 S1 N1 103.9(3)
O1 S1 C1 108.4(4)
O2 S1 C1 109.7(4)
N1 S1 C1 105.3(4)
C7 N1 S1 121.8(5)
C7 N1 H1 119.1
S1 N1 H1 119.1
C6 C1 C2 121.5(8)
C6 C1 S1 116.5(6)
C2 C1 S1 121.8(6)
C3 C2 C1 115.9(8)
C3 C2 C14 119.5(8)
C1 C2 C14 124.6(8)
C4 C3 C2 122.1(9)
C4 C3 H3 119.0
C2 C3 H3 119.0
C3 C4 C5 120.4(9)
C3 C4 H4 119.8
C5 C4 H4 119.8
C6 C5 C4 119.0(9)
C6 C5 H5 120.5
C4 C5 H5 120.5
C5 C6 C1 121.1(9)
C5 C6 H6 119.5
C1 C6 H6 119.5
O3 C7 N1 118.9(7)
O3 C7 C8 123.4(7)
N1 C7 C8 117.6(6)
C13 C8 C9 119.6(7)
C13 C8 C7 116.7(7)
C9 C8 C7 123.6(7)
C8 C9 C10 119.7(7)
C8 C9 H9 120.2
C10 C9 H9 120.2
C11 C10 C9 120.2(7)
C11 C10 H10 119.9
C9 C10 H10 119.9
C12 C11 C10 119.5(8)
C12 C11 I1 120.3(6)
C10 C11 I1 120.2(6)
C13 C12 C11 119.8(7)
C13 C12 H12 120.1
C11 C12 H12 120.1
C8 C13 C12 121.2(8)
C8 C13 H13 119.4
C12 C13 H13 119.4
C2 C14 H14A 109.5
C2 C14 H14B 109.5
H14A C14 H14B 109.5
C2 C14 H14C 109.5
H14A C14 H14C 109.5
H14B C14 H14C 109.5
O5 S2 O4 118.4(4)
O5 S2 N2 110.8(4)
O4 S2 N2 103.2(3)
O5 S2 C15 109.0(4)
O4 S2 C15 109.2(4)
N2 S2 C15 105.4(4)
C21 N2 S2 121.8(6)
C21 N2 H2 119.1
S2 N2 H2 119.1
C20 C15 C16 121.3(8)
C20 C15 S2 117.0(7)
C16 C15 S2 121.7(6)
C17 C16 C15 116.4(8)
C17 C16 C28 119.5(9)
C15 C16 C28 124.1(8)
C16 C17 C18 121.8(10)
C16 C17 H17 119.1
C18 C17 H17 119.1
C19 C18 C17 121.1(8)
C19 C18 H18 119.5
C17 C18 H18 119.5
C18 C19 C20 119.0(8)
C18 C19 H19 120.5
C20 C19 H19 120.5
C19 C20 C15 120.3(9)
C19 C20 H20 119.9
C15 C20 H20 119.9
O6 C21 N2 119.8(7)
O6 C21 C22 123.6(7)
N2 C21 C22 116.5(7)
C23 C22 C27 120.0(8)
C23 C22 C21 115.7(7)
C27 C22 C21 124.3(7)
C24 C23 C22 120.6(8)
C24 C23 H23 119.7
C22 C23 H23 119.7
C23 C24 C25 119.9(8)
C23 C24 H24 120.1
C25 C24 H24 120.1
C26 C25 C24 120.3(8)
C26 C25 I2 119.4(7)
C24 C25 I2 120.3(6)
C27 C26 C25 118.9(8)
C27 C26 H26 120.5
C25 C26 H26 120.5
C22 C27 C26 120.2(7)
C22 C27 H27 119.9
C26 C27 H27 119.9
C16 C28 H28A 109.5
C16 C28 H28B 109.5
H28A C28 H28B 109.5
C16 C28 H28C 109.5
H28A C28 H28C 109.5
H28B C28 H28C 109.5
loop_
_geom_bond_atom_site_label_1
_geom_bond_atom_site_label_2
_geom_bond_distance
I1 C11 2.071(8)
S1 O1 1.408(6)
S1 O2 1.440(6)
S1 N1 1.659(7)
S1 C1 1.770(9)
O3 C7 1.219(9)
N1 C7 1.390(10)
N1 H1 0.8800
C1 C6 1.388(11)
C1 C2 1.419(12)
C2 C3 1.407(13)
C2 C14 1.483(12)
C3 C4 1.387(13)
C3 H3 0.9500
C4 C5 1.392(13)
C4 H4 0.9500
C5 C6 1.375(13)
C5 H5 0.9500
C6 H6 0.9500
C7 C8 1.485(11)
C8 C13 1.387(11)
C8 C9 1.392(12)
C9 C10 1.409(11)
C9 H9 0.9500
C10 C11 1.401(12)
C10 H10 0.9500
C11 C12 1.395(12)
C12 C13 1.390(12)
C12 H12 0.9500
C13 H13 0.9500
C14 H14A 0.9800
C14 H14B 0.9800
C14 H14C 0.9800
I2 C25 2.095(9)
S2 O5 1.420(7)
S2 O4 1.447(6)
S2 N2 1.659(6)
S2 C15 1.753(8)
O6 C21 1.213(10)
N2 C21 1.389(10)
N2 H2 0.8800
C15 C20 1.393(12)
C15 C16 1.424(13)
C16 C17 1.385(13)
C16 C28 1.490(13)
C17 C18 1.390(14)
C17 H17 0.9500
C18 C19 1.376(14)
C18 H18 0.9500
C19 C20 1.383(12)
C19 H19 0.9500
C20 H20 0.9500
C21 C22 1.509(11)
C22 C23 1.383(12)
C22 C27 1.384(12)
C23 C24 1.357(12)
C23 H23 0.9500
C24 C25 1.395(13)
C24 H24 0.9500
C25 C26 1.393(13)
C26 C27 1.386(12)
C26 H26 0.9500
C27 H27 0.9500
C28 H28A 0.9800
C28 H28B 0.9800
C28 H28C 0.9800
loop_
_geom_hbond_atom_site_label_D
_geom_hbond_atom_site_label_H
_geom_hbond_atom_site_label_A
_geom_hbond_site_symmetry_A
_geom_hbond_distance_DH
_geom_hbond_distance_HA
_geom_hbond_distance_DA
_geom_hbond_angle_DHA
_geom_hbond_publ_flag
N1 H1 O4 2_666 0.88 2.06 2.900(10) 158 yes
N2 H2 O2 2_666 0.88 2.12 2.970(10) 161 yes
C9 H9 O4 2_666 0.95 2.36 3.301(10) 170 yes
C13 H13 O6 2_655 0.95 2.56 3.378(11) 144 yes
C23 H23 O3 2_655 0.95 2.40 3.201(11) 142 yes
C27 H27 O2 2_666 0.95 2.51 3.428(9) 163 yes
C4 H4 Cg 2_677 0.93 2.81 3.656(11) 151 yes
loop_
_geom_torsion_atom_site_label_1
_geom_torsion_atom_site_label_2
_geom_torsion_atom_site_label_3
_geom_torsion_atom_site_label_4
_geom_torsion
O1 S1 N1 C7 63.1(7)
O2 S1 N1 C7 -169.1(6)
C1 S1 N1 C7 -53.8(7)
O1 S1 C1 C6 6.3(7)
O2 S1 C1 C6 -124.1(6)
N1 S1 C1 C6 124.6(6)
O1 S1 C1 C2 -177.6(6)
O2 S1 C1 C2 52.0(8)
N1 S1 C1 C2 -59.3(8)
C6 C1 C2 C3 -0.6(12)
S1 C1 C2 C3 -176.5(7)
C6 C1 C2 C14 -179.3(8)
S1 C1 C2 C14 4.8(12)
C1 C2 C3 C4 0.1(14)
C14 C2 C3 C4 178.9(9)
C2 C3 C4 C5 -0.7(15)
C3 C4 C5 C6 1.8(14)
C4 C5 C6 C1 -2.4(13)
C2 C1 C6 C5 1.8(12)
S1 C1 C6 C5 177.9(7)
S1 N1 C7 O3 -3.3(11)
S1 N1 C7 C8 174.6(6)
O3 C7 C8 C13 -5.3(13)
N1 C7 C8 C13 177.0(8)
O3 C7 C8 C9 172.1(8)
N1 C7 C8 C9 -5.6(12)
C13 C8 C9 C10 0.5(13)
C7 C8 C9 C10 -176.8(8)
C8 C9 C10 C11 0.2(14)
C9 C10 C11 C12 -1.3(14)
C9 C10 C11 I1 178.3(7)
C10 C11 C12 C13 1.6(14)
I1 C11 C12 C13 -178.0(7)
C9 C8 C13 C12 -0.2(13)
C7 C8 C13 C12 177.4(8)
C11 C12 C13 C8 -0.9(14)
O5 S2 N2 C21 -62.5(7)
O4 S2 N2 C21 169.7(7)
C15 S2 N2 C21 55.2(8)
O5 S2 C15 C20 3.3(7)
O4 S2 C15 C20 134.0(6)
N2 S2 C15 C20 -115.7(6)
O5 S2 C15 C16 -176.0(6)
O4 S2 C15 C16 -45.2(7)
N2 S2 C15 C16 65.0(7)
C20 C15 C16 C17 -0.5(11)
S2 C15 C16 C17 178.8(6)
C20 C15 C16 C28 179.5(8)
S2 C15 C16 C28 -1.2(11)
C15 C16 C17 C18 0.7(12)
C28 C16 C17 C18 -179.3(8)
C16 C17 C18 C19 -2.4(13)
C17 C18 C19 C20 3.8(13)
C18 C19 C20 C15 -3.6(12)
C16 C15 C20 C19 2.0(11)
S2 C15 C20 C19 -177.3(6)
S2 N2 C21 O6 2.3(12)
S2 N2 C21 C22 -175.2(6)
O6 C21 C22 C23 -8.0(13)
N2 C21 C22 C23 169.4(8)
O6 C21 C22 C27 171.0(9)
N2 C21 C22 C27 -11.6(13)
C27 C22 C23 C24 0.9(14)
C21 C22 C23 C24 180.0(9)
C22 C23 C24 C25 -1.8(15)
C23 C24 C25 C26 1.3(15)
C23 C24 C25 I2 -178.2(7)
C24 C25 C26 C27 0.2(14)
I2 C25 C26 C27 179.6(7)
C23 C22 C27 C26 0.6(14)
C21 C22 C27 C26 -178.4(8)
C25 C26 C27 C22 -1.1(14)

_cod_database_fobs_code 1545013
