#------------------------------------------------------------------------------
#$Date: 2017-06-05 03:47:09 +0300 (Mon, 05 Jun 2017) $
#$Revision: 197489 $
#$URL: file:///home/coder/svn-repositories/cod/cif/1/54/58/1545884.cif $
#------------------------------------------------------------------------------
#
# This file is available in the Crystallography Open Database (COD),
# http://www.crystallography.net/
#
# All data on this site have been placed in the public domain by the
# contributors.
#
data_1545884
loop_
_publ_author_name
'Yuan, Xiaoqian'
'Dong, Shupeng'
'Liu, Zhen'
'Wu, Guibing'
'Zou, Chuncheng'
'Ye, Jinxing'
_publ_section_title
;
 Enantioselective Michael Addition of Photogenerated o-Quinodimethanes to
 Enones Catalyzed by Chiral Amino Acid Esters.
;
_journal_issue                   9
_journal_name_full               'Organic letters'
_journal_page_first              2322
_journal_page_last               2325
_journal_paper_doi               10.1021/acs.orglett.7b00862
_journal_volume                  19
_journal_year                    2017
_chemical_absolute_configuration ad
_chemical_formula_sum            'C23 H23 N O4 S'
_chemical_formula_weight         409.48
_chemical_name_systematic
; 
 ? 
;
_space_group_crystal_system      monoclinic
_space_group_IT_number           4
_space_group_name_Hall           'P 2yb'
_space_group_name_H-M_alt        'P 1 21 1'
_symmetry_space_group_name_Hall  'P 2yb'
_symmetry_space_group_name_H-M   'P 1 21 1'
_atom_sites_solution_hydrogens   mixed
_audit_creation_method           SHELXL-2013
_cell_angle_alpha                90
_cell_angle_beta                 94.578(6)
_cell_angle_gamma                90
_cell_formula_units_Z            2
_cell_length_a                   12.542(4)
_cell_length_b                   5.4450(17)
_cell_length_c                   15.507(4)
_cell_measurement_reflns_used    2036
_cell_measurement_temperature    293(2)
_cell_measurement_theta_max      50.755
_cell_measurement_theta_min      5.271
_cell_volume                     1055.6(5)
_computing_cell_refinement       'Bruker SMART'
_computing_data_collection       'Bruker SMART'
_computing_data_reduction        'Bruker SHELXTL'
_computing_molecular_graphics    'Bruker SHELXTL'
_computing_publication_material  'Bruker SHELXTL'
_computing_structure_refinement  'SHELXL-2013 (Sheldrick, 2013)'
_computing_structure_solution    'Bruker SHELXTL'
_diffrn_ambient_temperature      293(2)
_diffrn_measured_fraction_theta_full 0.999
_diffrn_measured_fraction_theta_max 0.999
_diffrn_measurement_device_type  'CCD area detector'
_diffrn_measurement_method       'phi and omega scans'
_diffrn_radiation_type           MoK\a
_diffrn_radiation_wavelength     0.71073
_diffrn_reflns_av_R_equivalents  0.0274
_diffrn_reflns_av_unetI/netI     0.0462
_diffrn_reflns_Laue_measured_fraction_full 0.999
_diffrn_reflns_Laue_measured_fraction_max 0.999
_diffrn_reflns_limit_h_max       14
_diffrn_reflns_limit_h_min       -15
_diffrn_reflns_limit_k_max       6
_diffrn_reflns_limit_k_min       -6
_diffrn_reflns_limit_l_max       15
_diffrn_reflns_limit_l_min       -18
_diffrn_reflns_number            6123
_diffrn_reflns_point_group_measured_fraction_full 0.969
_diffrn_reflns_point_group_measured_fraction_max 0.967
_diffrn_reflns_theta_full        25.242
_diffrn_reflns_theta_max         25.499
_diffrn_reflns_theta_min         2.012
_exptl_absorpt_coefficient_mu    0.182
_exptl_absorpt_correction_T_max  0.7456
_exptl_absorpt_correction_T_min  0.6076
_exptl_absorpt_correction_type   multi-scan
_exptl_absorpt_process_details   sadabs
_exptl_crystal_colour            colorless
_exptl_crystal_density_diffrn    1.288
_exptl_crystal_description       prismatic
_exptl_crystal_F_000             432
_exptl_crystal_size_max          0.200
_exptl_crystal_size_mid          0.160
_exptl_crystal_size_min          0.130
_refine_diff_density_max         0.181
_refine_diff_density_min         -0.202
_refine_diff_density_rms         0.043
_refine_ls_abs_structure_details
; 
 Flack x determined using 1287 quotients [(I+)-(I-)]/[(I+)+(I-)] 
 (Parsons and Flack (2004), Acta Cryst. A60, s61). 
;
_refine_ls_abs_structure_Flack   -0.01(7)
_refine_ls_extinction_method     none
_refine_ls_goodness_of_fit_ref   1.034
_refine_ls_hydrogen_treatment    mixed
_refine_ls_matrix_type           full
_refine_ls_number_parameters     268
_refine_ls_number_reflns         3805
_refine_ls_number_restraints     1
_refine_ls_restrained_S_all      1.034
_refine_ls_R_factor_all          0.0511
_refine_ls_R_factor_gt           0.0442
_refine_ls_shift/su_max          0.000
_refine_ls_shift/su_mean         0.000
_refine_ls_structure_factor_coef Fsqd
_refine_ls_weighting_details
'w=1/[\s^2^(Fo^2^)+(0.0654P)^2^] where P=(Fo^2^+2Fc^2^)/3'
_refine_ls_weighting_scheme      calc
_refine_ls_wR_factor_gt          0.1088
_refine_ls_wR_factor_ref         0.1131
_reflns_Friedel_coverage         0.740
_reflns_Friedel_fraction_full    0.931
_reflns_Friedel_fraction_max     0.928
_reflns_number_gt                3363
_reflns_number_total             3805
_reflns_threshold_expression     'I > 2\s(I)'
_cod_data_source_file            ol7b00862_si_003.cif
_cod_data_source_block           cd16484
_cod_depositor_comments          'Adding full bibliography for 1545884.cif.'
_cod_database_code               1545884
_shelx_space_group_comment
; 
The symmetry employed for this shelxl refinement is uniquely defined 
by the following loop, which should always be used as a source of 
symmetry information in preference to the above space-group names. 
They are only intended as comments. 
;
_shelx_estimated_absorpt_t_min   0.965
_shelx_estimated_absorpt_t_max   0.977
_shelxl_version_number           2013-4
_shelx_res_file
; 
TITL cd16484 in P2(1) 
CELL 0.71073  12.5423   5.4450  15.5067  90.000  94.578  90.000 
ZERR   2.00   0.0037   0.0017   0.0044   0.000   0.006   0.000 
LATT -1 
SYMM -X, 0.5+Y, -Z 
SFAC C  H  N  O  S 
UNIT 46 46 2 8 2 
OMIT   -3  -1  14 
OMIT    -2  -4   6 
OMIT     7   0   3 
OMIT     1   0   0 
OMIT  -3.00  51.00 
L.S. 10 
ACTA 
BOND  $H 
FMAP 2 
PLAN 20 
HTAB N1 O3_$2 
HTAB C22 O1_$1 
wpdb -1 
size 0.20 0.16 0.13 
mpla c17 > c22 
mpla c3 > c8 
mpla c9 > c14 
htab 
conf 
EQIV $1 x, y-1, z 
HTAB C22 O1_$1 
EQIV $2 x, y+1, z 
HTAB N1 O3_$2 
WGHT    0.065400 
FVAR       0.27790 
MOLE 1 
S1    5    0.434663    0.018302    0.703976    11.00000    0.04296    0.05628 = 
         0.03560    0.00061    0.00323    0.00499 
N1    3    0.370207    0.213715    0.758052    11.00000    0.04739    0.04390 = 
         0.04244    0.00188    0.01016   -0.00719 
O1    4    0.185150    0.404574    0.655837    11.00000    0.07002    0.08229 = 
         0.05496    0.02435    0.00036   -0.00353 
O2    4    0.110042    0.050371    0.688904    11.00000    0.05826    0.08247 = 
         0.06378   -0.00524   -0.00841   -0.01858 
O3    4    0.410647   -0.216931    0.737311    11.00000    0.07654    0.05356 = 
         0.04344    0.00545    0.00406    0.01275 
O4    4    0.541301    0.103642    0.707714    11.00000    0.04107    0.09311 = 
         0.05212   -0.00666    0.00351    0.00330 
C1    1    0.260198    0.171918    0.777154    11.00000    0.04009    0.04374 = 
         0.03751    0.00302    0.00797   -0.00569 
AFIX  13 
H1    2    0.252507   -0.000876    0.793215    11.00000   -1.20000 
AFIX   0 
C2    1    0.235603    0.331652    0.854337    11.00000    0.04213    0.03791 = 
         0.03830    0.00264    0.00613   -0.00573 
AFIX  13 
H2    2    0.257004    0.499779    0.841190    11.00000   -1.20000 
AFIX   0 
C3    1    0.115864    0.337163    0.864837    11.00000    0.04068    0.03900 = 
         0.03510   -0.00116    0.00365   -0.00101 
C4    1    0.054447    0.532510    0.832267    11.00000    0.05256    0.04707 = 
         0.04775    0.00509   -0.00068    0.00128 
AFIX  43 
H4    2    0.086355    0.661019    0.804346    11.00000   -1.20000 
AFIX   0 
C5    1   -0.053852    0.536406    0.841236    11.00000    0.04869    0.06084 = 
         0.05967   -0.00286   -0.01122    0.01229 
AFIX  43 
H5    2   -0.094888    0.667453    0.818971    11.00000   -1.20000 
AFIX   0 
C6    1   -0.101504    0.349723    0.882497    11.00000    0.03989    0.07955 = 
         0.05922   -0.01062    0.00348   -0.00011 
AFIX  43 
H6    2   -0.174705    0.353048    0.888371    11.00000   -1.20000 
AFIX   0 
C7    1   -0.040413    0.156733    0.915302    11.00000    0.05004    0.06322 = 
         0.05508    0.00270    0.01374   -0.00585 
AFIX  43 
H7    2   -0.072327    0.028998    0.943624    11.00000   -1.20000 
AFIX   0 
C8    1    0.067498    0.151897    0.906408    11.00000    0.04232    0.04669 = 
         0.04614    0.00227    0.00868    0.00198 
AFIX  43 
H8    2    0.108229    0.020750    0.928982    11.00000   -1.20000 
AFIX   0 
C9    1    0.298116    0.258386    0.938560    11.00000    0.03364    0.04370 = 
         0.03904   -0.00166    0.00601   -0.00648 
C10   1    0.292775    0.415973    1.008107    11.00000    0.04168    0.05527 = 
         0.04890   -0.00780    0.00580    0.00079 
AFIX  43 
H10   2    0.255157    0.562668    1.000806    11.00000   -1.20000 
AFIX   0 
C11   1    0.342681    0.358172    1.088403    11.00000    0.05382    0.07563 = 
         0.04586   -0.01623    0.00307   -0.00399 
AFIX  43 
H11   2    0.337640    0.465356    1.134595    11.00000   -1.20000 
AFIX   0 
C12   1    0.399128    0.145385    1.100242    11.00000    0.05100    0.08445 = 
         0.04161    0.00396   -0.00539   -0.00553 
AFIX  43 
H12   2    0.432047    0.106023    1.154342    11.00000   -1.20000 
AFIX   0 
C13   1    0.406846   -0.010662    1.031149    11.00000    0.04456    0.06227 = 
         0.05508    0.00879   -0.00173    0.00017 
AFIX  43 
H13   2    0.446529   -0.154506    1.038405    11.00000   -1.20000 
AFIX   0 
C14   1    0.356020    0.044764    0.950946    11.00000    0.04896    0.05169 = 
         0.04105   -0.00335    0.00385   -0.00269 
AFIX  43 
H14   2    0.361051   -0.063349    0.905019    11.00000   -1.20000 
AFIX   0 
C15   1    0.182119    0.225861    0.699800    11.00000    0.04512    0.06184 = 
         0.03656   -0.00354    0.00861   -0.00394 
C16   1    0.028262    0.088152    0.619637    11.00000    0.08388    0.18098 = 
         0.11491   -0.00179   -0.05291   -0.02549 
AFIX 137 
H16A  2    0.060435    0.145322    0.569209    11.00000   -1.50000 
H16B  2   -0.021896    0.208238    0.636874    11.00000   -1.50000 
H16C  2   -0.008290   -0.063908    0.606636    11.00000   -1.50000 
AFIX   0 
C17   1    0.382996    0.027874    0.595464    11.00000    0.03836    0.05687 = 
         0.03639   -0.00145    0.00695    0.00633 
C18   1    0.411824    0.217886    0.543851    11.00000    0.05085    0.06471 = 
         0.04757    0.00836    0.00731   -0.00669 
AFIX  43 
H18   2    0.459066    0.338316    0.565819    11.00000   -1.20000 
AFIX   0 
C19   1    0.369774    0.227443    0.459154    11.00000    0.06377    0.08586 = 
         0.04955    0.02070    0.01333    0.00108 
AFIX  43 
H19   2    0.388017    0.357547    0.424367    11.00000   -1.20000 
AFIX   0 
C20   1    0.302107    0.050739    0.425204    11.00000    0.05779    0.10012 = 
         0.04233    0.00932    0.00212    0.01122 
C21   1    0.274501   -0.135291    0.478095    11.00000    0.06509    0.08369 = 
         0.06191   -0.00750   -0.00907   -0.00892 
AFIX  43 
H21   2    0.227660   -0.255930    0.455675    11.00000   -1.20000 
AFIX   0 
C22   1    0.313648   -0.150612    0.563638    11.00000    0.06286    0.06179 = 
         0.04404    0.00381    0.00219   -0.00650 
AFIX  43 
H22   2    0.293534   -0.278416    0.598670    11.00000   -1.20000 
AFIX   0 
C23   1    0.260052    0.058570    0.331110    11.00000    0.10048    0.16427 = 
         0.04903    0.00937   -0.01333    0.00740 
AFIX 137 
H23A  2    0.313042   -0.006412    0.295972    11.00000   -1.50000 
H23B  2    0.244344    0.225366    0.314538    11.00000   -1.50000 
H23C  2    0.196069   -0.038271    0.323077    11.00000   -1.50000 
AFIX   0 
H1A   2    0.381205    0.342526    0.748291    11.00000    0.01911 
HKLF 4 
  
REM  cd16484 in P2(1) 
REM R1 =  0.0442 for    3363 Fo > 4sig(Fo)  and  0.0511 for all    3805 data 
REM    268 parameters refined using      1 restraints 
  
END 
  
WGHT      0.0655      0.0000 
  
REM Instructions for potential hydrogen bonds 
HTAB C22 O1_$1 
HTAB N1 O3_$2 
  
REM Highest difference peak  0.181,  deepest hole -0.202,  1-sigma level  0.043 
Q1    1   0.3813  0.0259  0.6571  11.00000  0.05    0.18 
Q2    1   0.5065  0.0509  0.7425  11.00000  0.05    0.17 
Q3    1   0.3232  0.1336  0.2974  11.00000  0.05    0.16 
Q4    1   0.3979  0.0464  0.7550  11.00000  0.05    0.16 
Q5    1  -0.0391  0.0161  0.6430  11.00000  0.05    0.15 
Q6    1   0.1855  0.1273  0.3394  11.00000  0.05    0.15 
Q7    1   0.3944 -0.1925  0.8003  11.00000  0.05    0.14 
Q8    1   0.2582  0.3087  0.9792  11.00000  0.05    0.14 
Q9    1   0.5888  0.0496  0.7361  11.00000  0.05    0.14 
Q10   1   0.3127  0.4027  1.1432  11.00000  0.05    0.14 
Q11   1   0.4359  0.0146  0.9826  11.00000  0.05    0.14 
Q12   1   0.0915  0.0143  0.3260  11.00000  0.05    0.13 
Q13   1   0.0961  0.5028  0.8743  11.00000  0.05    0.13 
Q14   1   0.2655 -0.1216  0.2981  11.00000  0.05    0.13 
Q15   1   0.3856 -0.0256  0.9023  11.00000  0.05    0.12 
Q16   1   0.3566  0.4041  1.0485  11.00000  0.05    0.12 
Q17   1   0.4519  0.0126  0.8423  11.00000  0.05    0.12 
Q18   1   0.3507  0.3156  0.2669  11.00000  0.05    0.12 
Q19   1   0.4961 -0.0731  1.0312  11.00000  0.05    0.12 
Q20   1   0.2805  0.3595  1.0615  11.00000  0.05    0.12 
;
_shelx_res_checksum              5002
_shelx_hkl_file
; 
   1   0   0   92.65    3.12 
  -2   0   0    0.02    0.04 
   2   0   0    0.15    0.06 
  -3   0   0  254.69    7.50 
  -3   0   0  245.30    7.59 
   3   0   0  245.07    8.31 
  -4   0   0   94.31    2.97 
  -4   0   0   94.71    2.90 
  -5   0   0    7.37    0.31 
  -5   0   0    7.20    0.34 
  -6   0   0  178.46    5.50 
  -6   0   0  174.08    5.36 
  -7   0   0   13.99    0.55 
  -7   0   0   15.20    0.63 
  -8   0   0   17.98    0.76 
  -8   0   0   17.96    0.67 
  -9   0   0    1.83    0.24 
  -9   0   0    1.54    0.16 
 -10   0   0    0.01    0.10 
 -11   0   0    1.61    0.27 
 -12   0   0    1.72    0.28 
 -13   0   0    2.29    0.34 
 -14   0   0    0.18    0.20 
 -15   0   0    2.25    0.38 
 -16   0   0    1.46    0.34 
 -16   1   0    0.30    0.25 
 -15   1   0    0.46    0.21 
 -14   1   0    0.28    0.19 
 -13   1   0    0.47    0.19 
 -12   1   0    3.34    0.38 
 -11   1   0    2.15    0.27 
 -11   1   0    2.22    0.30 
 -10   1   0    5.06    0.37 
  -9   1   0    5.01    0.34 
  -9   1   0    3.94    0.31 
  -8   1   0    8.84    0.45 
  -7   1   0   41.45    1.43 
  -6   1   0   22.81    0.84 
  -5   1   0   30.51    1.06 
  -4   1   0    0.54    0.10 
  -3   1   0  178.74    5.52 
  -2   1   0  163.36    5.05 
  -1   1   0  588.60   17.91 
   0  -1   0    0.00    0.04 
  -1  -1   0  594.58   18.48 
   1   1   0  620.71   20.11 
  -2  -1   0  166.10    5.10 
  -2  -1   0  166.88    5.21 
   2   1   0  172.25    5.65 
  -3  -1   0  184.29    5.58 
  -3  -1   0  181.53    5.70 
   3   1   0  187.46    6.20 
  -4  -1   0    0.68    0.06 
  -4  -1   0    0.62    0.11 
   4   1   0    0.53    0.12 
  -5  -1   0   30.95    1.12 
  -5  -1   0   32.59    0.99 
   5   1   0   30.07    1.25 
  -6  -1   0   21.68    0.87 
  -6  -1   0   22.91    0.71 
   6   1   0   22.18    1.00 
  -7  -1   0   42.41    1.52 
  -7  -1   0   43.21    1.33 
   7   1   0   42.50    1.72 
  -8  -1   0    8.10    0.30 
  -8  -1   0    8.00    0.46 
   8   1   0    8.91    0.58 
  -9  -1   0    5.28    0.38 
 -10  -1   0    6.24    0.44 
 -11  -1   0    1.83    0.30 
 -12  -1   0    3.29    0.40 
 -13  -1   0    0.56    0.21 
 -14  -1   0    0.08    0.20 
 -15  -1   0    0.24    0.21 
 -16  -1   0    0.23    0.26 
 -16   2   0    0.53    0.27 
 -15   2   0    0.36    0.26 
 -14   2   0    1.62    0.33 
 -13   2   0    0.86    0.23 
 -12   2   0    0.53    0.20 
 -12   2   0    0.85    0.23 
 -11   2   0    0.08    0.13 
 -11   2   0    0.12    0.16 
 -10   2   0    9.94    0.55 
  -9   2   0    6.05    0.39 
  -8   2   0   10.80    0.54 
  -7   2   0    6.16    0.38 
  -6   2   0   16.49    0.71 
  -5   2   0    7.50    0.41 
  -4   2   0    2.25    0.23 
  -3   2   0    9.20    0.47 
  -2   2   0  180.74    5.69 
  -1   2   0    0.42    0.12 
   0  -2   0   43.93    1.54 
  -1  -2   0    0.26    0.10 
  -2  -2   0  184.29    5.86 
   2   2   0  188.71    6.32 
  -3  -2   0    9.12    0.47 
   3   2   0    9.50    0.48 
  -4  -2   0    1.89    0.22 
   4   2   0    2.68    0.22 
  -5  -2   0    7.02    0.43 
   5   2   0    7.67    0.44 
  -6  -2   0   14.30    0.71 
   6   2   0   16.18    0.77 
  -7  -2   0    5.98    0.41 
   7   2   0    5.28    0.41 
  -8  -2   0   10.01    0.59 
   8   2   0   10.42    0.65 
  -9  -2   0    6.49    0.47 
   9   2   0    5.24    0.46 
 -10  -2   0    9.38    0.63 
  10   2   0   10.08    0.69 
 -11  -2   0    0.51    0.21 
 -12  -2   0    1.02    0.30 
 -13  -2   0    0.53    0.24 
 -14  -2   0    1.33    0.34 
 -15  -2   0    0.58    0.25 
 -16  -2   0    0.71    0.27 
 -15   3   0    0.14    0.22 
 -14   3   0    0.25    0.23 
 -13   3   0    1.66    0.35 
 -13   3   0    1.66    0.31 
 -12   3   0    1.36    0.30 
 -12   3   0    1.45    0.27 
 -11   3   0    0.46    0.19 
 -10   3   0    7.74    0.50 
  -9   3   0    1.80    0.27 
  -8   3   0    0.66    0.18 
  -7   3   0    0.55    0.16 
  -6   3   0    2.13    0.28 
  -5   3   0    1.12    0.20 
  -4   3   0   12.86    0.67 
  -3   3   0   12.57    0.65 
  -2   3   0    1.45    0.25 
  -1   3   0    6.44    0.45 
   0  -3   0   -0.02    0.09 
  -1  -3   0    6.23    0.43 
  -2  -3   0    1.98    0.27 
   2   3   0    2.13    0.26 
  -3  -3   0   13.56    0.69 
   3   3   0   13.04    0.67 
  -4  -3   0   11.89    0.65 
   4   3   0   11.71    0.62 
  -5  -3   0    1.24    0.23 
   5   3   0    1.30    0.22 
  -6  -3   0    2.02    0.30 
   6   3   0    2.12    0.28 
  -7  -3   0    0.75    0.22 
   7   3   0    1.11    0.23 
  -8  -3   0    1.04    0.25 
   8   3   0    1.01    0.25 
  -9  -3   0    1.56    0.32 
   9   3   0    1.90    0.34 
 -10  -3   0    8.44    0.65 
  10   3   0    9.39    0.67 
 -11  -3   0    0.72    0.29 
  11   3   0    0.21    0.21 
 -12  -3   0    1.34    0.36 
  12   3   0    1.51    0.37 
 -13  -3   0    1.72    0.40 
 -14  -3   0    0.37    0.26 
 -15  -3   0    0.11    0.29 
 -14   4   0    0.90    0.28 
 -13   4   0   -0.04    0.19 
 -13   4   0    0.33    0.25 
 -12   4   0    0.24    0.19 
 -11   4   0    0.37    0.19 
 -10   4   0    0.32    0.18 
  -9   4   0    4.85    0.46 
  -8   4   0    1.22    0.26 
  -7   4   0    2.15    0.33 
  -6   4   0    4.29    0.44 
  -5   4   0   12.31    0.74 
  -4   4   0    7.45    0.55 
  -3   4   0    0.61    0.20 
  -2   4   0    6.28    0.51 
  -1   4   0   15.44    0.85 
   0  -4   0   18.40    0.93 
  -1  -4   0   14.98    0.82 
  -2  -4   0    5.79    0.52 
   2   4   0    7.38    0.50 
  -3  -4   0    0.21    0.18 
   3   4   0    0.84    0.19 
  -4  -4   0    6.93    0.54 
   4   4   0    5.70    0.43 
  -5  -4   0   11.21    0.72 
   5   4   0   11.97    0.67 
  -6  -4   0    4.11    0.48 
   6   4   0    4.71    0.40 
  -7  -4   0    2.46    0.40 
   7   4   0    2.54    0.35 
  -8  -4   0    1.04    0.29 
   8   4   0    1.31    0.27 
  -9  -4   0    5.60    0.60 
   9   4   0    5.81    0.56 
 -10  -4   0    0.75    0.32 
 -11  -4   0    0.25    0.25 
 -12  -4   0    0.44    0.27 
 -13  -4   0    0.51    0.27 
 -12   5   0    1.95    0.39 
 -11   5   0    0.76    0.27 
 -10   5   0   -0.10    0.15 
  -9   5   0    1.33    0.30 
  -8   5   0    0.58    0.24 
  -7   5   0    1.39    0.30 
  -6   5   0    0.56    0.25 
  -5   5   0    0.41    0.21 
  -4   5   0    7.37    0.65 
  -3   5   0    6.84    0.63 
  -2   5   0   10.18    0.74 
  -1   5   0    8.01    0.70 
   0   5   0   -0.38    0.16 
  -1  -5   0    7.88    0.63 
  -2  -5   0   12.31    0.81 
  -3  -5   0    7.03    0.64 
  -4  -5   0    6.98    0.65 
  -5  -5   0    0.40    0.21 
  -6  -5   0    1.12    0.33 
  -7  -5   0    1.58    0.39 
  -8  -5   0    0.36    0.25 
  -9  -5   0    1.05    0.35 
 -10  -5   0    0.07    0.24 
 -11  -5   0    0.51    0.32 
 -12  -5   0    1.87    0.50 
  -9   6   0    0.55    0.29 
  -8   6   0    0.08    0.22 
  -7   6   0    0.04    0.22 
  -6   6   0    2.49    0.44 
  -5   6   0    0.18    0.25 
  -4   6   0    0.67    0.29 
  -3   6   0    0.17    0.23 
  -2   6   0    0.34    0.27 
  -1   6   0   -0.13    0.20 
   0   6   0    8.93    0.81 
   1   6   0   -0.35    0.20 
  -2  -6   0    0.62    0.30 
  -3  -6   0    0.33    0.25 
  -4  -6   0    0.47    0.25 
  -5  -6   0    0.41    0.23 
  -6  -6   0    2.44    0.48 
  -7  -6   0    0.63    0.29 
  -8  -6   0   -0.05    0.24 
  -9  -6   0    0.67    0.33 
  -4   7   0    0.00    0.26 
  -3   7   0    0.15    0.25 
  -2   7   0    0.26    0.30 
  -1   7   0    0.46    0.30 
   0   7   0   -0.09    0.27 
   1   7   0    0.29    0.29 
   2   7   0   -0.17    0.26 
  -3  -7   0    0.42    0.29 
  -4  -7   0    0.52    0.30 
  -4  -7   1    1.21    0.37 
  -3  -7   1    0.32    0.25 
   2   7  -1    0.16    0.29 
   1   7  -1    0.42    0.32 
   0   7  -1    0.59    0.32 
  -1   7  -1   -0.05    0.25 
  -2   7  -1    0.34    0.27 
  -3   7  -1   -0.24    0.24 
  -4   7  -1    0.03    0.26 
  -9  -6   1   -0.43    0.23 
  -8  -6   1   -0.02    0.25 
  -7  -6   1    1.40    0.38 
  -6  -6   1    0.17    0.24 
  -5  -6   1    0.88    0.34 
  -4  -6   1    0.44    0.25 
  -3  -6   1    1.16    0.33 
  -2  -6   1    1.35    0.35 
   1   6  -1   -0.04    0.24 
   0   6  -1    0.92    0.33 
  -1   6  -1    3.31    0.51 
  -2   6  -1    0.36    0.26 
  -3   6  -1    0.67    0.28 
  -4   6  -1    1.38    0.36 
  -5   6  -1    2.86    0.48 
  -6   6  -1    1.90    0.41 
  -7   6  -1    1.26    0.35 
  -8   6  -1    0.25    0.22 
  -9   6  -1    0.64    0.28 
 -12  -5   1    0.65    0.36 
 -11  -5   1    1.15    0.39 
 -10  -5   1    0.30    0.29 
  -9  -5   1    1.23    0.37 
  -8  -5   1    0.40    0.27 
  -7  -5   1    3.36    0.50 
  -6  -5   1    2.38    0.43 
  -5  -5   1    1.86    0.38 
   4   5  -1    0.86    0.25 
  -4  -5   1    0.25    0.20 
   3   5  -1    3.19    0.42 
  -3  -5   1    2.18    0.38 
   2   5  -1    0.48    0.20 
  -2  -5   1    0.49    0.22 
  -1  -5   1   18.75    1.03 
   0   5  -1    5.18    0.56 
  -1   5  -1    3.39    0.48 
  -2   5  -1    0.29    0.20 
  -3   5  -1    0.40    0.22 
  -4   5  -1    5.15    0.54 
  -5   5  -1    4.52    0.51 
  -6   5  -1    1.01    0.27 
  -7   5  -1    0.78    0.25 
  -8   5  -1    0.75    0.25 
  -9   5  -1    0.44    0.24 
 -10   5  -1    0.07    0.17 
 -11   5  -1    0.14    0.21 
 -12   5  -1    0.29    0.23 
 -12   5  -1    0.33    0.26 
 -14  -4   1    0.28    0.31 
 -13  -4   1    1.15    0.37 
 -12  -4   1    1.59    0.39 
  11   4  -1    0.40    0.29 
 -11  -4   1   -0.08    0.23 
  10   4  -1    5.39    0.59 
 -10  -4   1    5.25    0.62 
   9   4  -1    1.35    0.31 
  -9  -4   1    1.13    0.32 
   8   4  -1    1.92    0.33 
  -8  -4   1    2.18    0.39 
   7   4  -1    0.40    0.18 
  -7  -4   1    0.05    0.19 
   6   4  -1    4.41    0.45 
  -6  -4   1    4.01    0.47 
   5   4  -1    4.05    0.42 
  -5  -4   1    4.14    0.46 
   4   4  -1   15.20    0.84 
  -4  -4   1   15.91    0.85 
   3   4  -1   24.80    1.16 
  -3  -4   1   23.04    1.12 
  -2  -4   1    4.63    0.45 
  -1  -4   1    3.62    0.40 
   0  -4   1    2.14    0.33 
  -1   4  -1    5.91    0.52 
  -2   4  -1   23.83    1.12 
  -3   4  -1   16.97    0.87 
  -4   4  -1    3.42    0.40 
  -5   4  -1    3.03    0.37 
  -6   4  -1    0.50    0.19 
  -7   4  -1    3.85    0.41 
  -8   4  -1    0.58    0.20 
  -9   4  -1    0.78    0.24 
 -10   4  -1    2.16    0.35 
 -11   4  -1    0.20    0.17 
 -11   4  -1    0.09    0.19 
 -12   4  -1    0.98    0.28 
 -12   4  -1    0.86    0.25 
 -13   4  -1    0.80    0.27 
 -13   4  -1    0.99    0.29 
 -15  -3   1    1.85    0.45 
 -14  -3   1    0.68    0.30 
  13   3  -1    0.22    0.26 
 -13  -3   1   -0.02    0.19 
  12   3  -1   -0.43    0.16 
 -12  -3   1    0.15    0.24 
  11   3  -1    0.22    0.20 
 -11  -3   1    0.26    0.23 
  10   3  -1    3.49    0.48 
 -10  -3   1    2.55    0.41 
   9   3  -1   21.41    1.14 
  -9  -3   1   23.78    1.13 
   8   3  -1    0.84    0.21 
  -8  -3   1    0.60    0.22 
   7   3  -1    8.10    0.55 
  -7  -3   1    8.93    0.58 
   6   3  -1    2.64    0.33 
  -6  -3   1    2.49    0.32 
   5   3  -1    1.44    0.24 
  -5  -3   1    0.86    0.20 
   4   3  -1    1.68    0.25 
  -4  -3   1    1.81    0.27 
   3   3  -1   41.29    1.71 
  -3  -3   1   44.64    1.63 
  -2  -3   1    1.19    0.21 
  -1  -3   1    1.82    0.25 
   0  -3   1    8.55    0.50 
  -1   3  -1   17.95    0.84 
  -2   3  -1   41.49    1.57 
  -3   3  -1   20.19    0.90 
  -4   3  -1   17.80    0.82 
  -5   3  -1    4.37    0.35 
  -6   3  -1   10.91    0.59 
  -7   3  -1    7.82    0.48 
  -8   3  -1    0.09    0.11 
  -9   3  -1    8.41    0.52 
 -10   3  -1    0.54    0.19 
 -11   3  -1    1.27    0.29 
 -11   3  -1    1.51    0.27 
 -12   3  -1    0.33    0.19 
 -12   3  -1    0.08    0.16 
 -13   3  -1    0.50    0.24 
 -13   3  -1    0.81    0.25 
 -14   3  -1    0.73    0.27 
 -15   3  -1    2.43    0.42 
 -16  -2   1    0.50    0.29 
 -15  -2   1    1.31    0.33 
 -14  -2   1    0.35    0.23 
 -13  -2   1    0.70    0.26 
  12   2  -1    2.47    0.46 
 -12  -2   1    1.83    0.36 
  11   2  -1    1.54    0.34 
 -11  -2   1    1.25    0.28 
  10   2  -1    5.91    0.58 
 -10  -2   1    5.84    0.47 
   9   2  -1    6.54    0.53 
  -9  -2   1    7.01    0.50 
   8   2  -1    2.70    0.36 
  -8  -2   1    2.90    0.32 
   7   2  -1    6.24    0.46 
  -7  -2   1    6.34    0.43 
   6   2  -1    5.60    0.40 
  -6  -2   1    5.51    0.37 
   5   2  -1   11.01    0.59 
  -5  -2   1   11.53    0.57 
   4   2  -1    7.87    0.47 
  -4  -2   1    9.24    0.47 
   3   2  -1    9.38    0.50 
  -3  -2   1    9.38    0.47 
   2   2  -1    1.02    0.17 
  -2  -2   1    0.86    0.15 
  -1  -2   1   11.31    0.53 
   0  -2   1    1.24    0.17 
  -1   2  -1   35.86    1.29 
  -2   2  -1   12.17    0.55 
  -3   2  -1   65.96    2.20 
  -4   2  -1   50.52    1.73 
  -5   2  -1   20.38    0.81 
  -6   2  -1    3.22    0.25 
  -7   2  -1   12.56    0.58 
  -8   2  -1    4.07    0.30 
  -9   2  -1    9.93    0.53 
  -9   2  -1   10.18    0.59 
 -10   2  -1    5.54    0.43 
 -10   2  -1    5.42    0.39 
 -11   2  -1    4.53    0.43 
 -11   2  -1    4.53    0.37 
 -12   2  -1    6.52    0.48 
 -12   2  -1    7.57    0.53 
 -13   2  -1    2.39    0.36 
 -14   2  -1    0.96    0.28 
 -15   2  -1    1.49    0.35 
 -16   2  -1    0.92    0.34 
 -16  -1   1    1.71    0.36 
 -15  -1   1    0.23    0.22 
 -14  -1   1    0.30    0.20 
 -13  -1   1    0.83    0.24 
 -12  -1   1    3.32    0.39 
 -11  -1   1    5.37    0.43 
  10   1  -1    9.93    0.71 
 -10  -1   1   10.12    0.57 
   9   1  -1   13.57    0.83 
  -9  -1   1   15.54    0.71 
   8   1  -1    9.00    0.58 
  -8  -1   1    7.72    0.44 
   7   1  -1   11.63    0.68 
  -7  -1   1   12.46    0.56 
   6   1  -1   24.24    1.06 
  -6  -1   1   23.74    0.91 
   5   1  -1    2.94    0.28 
  -5  -1   1    2.44    0.20 
   4   1  -1  174.71    5.88 
  -4  -1   1  171.25    5.37 
   3   1  -1  192.84    6.40 
  -3  -1   1  187.15    5.86 
   2   1  -1  190.44    6.47 
  -2  -1   1  194.38    5.93 
  -1  -1   1  605.99   18.42 
   0  -1   1  286.44    8.76 
  -1   1  -1   14.37    0.53 
  -2   1  -1   55.52    1.78 
  -3   1  -1   32.72    1.10 
  -4   1  -1   34.87    1.17 
  -5   1  -1   16.61    0.63 
  -6   1  -1   55.36    1.83 
  -7   1  -1   24.69    0.92 
  -7   1  -1   24.39    0.95 
  -8   1  -1    2.05    0.23 
  -8   1  -1    2.39    0.23 
  -9   1  -1   19.83    0.82 
  -9   1  -1   18.92    0.81 
 -10   1  -1    0.64    0.17 
 -10   1  -1    1.29    0.22 
 -11   1  -1   11.61    0.65 
 -12   1  -1    0.10    0.16 
 -13   1  -1    2.65    0.38 
 -14   1  -1    2.97    0.40 
 -15   1  -1    2.63    0.41 
 -16   1  -1    0.37    0.26 
 -16   0   1   -0.03    0.18 
 -15   0   1    0.52    0.24 
 -14   0   1    0.34    0.18 
 -13   0   1    0.47    0.21 
 -12   0   1    4.86    0.40 
 -11   0   1    0.05    0.11 
 -10   0   1    5.31    0.39 
  -9   0   1    3.38    0.23 
  -9   0   1    3.05    0.30 
  -8   0   1    3.09    0.20 
  -8   0   1    2.87    0.27 
  -7   0   1    0.27    0.08 
  -7   0   1    0.24    0.10 
   6   0  -1   24.91    1.11 
  -6   0   1   25.70    0.93 
   5   0  -1   34.55    1.40 
  -5   0   1   36.23    1.21 
   4   0  -1   21.09    0.88 
  -4   0   1   21.49    0.75 
   3   0  -1   19.70    0.79 
  -3   0   1   19.24    0.67 
   2   0  -1   16.02    0.63 
  -2   0   1   15.82    0.53 
   1   0  -1   80.30    2.65 
   1   0  -1   80.31    2.41 
  -1   0   1   73.91    2.41 
  -1   0  -1  574.11   17.26 
  -2   0  -1   13.58    0.47 
  -3   0  -1  203.31    6.23 
  -4   0  -1  131.44    4.09 
  -5   0  -1   24.36    0.87 
  -5   0  -1   23.73    0.82 
  -6   0  -1    0.49    0.11 
  -6   0  -1    0.46    0.09 
  -7   0  -1   63.87    2.18 
  -7   0  -1   66.32    2.08 
  -8   0  -1    5.32    0.35 
  -8   0  -1    6.06    0.30 
  -9   0  -1    8.99    0.41 
  -9   0  -1    8.74    0.49 
 -10   0  -1    0.94    0.14 
 -10   0  -1    0.74    0.18 
 -11   0  -1    6.39    0.45 
 -12   0  -1    5.52    0.43 
 -13   0  -1    1.53    0.29 
 -14   0  -1    0.97    0.25 
 -15   0  -1    0.44    0.23 
 -16   0  -1    2.05    0.42 
 -16   1   1    0.90    0.28 
 -15   1   1    0.71    0.27 
 -14   1   1    0.35    0.20 
 -13   1   1    0.84    0.25 
 -12   1   1    3.96    0.40 
 -11   1   1    5.95    0.40 
 -11   1   1    5.82    0.42 
 -10   1   1   10.55    0.54 
 -10   1   1    8.65    0.50 
  -9   1   1   16.00    0.71 
  -8   1   1    7.92    0.42 
  -7   1   1   12.17    0.53 
  -6   1   1   25.40    0.93 
  -5   1   1    2.78    0.20 
  -4   1   1  178.72    5.54 
  -3   1   1  192.57    5.95 
  -2   1   1  187.43    5.80 
  -1   1   1  560.23   17.06 
   0  -1  -1  270.87    8.30 
   0  -1  -1  278.90    8.44 
  -1  -1  -1   14.12    0.51 
  -1  -1  -1   14.02    0.56 
   1   1   1   14.92    0.54 
  -2  -1  -1   58.69    1.91 
   2   1   1   59.00    2.02 
  -3  -1  -1   33.23    1.07 
  -3  -1  -1   33.96    1.17 
   3   1   1   34.25    1.24 
  -4  -1  -1   34.35    1.21 
  -4  -1  -1   34.68    1.10 
   4   1   1   34.90    1.32 
  -5  -1  -1   16.44    0.66 
  -5  -1  -1   16.55    0.55 
   5   1   1   15.37    0.73 
  -6  -1  -1   53.06    1.85 
  -6  -1  -1   54.94    1.69 
   6   1   1   54.74    2.06 
  -7  -1  -1   26.44    1.01 
  -7  -1  -1   24.58    0.83 
  -8  -1  -1    2.29    0.26 
  -8  -1  -1    2.42    0.15 
  -9  -1  -1   19.69    0.88 
 -10  -1  -1    0.65    0.19 
 -11  -1  -1   11.41    0.66 
 -12  -1  -1    0.17    0.16 
 -13  -1  -1    1.95    0.35 
 -14  -1  -1    3.82    0.49 
 -15  -1  -1    2.46    0.42 
 -16  -1  -1    0.49    0.27 
 -16   2   1    0.19    0.24 
 -15   2   1    0.53    0.25 
 -14   2   1   -0.16    0.15 
 -13   2   1    0.59    0.19 
 -12   2   1    1.93    0.29 
 -12   2   1    2.03    0.33 
 -11   2   1    1.29    0.23 
 -10   2   1    5.65    0.39 
  -9   2   1    6.35    0.41 
  -8   2   1    2.68    0.28 
  -7   2   1    6.31    0.39 
  -6   2   1    5.66    0.36 
  -5   2   1   11.63    0.56 
  -4   2   1    8.17    0.44 
  -3   2   1   10.31    0.52 
  -2   2   1    0.76    0.15 
  -1   2   1   10.68    0.53 
   0  -2  -1    1.20    0.18 
  -1  -2  -1   33.52    1.24 
  -2  -2  -1   13.06    0.60 
  -2  -2  -1   12.96    0.54 
   2   2   1   12.73    0.56 
  -3  -2  -1   61.46    2.09 
  -3  -2  -1   60.94    1.97 
   3   2   1   60.54    2.16 
  -4  -2  -1   52.01    1.68 
  -4  -2  -1   52.84    1.82 
   4   2   1   49.26    1.86 
  -5  -2  -1   18.76    0.84 
  -5  -2  -1   19.37    0.71 
   5   2   1   20.06    0.85 
  -6  -2  -1    3.18    0.20 
  -6  -2  -1    3.12    0.31 
   6   2   1    3.26    0.28 
  -7  -2  -1   10.72    0.43 
  -7  -2  -1   10.33    0.59 
   7   2   1   11.03    0.63 
  -8  -2  -1    3.37    0.36 
   8   2   1    4.72    0.39 
  -9  -2  -1    8.91    0.59 
   9   2   1   10.44    0.66 
 -10  -2  -1    5.10    0.49 
 -11  -2  -1    4.05    0.47 
 -12  -2  -1    7.15    0.64 
 -13  -2  -1    2.77    0.46 
 -14  -2  -1    0.52    0.26 
 -15  -2  -1    2.19    0.45 
 -16  -2  -1    0.45    0.31 
 -15   3   1    1.41    0.34 
 -14   3   1    0.49    0.23 
 -13   3   1    0.02    0.22 
 -13   3   1    0.02    0.17 
 -12   3   1   -0.11    0.12 
 -11   3   1    0.11    0.15 
 -10   3   1    3.07    0.36 
  -9   3   1   25.44    1.11 
  -8   3   1    1.10    0.22 
  -7   3   1    8.74    0.54 
  -6   3   1    2.50    0.32 
  -5   3   1    0.97    0.21 
  -4   3   1    1.79    0.27 
  -3   3   1   43.72    1.66 
  -2   3   1    1.63    0.27 
  -1   3   1    2.45    0.31 
   0  -3  -1    7.31    0.47 
  -1  -3  -1   18.34    0.86 
  -2  -3  -1   40.54    1.58 
   2   3   1   41.82    1.58 
  -3  -3  -1   18.34    0.87 
   3   3   1   18.68    0.82 
  -4  -3  -1   16.92    0.84 
   4   3   1   18.50    0.80 
  -5  -3  -1    4.01    0.40 
   5   3   1    4.49    0.32 
  -6  -3  -1    9.91    0.62 
   6   3   1   10.91    0.60 
  -7  -3  -1    5.47    0.46 
   7   3   1    6.16    0.45 
  -8  -3  -1   -0.13    0.11 
   8   3   1    0.09    0.15 
  -9  -3  -1    6.89    0.56 
   9   3   1    7.91    0.56 
 -10  -3  -1    0.73    0.26 
  10   3   1    0.48    0.20 
 -11  -3  -1    1.37    0.35 
  11   3   1    1.28    0.32 
 -12  -3  -1   -0.35    0.16 
 -13  -3  -1    0.83    0.30 
 -14  -3  -1    0.30    0.25 
 -15  -3  -1    2.86    0.54 
 -14   4   1    0.31    0.21 
 -13   4   1    0.67    0.25 
 -12   4   1    1.07    0.27 
 -11   4   1    0.45    0.22 
 -10   4   1    4.35    0.46 
  -9   4   1    0.87    0.24 
  -8   4   1    1.53    0.29 
  -7   4   1    0.02    0.15 
  -6   4   1    3.99    0.44 
  -5   4   1    3.76    0.43 
  -4   4   1   16.38    0.89 
  -3   4   1   24.98    1.18 
  -2   4   1    5.81    0.53 
  -1   4   1    3.70    0.44 
   0  -4  -1    1.98    0.33 
  -1  -4  -1    4.72    0.47 
  -2  -4  -1   23.72    1.11 
   2   4   1   21.90    1.02 
  -3  -4  -1   18.75    0.97 
   3   4   1   18.63    0.88 
  -4  -4  -1    3.11    0.41 
   4   4   1    3.45    0.34 
  -5  -4  -1    2.03    0.36 
   5   4   1    3.55    0.35 
  -6  -4  -1    0.37    0.22 
   6   4   1    0.64    0.20 
  -7  -4  -1    3.32    0.46 
   7   4   1    4.57    0.39 
  -8  -4  -1    0.67    0.26 
  -9  -4  -1    1.22    0.31 
 -10  -4  -1    2.30    0.46 
 -11  -4  -1    0.66    0.29 
 -12  -4  -1    1.35    0.35 
 -13  -4  -1    0.84    0.31 
 -12   5   1    0.33    0.25 
 -11   5   1    0.84    0.30 
 -10   5   1    0.01    0.19 
  -9   5   1    1.04    0.29 
  -8   5   1    0.56    0.24 
  -7   5   1    3.61    0.48 
  -6   5   1    1.28    0.32 
  -5   5   1    2.81    0.44 
  -4   5   1    0.41    0.23 
  -3   5   1    2.17    0.39 
  -2   5   1    0.26    0.22 
  -1   5   1   15.95    0.98 
   0  -5  -1    4.60    0.54 
   0   5   1    5.00    0.57 
  -1  -5  -1    3.28    0.47 
  -2  -5  -1   -0.10    0.15 
  -3  -5  -1    0.25    0.20 
  -4  -5  -1    6.44    0.63 
  -5  -5  -1    5.41    0.60 
  -6  -5  -1    1.52    0.36 
  -7  -5  -1    0.89    0.31 
  -8  -5  -1    0.66    0.30 
  -9  -5  -1    0.11    0.21 
 -10  -5  -1   -0.12    0.24 
 -11  -5  -1    0.37    0.28 
 -12  -5  -1   -0.16    0.24 
  -9   6   1    0.16    0.23 
  -8   6   1    0.60    0.28 
  -7   6   1    0.98    0.35 
  -6   6   1   -0.13    0.19 
  -5   6   1    0.77    0.29 
  -4   6   1    0.64    0.31 
  -3   6   1    1.19    0.35 
  -2   6   1    1.06    0.34 
  -1   6   1    0.08    0.23 
   0   6   1    0.85    0.33 
  -1  -6  -1    3.96    0.55 
   1   6   1    3.88    0.57 
  -2  -6  -1    0.72    0.29 
  -3  -6  -1    0.62    0.27 
  -4  -6  -1    1.48    0.38 
  -5  -6  -1    2.49    0.47 
  -6  -6  -1    2.01    0.43 
  -7  -6  -1    1.26    0.38 
  -8  -6  -1   -0.20    0.23 
  -9  -6  -1    0.72    0.33 
  -4   7   1    0.35    0.29 
  -3   7   1    0.69    0.31 
  -2   7   1   -0.12    0.23 
  -1   7   1    0.49    0.29 
   0   7   1    0.53    0.33 
   1   7   1   -0.08    0.24 
   2   7   1    0.06    0.28 
  -3  -7  -1    0.13    0.26 
  -4  -7  -1    0.26    0.27 
  -4  -7   2    1.08    0.34 
  -3  -7   2    0.36    0.27 
   2   7  -2    0.45    0.30 
   1   7  -2    0.85    0.36 
   0   7  -2   -0.13    0.25 
  -1   7  -2    1.18    0.39 
  -2   7  -2    0.92    0.36 
  -3   7  -2    0.18    0.28 
  -4   7  -2   -0.02    0.27 
  -9  -6   2    0.90    0.35 
  -8  -6   2    0.76    0.34 
  -7  -6   2    0.32    0.27 
  -6  -6   2    0.30    0.24 
  -5  -6   2   -0.02    0.23 
  -4  -6   2    0.78    0.33 
  -3  -6   2    0.76    0.32 
  -2  -6   2    1.57    0.37 
   1   6  -2   -0.09    0.21 
   0   6  -2    0.83    0.30 
  -1   6  -2    1.32    0.34 
  -2   6  -2    3.77    0.53 
  -3   6  -2    0.47    0.26 
  -4   6  -2    0.13    0.21 
  -5   6  -2    0.47    0.26 
  -6   6  -2    1.61    0.38 
  -7   6  -2    1.24    0.35 
  -8   6  -2    0.07    0.22 
  -9   6  -2    0.09    0.22 
 -12  -5   2    0.79    0.37 
 -11  -5   2    0.86    0.36 
 -10  -5   2   -0.04    0.22 
  -9  -5   2   -0.08    0.23 
  -8  -5   2    1.35    0.39 
  -7  -5   2    0.11    0.25 
   6   5  -2    3.59    0.49 
  -6  -5   2    3.69    0.52 
   5   5  -2    2.83    0.42 
  -5  -5   2    3.26    0.48 
   4   5  -2    6.90    0.57 
  -4  -5   2    6.79    0.63 
   3   5  -2    0.70    0.24 
  -3  -5   2    0.51    0.22 
  -2  -5   2    5.86    0.57 
  -1  -5   2    1.34    0.31 
   0   5  -2   11.92    0.78 
  -1   5  -2    9.67    0.70 
  -2   5  -2    0.34    0.23 
  -3   5  -2    5.77    0.55 
  -4   5  -2    4.48    0.50 
  -5   5  -2    0.04    0.14 
  -6   5  -2    1.97    0.35 
  -7   5  -2    0.47    0.22 
  -8   5  -2    0.62    0.22 
  -9   5  -2    0.18    0.19 
 -10   5  -2    0.49    0.24 
 -10   5  -2    0.74    0.27 
 -11   5  -2    0.43    0.22 
 -11   5  -2    0.21    0.22 
 -14  -4   2    0.74    0.35 
  13   4  -2    0.25    0.34 
 -13  -4   2    0.09    0.21 
  12   4  -2    0.14    0.29 
 -12  -4   2    0.15    0.25 
  11   4  -2    1.12    0.36 
 -11  -4   2    1.68    0.40 
  10   4  -2    1.28    0.34 
 -10  -4   2    2.13    0.43 
   9   4  -2    1.05    0.29 
  -9  -4   2    1.51    0.37 
   8   4  -2    3.68    0.46 
  -8  -4   2    3.71    0.48 
   7   4  -2    6.76    0.54 
  -7  -4   2    6.33    0.59 
   6   4  -2    3.02    0.41 
  -6  -4   2    3.34    0.43 
   5   4  -2    1.45    0.29 
  -5  -4   2    0.88    0.26 
   4   4  -2    4.85    0.44 
  -4  -4   2    5.36    0.49 
   3   4  -2   11.45    0.71 
  -3  -4   2   11.09    0.68 
  -2  -4   2   14.60    0.79 
  -1  -4   2    0.46    0.18 
   0  -4   2    8.80    0.57 
  -1   4  -2    2.69    0.36 
  -2   4  -2    6.20    0.47 
  -3   4  -2    4.06    0.41 
  -4   4  -2    5.72    0.46 
  -5   4  -2    4.03    0.40 
  -6   4  -2    6.43    0.48 
  -7   4  -2    1.34    0.26 
  -8   4  -2    5.32    0.44 
  -9   4  -2    0.40    0.20 
 -10   4  -2    0.16    0.19 
 -10   4  -2    0.10    0.16 
 -11   4  -2    2.06    0.33 
 -11   4  -2    2.54    0.42 
 -12   4  -2    0.29    0.20 
 -12   4  -2    0.17    0.20 
 -13   4  -2    1.53    0.34 
 -15  -3   2    0.15    0.29 
  14   3  -2    2.59    0.54 
 -14  -3   2    2.42    0.46 
  13   3  -2    1.70    0.43 
 -13  -3   2    2.26    0.45 
  12   3  -2    1.04    0.34 
 -12  -3   2    0.58    0.29 
  11   3  -2    1.33    0.36 
 -11  -3   2    1.36    0.35 
  10   3  -2    1.61    0.34 
 -10  -3   2    1.49    0.32 
   9   3  -2   11.45    0.76 
  -9  -3   2   11.64    0.73 
   8   3  -2    9.61    0.66 
  -8  -3   2   10.16    0.64 
   7   3  -2    2.22    0.34 
  -7  -3   2    2.39    0.33 
   6   3  -2   17.32    0.90 
  -6  -3   2   17.57    0.85 
   5   3  -2   21.82    1.03 
  -5  -3   2   19.52    0.92 
   4   3  -2    5.60    0.42 
  -4  -3   2    4.46    0.37 
   3   3  -2   17.88    0.90 
  -3  -3   2   17.87    0.82 
  -2  -3   2   25.31    1.06 
  -1  -3   2    0.03    0.09 
   0  -3   2   28.17    1.12 
  -1   3  -2    1.75    0.25 
  -2   3  -2   13.72    0.67 
  -3   3  -2    4.38    0.34 
  -4   3  -2    7.16    0.44 
  -5   3  -2    1.62    0.23 
  -6   3  -2    6.70    0.42 
  -7   3  -2    5.65    0.39 
  -8   3  -2    7.26    0.46 
  -9   3  -2    0.81    0.24 
  -9   3  -2    1.44    0.24 
 -10   3  -2   15.77    0.87 
 -10   3  -2   15.66    0.76 
 -11   3  -2    1.40    0.29 
 -11   3  -2    0.92    0.22 
 -12   3  -2    1.46    0.32 
 -12   3  -2    1.13    0.24 
 -13   3  -2    0.06    0.18 
 -13   3  -2    0.30    0.23 
 -14   3  -2    0.08    0.20 
 -15   3  -2    0.51    0.29 
 -16  -2   2    1.34    0.34 
 -15  -2   2    0.69    0.26 
 -14  -2   2    0.18    0.20 
  13   2  -2   -0.10    0.20 
 -13  -2   2    0.48    0.25 
  12   2  -2    0.44    0.25 
 -12  -2   2    0.71    0.26 
  11   2  -2    0.73    0.26 
 -11  -2   2    0.70    0.22 
  10   2  -2   11.72    0.79 
 -10  -2   2   11.43    0.68 
   9   2  -2    7.85    0.59 
  -9  -2   2    7.64    0.52 
   8   2  -2   19.15    0.96 
  -8  -2   2   17.19    0.83 
  -7  -2   2   43.81    1.62 
   6   2  -2    5.17    0.40 
  -6  -2   2    4.47    0.34 
   5   2  -2   61.68    2.33 
   5   2  -2   61.16    1.91 
  -5  -2   2   63.69    2.14 
   4   2  -2   40.69    1.60 
  -4  -2   2   39.22    1.43 
   3   2  -2   46.59    1.79 
  -3  -2   2   45.69    1.60 
  -2  -2   2   38.46    1.36 
  -1  -2   2    1.63    0.18 
   0  -2   2   52.94    1.78 
  -1   2  -2   47.65    1.63 
  -2   2  -2   20.42    0.79 
  -3   2  -2   10.69    0.49 
  -4   2  -2    2.01    0.19 
  -5   2  -2    8.00    0.41 
  -6   2  -2    7.24    0.39 
  -7   2  -2    2.04    0.21 
  -7   2  -2    1.87    0.26 
  -8   2  -2   11.63    0.57 
  -8   2  -2   13.25    0.67 
  -9   2  -2    8.57    0.47 
  -9   2  -2    7.98    0.52 
 -10   2  -2    2.36    0.31 
 -10   2  -2    1.57    0.24 
 -11   2  -2    7.33    0.51 
 -11   2  -2    7.23    0.48 
 -12   2  -2    0.69    0.23 
 -12   2  -2    0.72    0.21 
 -13   2  -2    2.08    0.34 
 -14   2  -2    1.92    0.36 
 -15   2  -2    0.98    0.32 
 -16  -1   2    0.06    0.18 
 -15  -1   2    0.82    0.25 
 -14  -1   2    0.10    0.18 
 -13  -1   2    0.94    0.25 
 -12  -1   2    6.24    0.48 
  11   1  -2    6.70    0.61 
 -11  -1   2    7.93    0.50 
  10   1  -2    6.58    0.56 
 -10  -1   2    6.32    0.43 
   9   1  -2    2.97    0.40 
  -9  -1   2    2.26    0.27 
   8   1  -2    6.25    0.49 
  -8  -1   2    5.63    0.37 
   7   1  -2    2.45    0.32 
  -7  -1   2    2.39    0.23 
   6   1  -2  125.82    4.46 
  -6  -1   2  127.50    4.02 
   5   1  -2   69.98    2.51 
  -5  -1   2   67.40    2.23 
   4   1  -2   25.61    1.09 
  -4  -1   2   28.24    0.96 
   3   1  -2  156.06    4.59 
   3   1  -2  151.35    5.17 
  -3  -1   2  146.30    4.68 
   2   1  -2  475.24   15.13 
   2   1  -2  438.62   13.63 
  -2  -1   2  449.94   13.83 
   0   1  -2  142.59    4.35 
   0  -1   2  142.11    4.39 
  -1   1  -2   57.12    1.82 
  -1   1  -2   57.17    1.81 
  -2   1  -2  153.45    4.70 
  -2   1  -2  151.74    4.69 
  -3   1  -2   25.67    0.93 
  -3   1  -2   26.22    0.88 
  -4   1  -2   12.76    0.54 
  -4   1  -2   12.68    0.49 
  -5   1  -2   51.42    1.69 
  -5   1  -2   51.98    1.74 
  -6   1  -2   11.08    0.51 
  -6   1  -2   10.51    0.46 
  -7   1  -2   11.13    0.53 
  -7   1  -2   10.72    0.50 
  -8   1  -2    1.12    0.17 
  -8   1  -2    1.47    0.21 
  -9   1  -2   11.79    0.58 
  -9   1  -2   12.09    0.60 
 -10   1  -2    4.63    0.34 
 -10   1  -2    4.04    0.37 
 -11   1  -2    1.71    0.25 
 -11   1  -2    2.35    0.32 
 -12   1  -2    9.47    0.60 
 -13   1  -2    1.60    0.30 
 -14   1  -2    0.73    0.26 
 -15   1  -2    3.37    0.45 
 -16   1  -2    1.49    0.35 
 -16   0   2    1.92    0.36 
 -15   0   2   -0.25    0.15 
 -14   0   2    0.05    0.15 
 -13   0   2    5.50    0.45 
 -12   0   2    1.41    0.26 
 -11   0   2    4.12    0.39 
 -10   0   2   35.02    1.36 
  -9   0   2   60.39    1.92 
  -9   0   2   58.23    2.06 
   8   0  -2   16.76    0.90 
  -8   0   2   16.17    0.71 
   7   0  -2    2.44    0.33 
  -7   0   2    2.77    0.22 
   6   0  -2   91.63    3.32 
  -6   0   2   92.23    2.94 
   5   0  -2   74.93    2.68 
  -5   0   2   72.54    2.35 
   4   0  -2   87.30    3.06 
  -4   0   2   86.34    2.72 
   3   0  -2 1000.00   29.46 
  -3   0   2  966.26   29.75 
   2   0  -2  115.58    3.50 
   2   0  -2  115.25    3.90 
  -2   0   2  114.46    3.53 
   1   0  -2    2.44    0.12 
   1   0  -2    2.39    0.15 
   0   0  -2   21.79    0.68 
   0   0  -2   21.08    0.69 
  -1   0  -2   20.45    0.65 
  -1   0  -2   19.73    0.65 
  -2   0  -2   62.56    1.96 
  -2   0  -2   62.78    1.94 
  -3   0  -2   -0.05    0.03 
  -3   0  -2   -0.03    0.03 
  -4   0  -2   40.66    1.30 
  -4   0  -2   37.07    1.25 
  -5   0  -2    7.63    0.36 
  -6   0  -2    1.10    0.15 
  -7   0  -2   13.83    0.54 
  -7   0  -2   13.45    0.60 
  -8   0  -2    1.70    0.22 
  -8   0  -2    2.02    0.18 
  -9   0  -2    0.02    0.08 
  -9   0  -2    0.02    0.08 
 -10   0  -2    1.45    0.23 
 -10   0  -2    1.64    0.18 
 -11   0  -2    5.27    0.41 
 -12   0  -2    5.01    0.45 
 -13   0  -2    0.25    0.18 
 -14   0  -2    0.43    0.22 
 -15   0  -2   -0.05    0.19 
 -16   0  -2    2.03    0.42 
 -16   1   2    0.13    0.21 
 -15   1   2    0.55    0.25 
 -14   1   2    0.10    0.19 
 -13   1   2    1.53    0.29 
 -12   1   2    6.77    0.48 
 -11   1   2    6.56    0.44 
 -10   1   2    6.67    0.43 
  -9   1   2    2.44    0.26 
  -8   1   2    5.64    0.34 
  -7   1   2    1.85    0.20 
  -6   1   2  128.62    4.06 
  -5   1   2   70.37    2.29 
  -4   1   2   25.05    0.91 
  -3   1   2  147.03    4.59 
   2  -1  -2  441.63   13.45 
  -2   1   2  451.31   13.64 
   1  -1  -2    4.81    0.25 
  -1   1   2    4.58    0.26 
   0  -1  -2  139.41    4.40 
   0  -1  -2  148.52    4.49 
  -1  -1  -2   56.39    1.85 
  -1  -1  -2   55.12    1.79 
   1   1   2   57.86    1.93 
  -2  -1  -2  153.73    4.74 
  -2  -1  -2  158.92    4.86 
   2   1   2  154.61    5.20 
  -3  -1  -2   27.87    0.98 
   3   1   2   25.91    1.00 
  -4  -1  -2   12.32    0.45 
  -4  -1  -2   12.60    0.54 
  -5  -1  -2   49.57    1.59 
  -5  -1  -2   51.57    1.73 
  -6  -1  -2   11.16    0.53 
  -6  -1  -2   10.52    0.41 
  -7  -1  -2   10.09    0.53 
  -7  -1  -2   10.58    0.41 
  -8  -1  -2    1.00    0.11 
  -8  -1  -2    1.31    0.21 
  -9  -1  -2   11.93    0.47 
  -9  -1  -2   12.28    0.64 
 -10  -1  -2    4.07    0.39 
 -11  -1  -2    1.69    0.29 
 -12  -1  -2    8.11    0.57 
 -13  -1  -2    1.59    0.35 
 -14  -1  -2    0.70    0.27 
 -15  -1  -2    2.68    0.47 
 -16  -1  -2    0.71    0.33 
 -16   2   2    0.70    0.30 
 -15   2   2    0.55    0.27 
 -14   2   2   -0.04    0.16 
 -13   2   2    0.17    0.17 
 -12   2   2    0.30    0.17 
 -11   2   2    0.58    0.17 
 -10   2   2   11.49    0.60 
  -9   2   2    7.81    0.46 
  -8   2   2   18.31    0.80 
  -7   2   2   43.66    1.58 
  -6   2   2    4.87    0.34 
  -5   2   2   64.03    2.20 
  -4   2   2   41.45    1.51 
  -3   2   2   46.32    1.66 
  -2   2   2   35.56    1.33 
   1  -2  -2    1.23    0.19 
  -1   2   2    1.58    0.22 
   0  -2  -2   50.08    1.71 
   0  -2  -2   50.94    1.77 
  -1  -2  -2   45.12    1.59 
  -1  -2  -2   43.78    1.52 
  -2  -2  -2   19.20    0.84 
  -2  -2  -2   21.05    0.79 
   2   2   2   20.80    0.78 
  -3  -2  -2    9.50    0.52 
   3   2   2   11.28    0.47 
  -4  -2  -2    2.10    0.24 
  -4  -2  -2    2.10    0.18 
   4   2   2    2.20    0.19 
  -5  -2  -2    7.09    0.35 
  -5  -2  -2    7.72    0.46 
   5   2   2    7.99    0.44 
  -6  -2  -2    7.34    0.45 
  -6  -2  -2    6.90    0.33 
   6   2   2    6.45    0.42 
  -7  -2  -2    2.14    0.29 
  -7  -2  -2    2.04    0.17 
   7   2   2    2.08    0.28 
  -8  -2  -2   13.13    0.71 
  -9  -2  -2    7.23    0.52 
 -10  -2  -2    2.30    0.35 
 -11  -2  -2    6.85    0.55 
 -12  -2  -2    0.49    0.23 
 -13  -2  -2    2.65    0.46 
 -14  -2  -2    1.80    0.40 
 -15  -2  -2    1.15    0.35 
 -15   3   2    0.19    0.23 
 -14   3   2    1.68    0.32 
 -13   3   2    2.07    0.33 
 -12   3   2    0.60    0.21 
 -11   3   2    0.92    0.22 
 -10   3   2    1.30    0.25 
  -9   3   2   10.69    0.64 
  -8   3   2   11.58    0.66 
  -7   3   2    2.91    0.34 
  -6   3   2   18.68    0.89 
  -5   3   2   23.10    1.04 
  -4   3   2    6.32    0.46 
  -3   3   2   17.89    0.86 
  -2   3   2   25.79    1.13 
   1  -3  -2   -0.08    0.09 
  -1   3   2    0.00    0.10 
   0  -3  -2   26.90    1.14 
  -1  -3  -2    0.95    0.21 
  -2  -3  -2   12.72    0.70 
   2   3   2   13.88    0.61 
  -3  -3  -2    3.08    0.34 
   3   3   2    3.34    0.24 
  -4  -3  -2    5.17    0.41 
   4   3   2    5.96    0.35 
  -5  -3  -2    1.54    0.20 
  -5  -3  -2    1.29    0.25 
   5   3   2    1.74    0.22 
  -6  -3  -2    5.61    0.36 
  -6  -3  -2    5.74    0.46 
   6   3   2    6.38    0.41 
  -7  -3  -2    4.55    0.46 
   7   3   2    5.74    0.42 
  -8  -3  -2    6.21    0.51 
   8   3   2    6.85    0.50 
  -9  -3  -2    1.45    0.31 
   9   3   2    1.71    0.30 
 -10  -3  -2   14.22    0.87 
 -11  -3  -2    0.81    0.30 
 -12  -3  -2    0.98    0.32 
 -13  -3  -2    0.07    0.21 
 -14  -3  -2    0.12    0.26 
 -15  -3  -2    0.22    0.26 
 -14   4   2    0.15    0.19 
 -13   4   2    0.06    0.18 
 -12   4   2    0.25    0.18 
 -11   4   2    0.87    0.26 
 -10   4   2    0.57    0.21 
  -9   4   2    1.46    0.30 
  -8   4   2    3.16    0.41 
  -7   4   2    6.81    0.54 
  -6   4   2    3.18    0.41 
  -5   4   2    1.46    0.31 
  -4   4   2    4.22    0.47 
  -3   4   2   10.26    0.68 
  -2   4   2   15.61    0.89 
  -1   4   2    0.11    0.16 
   0  -4  -2    8.93    0.61 
  -1  -4  -2    2.45    0.36 
  -2  -4  -2    6.31    0.51 
   2   4   2    6.45    0.41 
  -3  -4  -2    4.40    0.48 
   3   4   2    4.54    0.33 
  -4  -4  -2    5.47    0.53 
   4   4   2    6.02    0.38 
  -5  -4  -2    3.78    0.46 
  -6  -4  -2    5.83    0.57 
  -7  -4  -2    1.27    0.30 
  -8  -4  -2    4.02    0.53 
  -9  -4  -2    0.28    0.22 
 -10  -4  -2    0.05    0.21 
 -11  -4  -2    2.25    0.45 
 -12  -4  -2    0.07    0.23 
 -13  -4  -2    0.76    0.31 
 -12   5   2    0.69    0.28 
 -11   5   2    1.33    0.33 
 -10   5   2    0.08    0.21 
  -9   5   2   -0.14    0.18 
  -8   5   2    1.56    0.35 
  -7   5   2    0.40    0.21 
  -6   5   2    3.09    0.46 
  -5   5   2    3.52    0.50 
  -4   5   2    6.84    0.65 
  -3   5   2    0.56    0.24 
  -2   5   2    4.77    0.57 
  -1   5   2    1.04    0.31 
   0  -5  -2   11.94    0.79 
   0   5   2   10.87    0.80 
  -1  -5  -2   11.72    0.79 
  -2  -5  -2    0.89    0.27 
  -3  -5  -2    5.03    0.56 
  -4  -5  -2    4.33    0.54 
  -5  -5  -2    0.34    0.22 
  -6  -5  -2    2.38    0.45 
  -7  -5  -2    0.63    0.27 
  -8  -5  -2    0.26    0.22 
  -9  -5  -2    0.52    0.27 
 -10  -5  -2    0.65    0.31 
 -11  -5  -2    0.32    0.27 
  -9   6   2    0.95    0.34 
  -8   6   2    0.50    0.27 
  -7   6   2    0.01    0.22 
  -6   6   2    0.12    0.22 
  -5   6   2    0.31    0.24 
  -4   6   2    0.52    0.27 
  -3   6   2    0.92    0.33 
  -2   6   2    1.05    0.35 
  -1   6   2    0.02    0.21 
   0   6   2    0.88    0.33 
  -1  -6  -2    1.83    0.39 
   1   6   2    1.51    0.40 
  -2  -6  -2    3.89    0.55 
  -3  -6  -2    0.18    0.20 
  -4  -6  -2    0.20    0.22 
  -5  -6  -2    0.46    0.26 
  -6  -6  -2    1.10    0.31 
  -7  -6  -2    1.81    0.41 
  -8  -6  -2    0.05    0.24 
  -9  -6  -2    0.24    0.26 
  -4   7   2    0.80    0.38 
  -3   7   2    0.12    0.27 
  -2   7   2   -0.17    0.24 
  -1   7   2    0.37    0.34 
   0   7   2    0.18    0.30 
   1   7   2    0.40    0.28 
   2   7   2    0.81    0.36 
  -3  -7  -2    0.39    0.27 
  -4  -7  -2    0.08    0.26 
  -4  -7   3    0.33    0.31 
  -9  -6   3    0.15    0.28 
  -8  -6   3   -0.22    0.26 
  -7  -6   3    0.45    0.28 
  -6  -6   3    0.63    0.30 
  -5  -6   3    4.64    0.59 
  -4  -6   3    0.88    0.31 
  -3  -6   3    0.94    0.30 
  -2  -6   3    0.57    0.29 
   1   6  -3    0.54    0.28 
   0   6  -3    0.91    0.32 
  -1   6  -3    2.14    0.41 
  -2   6  -3    3.31    0.48 
  -3   6  -3    0.33    0.24 
  -4   6  -3    0.36    0.23 
  -5   6  -3    0.03    0.21 
  -6   6  -3    0.82    0.31 
  -7   6  -3    0.08    0.22 
  -8   6  -3    0.83    0.33 
  -8   6  -3    1.02    0.32 
  -9   6  -3    0.71    0.29 
 -12  -5   3    1.01    0.38 
 -11  -5   3    0.30    0.31 
 -10  -5   3    1.55    0.40 
  -9  -5   3    0.47    0.30 
   8   5  -3    0.17    0.20 
  -8  -5   3    0.01    0.25 
   7   5  -3    0.23    0.19 
  -7  -5   3    0.20    0.24 
   6   5  -3    0.26    0.18 
  -6  -5   3    0.10    0.20 
   5   5  -3    1.21    0.31 
  -5  -5   3    1.30    0.33 
   4   5  -3    1.67    0.36 
  -4  -5   3    2.14    0.39 
   3   5  -3    3.89    0.50 
  -3  -5   3    3.56    0.45 
  -2  -5   3    1.09    0.29 
  -1  -5   3    7.91    0.60 
   0   5  -3    4.29    0.50 
  -1   5  -3   11.05    0.74 
  -2   5  -3    3.02    0.41 
  -3   5  -3    2.71    0.40 
  -4   5  -3    3.03    0.42 
  -5   5  -3    2.30    0.37 
  -6   5  -3    3.31    0.41 
  -7   5  -3    1.39    0.30 
  -8   5  -3    0.81    0.27 
  -8   5  -3    0.66    0.23 
  -9   5  -3    0.43    0.22 
  -9   5  -3    0.27    0.19 
 -10   5  -3    0.21    0.21 
 -10   5  -3    0.13    0.20 
 -11   5  -3    0.14    0.20 
 -11   5  -3    0.08    0.20 
  13   4  -3    1.59    0.45 
 -13  -4   3    1.57    0.43 
  12   4  -3    0.41    0.34 
 -12  -4   3    0.65    0.29 
  11   4  -3    1.83    0.46 
 -11  -4   3    1.25    0.36 
  10   4  -3    0.92    0.30 
 -10  -4   3    0.74    0.30 
   9   4  -3    1.82    0.38 
  -9  -4   3    1.96    0.39 
   8   4  -3    0.60    0.23 
  -8  -4   3    1.45    0.34 
   7   4  -3    6.92    0.57 
  -7  -4   3    7.84    0.60 
   6   4  -3    8.32    0.63 
  -6  -4   3    8.01    0.60 
   5   4  -3    4.19    0.48 
  -5  -4   3    3.81    0.43 
   4   4  -3   13.92    0.84 
  -4  -4   3   12.94    0.75 
   3   4  -3    4.36    0.49 
  -3  -4   3    4.25    0.43 
  -2  -4   3    4.24    0.41 
  -1  -4   3   15.17    0.79 
   0   4  -3    6.04    0.47 
   0  -4   3    6.85    0.48 
  -1   4  -3    6.88    0.50 
  -2   4  -3    0.90    0.22 
  -3   4  -3    8.92    0.56 
  -4   4  -3    2.08    0.30 
  -5   4  -3    0.96    0.23 
  -6   4  -3    1.74    0.28 
  -7   4  -3    1.93    0.29 
  -8   4  -3    0.27    0.16 
  -8   4  -3    0.25    0.19 
  -9   4  -3    9.93    0.70 
  -9   4  -3   10.58    0.63 
 -10   4  -3    1.44    0.28 
 -10   4  -3    1.74    0.35 
 -11   4  -3    3.12    0.46 
 -11   4  -3    2.62    0.36 
 -12   4  -3    0.23    0.20 
 -12   4  -3   -0.19    0.16 
 -13   4  -3    0.06    0.22 
 -13   4  -3    0.30    0.23 
 -15  -3   3    0.07    0.25 
  14   3  -3    0.75    0.35 
 -14  -3   3    1.19    0.37 
  13   3  -3    0.52    0.33 
 -13  -3   3    0.20    0.24 
  12   3  -3    1.02    0.35 
 -12  -3   3    1.20    0.37 
  11   3  -3    1.22    0.32 
 -11  -3   3    2.01    0.39 
  10   3  -3    1.96    0.38 
 -10  -3   3    2.52    0.41 
   9   3  -3    6.16    0.62 
  -9  -3   3    7.46    0.56 
   8   3  -3   34.84    1.59 
  -8  -3   3   35.11    1.47 
   7   3  -3   21.65    1.12 
  -7  -3   3   23.55    1.05 
   6   3  -3    5.68    0.46 
  -6  -3   3    4.87    0.39 
   5   3  -3    9.93    0.63 
   5   3  -3    9.57    0.42 
  -5  -3   3    9.70    0.56 
   4   3  -3    9.83    0.64 
  -4  -3   3   10.33    0.57 
   3   3  -3   11.75    0.70 
  -3  -3   3   11.48    0.61 
  -2  -3   3   59.15    2.09 
  -1  -3   3   62.91    2.18 
   0  -3   3    5.07    0.36 
  -1   3  -3   19.17    0.84 
  -2   3  -3    1.87    0.23 
  -3   3  -3   27.53    1.10 
  -4   3  -3    2.20    0.25 
  -5   3  -3    3.44    0.28 
  -6   3  -3    3.86    0.30 
  -7   3  -3    3.79    0.40 
  -7   3  -3    4.36    0.33 
  -8   3  -3   10.81    0.57 
  -8   3  -3   10.36    0.65 
  -9   3  -3    0.51    0.16 
  -9   3  -3    0.44    0.20 
 -10   3  -3    1.08    0.26 
 -10   3  -3    0.92    0.20 
 -11   3  -3    5.36    0.53 
 -11   3  -3    5.29    0.42 
 -12   3  -3    4.76    0.51 
 -12   3  -3    4.14    0.44 
 -13   3  -3    0.58    0.24 
 -13   3  -3    0.56    0.25 
 -14   3  -3    1.26    0.30 
 -16  -2   3    0.89    0.31 
 -15  -2   3    2.18    0.41 
 -14  -2   3    0.85    0.28 
  13   2  -3    1.19    0.34 
 -13  -2   3    2.58    0.42 
  12   2  -3    0.16    0.21 
 -12  -2   3   -0.02    0.18 
  11   2  -3    2.95    0.49 
 -11  -2   3    2.12    0.34 
  10   2  -3    8.96    0.67 
 -10  -2   3    7.83    0.55 
   9   2  -3   10.98    0.74 
  -9  -2   3   11.52    0.65 
   8   2  -3   14.56    0.86 
  -8  -2   3   16.02    0.76 
   7   2  -3   23.83    1.12 
  -7  -2   3   22.92    0.98 
   6   2  -3  122.16    4.29 
  -6  -2   3  116.22    3.87 
   5   2  -3   49.38    1.48 
   5   2  -3   46.58    1.89 
  -5  -2   3   46.85    1.68 
   4   2  -3   10.58    0.39 
   4   2  -3   10.21    0.60 
  -4  -2   3   10.43    0.51 
   3   2  -3   38.35    1.56 
   3   2  -3   37.69    1.25 
  -3  -2   3   38.08    1.35 
   2   2  -3    6.72    0.33 
  -2  -2   3    7.12    0.37 
  -1   2  -3   41.07    1.41 
  -2   2  -3    5.88    0.32 
  -3   2  -3    2.95    0.21 
  -4   2  -3   16.57    0.74 
  -4   2  -3   17.31    0.68 
  -5   2  -3   15.45    0.71 
  -5   2  -3   15.16    0.63 
  -6   2  -3    8.77    0.42 
  -6   2  -3    8.05    0.48 
  -7   2  -3    3.28    0.24 
  -7   2  -3    3.08    0.32 
  -8   2  -3    0.42    0.16 
  -8   2  -3    0.68    0.15 
  -9   2  -3   49.52    1.86 
  -9   2  -3   51.31    1.79 
 -10   2  -3    8.38    0.52 
 -10   2  -3   10.22    0.60 
 -11   2  -3    2.57    0.33 
 -11   2  -3    2.75    0.36 
 -12   2  -3    0.22    0.18 
 -12   2  -3    0.18    0.16 
 -13   2  -3    0.40    0.21 
 -14   2  -3    0.35    0.22 
 -15   2  -3    1.56    0.35 
 -16  -1   3    1.47    0.33 
 -15  -1   3    0.37    0.21 
 -14  -1   3    0.43    0.19 
 -13  -1   3    0.39    0.18 
  12   1  -3    2.46    0.46 
 -12  -1   3    3.03    0.36 
  11   1  -3    8.53    0.66 
 -11  -1   3    6.08    0.45 
  10   1  -3    7.28    0.60 
 -10  -1   3    7.51    0.47 
   9   1  -3   12.09    0.76 
  -9  -1   3   11.42    0.59 
   8   1  -3    2.74    0.38 
  -8  -1   3    2.34    0.24 
   7   1  -3  114.87    4.14 
  -6  -1   3   66.59    2.20 
   5   1  -3   11.16    0.60 
  -5  -1   3   11.28    0.48 
   4   1  -3   37.35    1.53 
   4   1  -3   41.35    1.24 
  -4  -1   3   40.25    1.33 
   3   1  -3  371.69   11.15 
   3   1  -3  382.84   12.44 
  -3  -1   3  360.60   11.32 
   2   1  -3  154.88    4.66 
   2   1  -3  153.11    5.28 
   1   1  -3  223.27    7.08 
  -1  -1   3  246.24    7.19 
   0   1  -3   37.60    1.25 
   0  -1   3   39.10    1.23 
  -1   1  -3   70.00    2.21 
  -1   1  -3   69.93    2.18 
  -2   1  -3    3.04    0.20 
  -2   1  -3    3.45    0.16 
  -3   1  -3   12.03    0.51 
  -3   1  -3   11.89    0.44 
  -4   1  -3    2.49    0.20 
  -4   1  -3    2.64    0.16 
  -5   1  -3    2.40    0.22 
  -5   1  -3    2.09    0.16 
  -6   1  -3   38.80    1.35 
  -6   1  -3   39.65    1.39 
  -7   1  -3    6.98    0.40 
  -7   1  -3    7.02    0.38 
  -8   1  -3   11.25    0.55 
  -8   1  -3   10.92    0.54 
  -9   1  -3    9.62    0.53 
  -9   1  -3   10.25    0.53 
 -10   1  -3   22.59    0.94 
 -10   1  -3   22.18    0.97 
 -11   1  -3    6.55    0.46 
 -11   1  -3    5.86    0.41 
 -12   1  -3    4.50    0.44 
 -13   1  -3    0.99    0.26 
 -14   1  -3    0.24    0.21 
 -15   1  -3    0.74    0.27 
 -16   1  -3    0.09    0.23 
 -16   0   3   -0.16    0.15 
 -15   0   3    0.41    0.20 
 -14   0   3   -0.01    0.15 
 -13   0   3    0.23    0.16 
 -12   0   3    4.80    0.44 
 -11   0   3    1.06    0.22 
 -10   0   3    4.51    0.35 
   9   0  -3    1.67    0.32 
  -9   0   3    2.02    0.25 
   8   0  -3    4.00    0.43 
  -8   0   3    3.33    0.26 
   7   0  -3    5.29    0.43 
  -7   0   3    6.29    0.34 
   6   0  -3   26.71    1.20 
  -6   0   3   28.12    0.99 
   5   0  -3   28.51    1.21 
  -5   0   3   30.07    1.02 
   4   0  -3   18.54    0.66 
   4   0  -3   18.10    0.81 
  -4   0   3   19.35    0.66 
   3   0  -3    0.37    0.11 
   3   0  -3    0.65    0.08 
  -3   0   3    0.55    0.07 
   2   0  -3   56.70    1.71 
   2   0  -3   55.65    1.93 
  -2   0   3   51.62    1.71 
   1   0  -3    0.75    0.07 
   1   0  -3    0.62    0.10 
  -1   0   3    0.57    0.05 
   0   0  -3   74.06    2.32 
   0   0  -3   75.16    2.29 
  -1   0  -3  361.69   11.14 
  -1   0  -3  381.03   11.32 
  -2   0  -3   72.51    2.29 
  -2   0  -3   74.98    2.31 
  -3   0  -3  215.15    6.60 
  -3   0  -3  215.51    6.51 
  -4   0  -3   22.80    0.79 
  -4   0  -3   22.85    0.81 
  -5   0  -3   14.23    0.55 
  -5   0  -3   14.48    0.58 
  -6   0  -3    1.33    0.14 
  -6   0  -3    1.49    0.17 
  -7   0  -3   48.48    1.60 
  -8   0  -3   40.14    1.45 
  -9   0  -3   13.32    0.54 
  -9   0  -3   11.86    0.61 
 -10   0  -3   -0.07    0.10 
 -10   0  -3    0.00    0.08 
 -11   0  -3   13.32    0.70 
 -12   0  -3    6.20    0.47 
 -13   0  -3    0.93    0.26 
 -14   0  -3    1.66    0.33 
 -15   0  -3    1.37    0.34 
 -16   0  -3    0.54    0.29 
 -16   1   3    1.70    0.35 
 -15   1   3    0.11    0.21 
 -14   1   3    0.18    0.19 
 -13   1   3    0.69    0.21 
 -12   1   3    2.92    0.35 
 -11   1   3    6.78    0.46 
 -10   1   3    7.29    0.44 
  -9   1   3   12.62    0.60 
  -8   1   3    1.99    0.21 
  -7   1   3  115.24    3.68 
  -6   1   3   64.01    2.12 
  -5   1   3   10.69    0.48 
  -4   1   3   36.64    1.27 
   3  -1  -3  363.44   12.10 
   3  -1  -3  358.95   10.99 
  -3   1   3  366.82   11.13 
   2  -1  -3  150.90    4.65 
  -2   1   3  149.89    4.70 
   1  -1  -3  216.73    6.67 
   1  -1  -3  212.62    7.28 
  -1   1   3  227.93    6.79 
   0  -1  -3   37.30    1.25 
   0  -1  -3   35.18    1.21 
  -1  -1  -3   72.47    2.26 
  -1  -1  -3   66.56    2.18 
  -2  -1  -3    3.21    0.19 
  -2  -1  -3    4.17    0.25 
  -3  -1  -3   12.06    0.46 
  -3  -1  -3   12.48    0.53 
  -4  -1  -3    2.55    0.21 
  -5  -1  -3    3.09    0.24 
  -5  -1  -3    2.40    0.16 
  -6  -1  -3   39.62    1.27 
  -6  -1  -3   36.92    1.39 
  -7  -1  -3    6.45    0.31 
  -7  -1  -3    6.63    0.41 
  -8  -1  -3   10.51    0.55 
  -8  -1  -3    9.59    0.42 
  -9  -1  -3    8.41    0.52 
  -9  -1  -3    8.28    0.38 
 -10  -1  -3   20.80    0.97 
 -11  -1  -3    6.79    0.50 
 -12  -1  -3    3.65    0.45 
 -13  -1  -3    0.81    0.26 
 -14  -1  -3    0.02    0.19 
 -15  -1  -3    0.60    0.29 
 -16  -1  -3    0.27    0.26 
 -16   2   3    0.54    0.24 
 -15   2   3    1.87    0.35 
 -14   2   3    0.77    0.24 
 -13   2   3    1.72    0.30 
 -12   2   3    0.14    0.15 
 -11   2   3    2.67    0.32 
 -10   2   3    8.69    0.53 
  -9   2   3   11.76    0.61 
  -8   2   3   19.84    0.87 
  -7   2   3   23.46    0.98 
  -6   2   3  111.17    3.64 
  -5   2   3   45.18    1.64 
  -4   2   3    9.57    0.51 
  -3   2   3   36.40    1.36 
   2  -2  -3    7.06    0.40 
  -2   2   3    6.31    0.40 
   1  -2  -3   72.18    2.40 
   1  -2  -3   72.92    2.43 
  -1   2   3   71.52    2.45 
   0  -2  -3  140.25    4.40 
   0  -2  -3  133.64    4.31 
  -1  -2  -3   39.94    1.47 
  -1  -2  -3   40.88    1.41 
   1   2   3   39.31    1.38 
  -2  -2  -3    5.92    0.37 
  -2  -2  -3    5.52    0.32 
   2   2   3    5.31    0.25 
  -3  -2  -3    3.68    0.30 
  -3  -2  -3    3.57    0.24 
   3   2   3    3.33    0.21 
  -4  -2  -3   16.67    0.76 
   4   2   3   16.62    0.69 
  -5  -2  -3   14.42    0.58 
  -5  -2  -3   13.01    0.67 
   5   2   3   13.93    0.64 
  -6  -2  -3    8.11    0.39 
  -6  -2  -3    8.28    0.50 
  -7  -2  -3    1.86    0.28 
  -7  -2  -3    2.39    0.20 
  -8  -2  -3    0.73    0.20 
  -8  -2  -3    0.62    0.12 
  -9  -2  -3   45.07    1.79 
 -10  -2  -3    8.08    0.58 
 -11  -2  -3    2.44    0.41 
 -12  -2  -3    0.04    0.16 
 -13  -2  -3    0.17    0.20 
 -14  -2  -3    0.75    0.31 
 -15  -2  -3    1.79    0.44 
 -15   3   3    0.02    0.22 
 -14   3   3    0.72    0.24 
 -13   3   3    0.18    0.18 
 -12   3   3    0.78    0.24 
 -11   3   3    1.11    0.25 
 -10   3   3    1.98    0.31 
  -9   3   3    7.00    0.50 
  -8   3   3   39.13    1.57 
  -7   3   3   23.07    1.05 
  -6   3   3    5.42    0.43 
  -5   3   3    9.31    0.58 
  -4   3   3   10.53    0.63 
  -3   3   3   11.34    0.66 
  -2   3   3   58.07    2.15 
   1  -3  -3   60.97    2.23 
  -1   3   3   63.99    2.29 
   0  -3  -3    4.97    0.39 
  -1  -3  -3   18.25    0.83 
  -1  -3  -3   17.94    0.88 
   1   3   3   20.10    0.77 
  -2  -3  -3    1.67    0.24 
  -2  -3  -3    1.56    0.27 
   2   3   3    1.84    0.16 
  -3  -3  -3   24.72    1.09 
  -3  -3  -3   26.63    1.03 
   3   3   3   23.86    0.95 
  -4  -3  -3    1.64    0.28 
  -4  -3  -3    2.02    0.24 
   4   3   3    1.76    0.19 
  -5  -3  -3    3.11    0.37 
  -5  -3  -3    3.56    0.31 
   5   3   3    3.67    0.27 
  -6  -3  -3    3.71    0.30 
  -6  -3  -3    2.90    0.37 
   6   3   3    3.75    0.30 
  -7  -3  -3    4.89    0.47 
  -7  -3  -3    3.76    0.31 
   7   3   3    5.05    0.38 
  -8  -3  -3    7.21    0.55 
  -9  -3  -3    0.30    0.18 
 -10  -3  -3    0.86    0.28 
 -11  -3  -3    4.70    0.57 
 -12  -3  -3    4.06    0.58 
 -13  -3  -3    0.58    0.29 
 -14  -3  -3    0.48    0.29 
 -13   4   3    1.34    0.31 
 -12   4   3    0.50    0.23 
 -11   4   3    1.04    0.28 
 -10   4   3    0.47    0.21 
  -9   4   3    2.15    0.36 
  -8   4   3    0.45    0.20 
  -7   4   3    6.87    0.55 
  -6   4   3    9.28    0.65 
  -5   4   3    3.94    0.46 
  -4   4   3   14.45    0.84 
  -3   4   3    3.57    0.45 
  -2   4   3    4.80    0.51 
  -1   4   3   15.99    0.90 
   0  -4  -3    6.11    0.51 
  -1  -4  -3    5.65    0.52 
  -2  -4  -3    0.71    0.23 
  -3  -4  -3    7.13    0.55 
  -4  -4  -3    2.56    0.40 
  -5  -4  -3    1.02    0.27 
  -6  -4  -3    1.63    0.35 
  -7  -4  -3    1.35    0.32 
  -8  -4  -3    0.23    0.23 
  -9  -4  -3    8.28    0.76 
 -10  -4  -3    1.14    0.33 
 -11  -4  -3    2.78    0.52 
 -12  -4  -3    0.43    0.29 
 -13  -4  -3    0.43    0.31 
 -12   5   3    0.49    0.27 
 -11   5   3    0.41    0.27 
 -10   5   3    1.06    0.31 
  -9   5   3    0.98    0.31 
  -8   5   3    0.30    0.21 
  -7   5   3    0.05    0.19 
  -6   5   3    0.14    0.19 
  -5   5   3    1.10    0.31 
  -4   5   3    1.81    0.38 
  -3   5   3    3.62    0.51 
  -2   5   3    0.87    0.30 
  -1   5   3    5.91    0.63 
   0  -5  -3    4.55    0.54 
   0   5   3    3.62    0.53 
  -1  -5  -3   10.85    0.77 
  -2  -5  -3    3.12    0.47 
  -3  -5  -3    2.19    0.39 
  -4  -5  -3    2.72    0.45 
  -5  -5  -3    2.13    0.42 
  -6  -5  -3    2.70    0.47 
  -7  -5  -3    1.42    0.36 
  -8  -5  -3    0.67    0.29 
  -9  -5  -3    0.66    0.31 
 -10  -5  -3    0.50    0.28 
 -11  -5  -3   -0.08    0.25 
  -9   6   3    0.33    0.28 
  -8   6   3    0.41    0.25 
  -7   6   3    0.85    0.33 
  -6   6   3    0.13    0.24 
  -5   6   3    3.59    0.58 
  -4   6   3    0.81    0.31 
  -3   6   3    0.42    0.29 
  -2   6   3    0.30    0.25 
  -1   6   3    0.76    0.33 
   0   6   3    1.27    0.38 
  -1  -6  -3    2.24    0.44 
   1   6   3    2.00    0.45 
  -2  -6  -3    3.85    0.56 
  -3  -6  -3    0.02    0.19 
  -4  -6  -3    0.24    0.21 
  -5  -6  -3    0.16    0.21 
  -6  -6  -3    0.45    0.27 
  -7  -6  -3   -0.09    0.22 
  -8  -6  -3    1.01    0.35 
  -9  -6  -3    0.37    0.28 
  -4   7   3    0.49    0.31 
  -3   7   3    1.52    0.42 
  -2   7   3    0.27    0.32 
  -1   7   3    0.27    0.27 
   0   7   3    0.23    0.30 
   1   7   3    0.21    0.29 
   2   7   3    0.08    0.28 
  -3  -7  -3    0.71    0.32 
   0   7  -4    0.45    0.25 
  -1   7  -4    0.50    0.23 
  -2   7  -4    1.23    0.33 
  -3   7  -4    0.54    0.27 
  -9  -6   4    0.39    0.30 
  -8  -6   4   -0.13    0.27 
  -7  -6   4    0.45    0.28 
  -6  -6   4    0.61    0.29 
  -5  -6   4    0.47    0.26 
  -4  -6   4    2.35    0.43 
   3   6  -4    1.30    0.36 
  -3  -6   4    1.68    0.40 
   2   6  -4    0.51    0.20 
   2   6  -4    0.46    0.27 
  -2  -6   4    0.23    0.23 
   1   6  -4    0.88    0.33 
   0   6  -4    1.17    0.35 
  -1   6  -4    2.14    0.40 
  -2   6  -4    0.13    0.23 
  -3   6  -4    0.94    0.30 
  -5   6  -4    0.97    0.29 
  -6   6  -4    0.83    0.30 
  -7   6  -4    0.27    0.23 
  -8   6  -4    0.17    0.21 
 -11  -5   4    0.39    0.31 
  10   5  -4    0.26    0.28 
 -10  -5   4    0.26    0.30 
   9   5  -4    0.20    0.22 
  -9  -5   4    0.03    0.28 
   8   5  -4    1.15    0.33 
  -8  -5   4    1.16    0.35 
   7   5  -4    0.29    0.20 
  -7  -5   4    0.29    0.25 
   6   5  -4    0.45    0.23 
  -6  -5   4    0.62    0.25 
   5   5  -4    2.61    0.44 
  -5  -5   4    3.03    0.45 
   4   5  -4    0.82    0.27 
  -4  -5   4    0.70    0.27 
   3   5  -4    0.11    0.16 
  -3  -5   4    0.00    0.17 
  -2  -5   4    1.40    0.33 
  -1  -5   4    3.00    0.41 
   0   5  -4    6.71    0.55 
  -1   5  -4    4.72    0.49 
  -2   5  -4    4.14    0.45 
  -3   5  -4    4.30    0.46 
  -4   5  -4    0.15    0.18 
  -5   5  -4   -0.09    0.15 
  -6   5  -4    0.07    0.16 
  -6   5  -4    0.02    0.16 
  -7   5  -4    1.45    0.29 
  -7   5  -4    0.68    0.24 
  -8   5  -4    2.21    0.40 
  -8   5  -4    2.54    0.36 
  -9   5  -4    0.55    0.24 
  -9   5  -4    0.38    0.21 
 -10   5  -4    0.87    0.28 
 -10   5  -4    1.93    0.42 
 -11   5  -4    0.42    0.22 
  13   4  -4    0.56    0.36 
 -13  -4   4    0.44    0.29 
  12   4  -4    0.19    0.26 
 -12  -4   4    0.65    0.33 
  11   4  -4    0.34    0.25 
 -11  -4   4    0.14    0.25 
  10   4  -4    0.84    0.31 
 -10  -4   4    1.88    0.41 
   9   4  -4    1.76    0.37 
  -9  -4   4    2.12    0.40 
   8   4  -4    5.07    0.59 
  -8  -4   4    4.79    0.54 
   7   4  -4    3.87    0.52 
  -7  -4   4    3.38    0.44 
   6   4  -4    3.54    0.47 
  -6  -4   4    4.05    0.45 
   5   4  -4    1.73    0.35 
  -5  -4   4    0.69    0.24 
   4   4  -4    2.69    0.41 
   4   4  -4    2.23    0.24 
  -4  -4   4    2.26    0.34 
   3   4  -4    7.40    0.60 
   3   4  -4    8.04    0.46 
  -3  -4   4    8.47    0.56 
  -2  -4   4   20.43    0.96 
  -1  -4   4   13.69    0.74 
   0   4  -4   16.80    0.84 
  -1   4  -4    3.97    0.39 
  -2   4  -4    1.44    0.25 
  -3   4  -4    0.80    0.19 
  -4   4  -4   10.66    0.61 
  -5   4  -4    9.72    0.57 
  -5   4  -4    9.69    0.63 
  -6   4  -4    8.58    0.53 
  -6   4  -4    8.18    0.59 
  -7   4  -4    1.80    0.32 
  -8   4  -4    0.25    0.20 
  -8   4  -4    0.68    0.20 
  -9   4  -4    0.06    0.20 
  -9   4  -4    0.35    0.18 
 -10   4  -4    2.18    0.33 
 -10   4  -4    3.30    0.47 
 -11   4  -4    0.35    0.19 
 -11   4  -4    0.29    0.22 
 -12   4  -4    3.13    0.46 
 -12   4  -4    3.34    0.42 
 -13   4  -4    1.58    0.33 
 -13   4  -4    1.22    0.31 
  15   3  -4    0.05    0.27 
 -15  -3   4    0.55    0.34 
  14   3  -4    1.85    0.48 
 -14  -3   4    1.71    0.43 
  13   3  -4    1.82    0.49 
 -13  -3   4    1.39    0.39 
  12   3  -4    0.09    0.26 
 -12  -3   4    0.15    0.24 
  11   3  -4    0.74    0.28 
 -11  -3   4    0.42    0.26 
  10   3  -4    0.09    0.17 
 -10  -3   4    0.01    0.18 
   9   3  -4    0.54    0.21 
  -9  -3   4    0.17    0.19 
   8   3  -4    5.97    0.53 
  -8  -3   4    5.25    0.48 
   7   3  -4   15.35    0.88 
  -7  -3   4   14.43    0.77 
   6   3  -4   16.59    0.96 
  -6  -3   4   19.09    0.87 
   5   3  -4    1.66    0.15 
   5   3  -4    1.37    0.27 
  -5  -3   4    1.28    0.23 
   4   3  -4    2.35    0.18 
   4   3  -4    2.17    0.34 
  -4  -3   4    2.20    0.27 
   3   3  -4    9.48    0.46 
   3   3  -4   10.06    0.66 
  -3  -3   4   10.29    0.55 
   2   3  -4   16.88    0.70 
  -2  -3   4   16.19    0.75 
   1   3  -4   36.28    1.32 
  -1  -3   4   36.21    1.36 
   0  -3   4   18.15    0.78 
  -1   3  -4    3.60    0.29 
  -2   3  -4   13.52    0.63 
  -3   3  -4    7.47    0.44 
  -3   3  -4    8.77    0.51 
  -4   3  -4    1.48    0.24 
  -4   3  -4    1.44    0.20 
  -5   3  -4    1.25    0.24 
  -5   3  -4    1.61    0.21 
  -6   3  -4    0.47    0.17 
  -6   3  -4    0.47    0.14 
  -7   3  -4    2.73    0.35 
  -7   3  -4    2.68    0.28 
  -8   3  -4    4.63    0.34 
  -8   3  -4    4.13    0.44 
  -9   3  -4   13.17    0.65 
  -9   3  -4   12.31    0.74 
 -10   3  -4    3.85    0.37 
 -10   3  -4    4.24    0.47 
 -11   3  -4    0.15    0.17 
 -11   3  -4    0.36    0.21 
 -12   3  -4   -0.09    0.15 
 -12   3  -4    0.06    0.19 
 -13   3  -4    1.10    0.29 
 -13   3  -4    0.56    0.24 
 -14   3  -4    0.37    0.25 
 -16  -2   4    0.91    0.29 
 -15  -2   4    0.86    0.30 
  14   2  -4    2.05    0.50 
 -14  -2   4    1.60    0.35 
  13   2  -4    0.24    0.24 
 -13  -2   4    0.66    0.27 
  12   2  -4    2.45    0.49 
 -12  -2   4    2.36    0.39 
  11   2  -4    7.23    0.64 
 -11  -2   4    6.86    0.52 
  10   2  -4   13.59    0.89 
 -10  -2   4   14.41    0.77 
   9   2  -4   27.24    1.35 
  -9  -2   4   27.92    1.17 
   8   2  -4   17.06    0.94 
  -8  -2   4   17.55    0.81 
   7   2  -4    6.62    0.51 
  -7  -2   4    6.59    0.42 
   6   2  -4    9.99    0.63 
  -6  -2   4   10.16    0.53 
   5   2  -4   29.68    1.32 
   5   2  -4   29.01    0.93 
  -5  -2   4   29.40    1.11 
   4   2  -4   56.60    1.76 
   4   2  -4   55.61    2.19 
  -4  -2   4   55.66    1.90 
   3   2  -4  105.86    3.27 
   3   2  -4  106.48    3.84 
  -3  -2   4  105.18    3.39 
   2   2  -4   11.12    0.46 
   1   2  -4    3.95    0.24 
  -1  -2   4    3.79    0.25 
   0   2  -4   15.12    0.61 
   0  -2   4   13.98    0.57 
  -1   2  -4    7.25    0.35 
  -1   2  -4    7.30    0.39 
  -2   2  -4    8.91    0.45 
  -2   2  -4    8.04    0.38 
  -3   2  -4   19.78    0.85 
  -3   2  -4   21.95    0.78 
  -4   2  -4    2.56    0.19 
  -4   2  -4    2.62    0.27 
  -5   2  -4   13.09    0.54 
  -5   2  -4   12.50    0.63 
  -6   2  -4   12.35    0.63 
  -6   2  -4   12.27    0.53 
  -7   2  -4    5.65    0.41 
  -7   2  -4    5.72    0.33 
  -8   2  -4    5.01    0.33 
  -8   2  -4    5.82    0.42 
  -9   2  -4   10.31    0.61 
  -9   2  -4    9.69    0.53 
 -10   2  -4    9.47    0.59 
 -10   2  -4    9.43    0.54 
 -11   2  -4    4.77    0.44 
 -11   2  -4    4.17    0.41 
 -12   2  -4    6.27    0.50 
 -12   2  -4    5.52    0.50 
 -13   2  -4    1.95    0.34 
 -14   2  -4    0.28    0.23 
 -15   2  -4   -0.06    0.23 
 -16  -1   4    0.24    0.21 
 -15  -1   4    1.98    0.36 
 -14  -1   4    1.04    0.27 
  13   1  -4    1.01    0.36 
 -13  -1   4    1.38    0.29 
  12   1  -4    0.35    0.22 
 -12  -1   4    0.87    0.22 
  11   1  -4    3.74    0.52 
 -11  -1   4    3.60    0.37 
  10   1  -4    5.25    0.57 
 -10  -1   4    3.65    0.35 
   9   1  -4   12.75    0.80 
  -9  -1   4   13.13    0.64 
   8   1  -4   37.87    1.64 
  -8  -1   4   36.60    1.36 
   7   1  -4    1.15    0.25 
  -7  -1   4    1.38    0.18 
   6   1  -4   27.81    1.25 
  -6  -1   4   29.34    1.05 
   5   1  -4   62.11    2.34 
   5   1  -4   61.72    1.92 
  -5  -1   4   63.04    2.04 
   4   1  -4   41.73    1.70 
   4   1  -4   44.69    1.37 
  -4  -1   4   44.13    1.45 
   3   1  -4    1.81    0.24 
   3   1  -4    2.09    0.12 
   2   1  -4   73.35    2.73 
   2   1  -4   74.37    2.32 
  -2  -1   4   77.97    2.36 
   1   1  -4   16.54    0.59 
  -1  -1   4   17.05    0.57 
   0   1  -4  242.40    7.52 
   0   1  -4  254.63    7.66 
  -1   1  -4   54.72    1.76 
  -1   1  -4   54.09    1.69 
  -2   1  -4  132.62    4.04 
  -2   1  -4  131.23    4.09 
  -3   1  -4    2.16    0.19 
  -3   1  -4    2.32    0.14 
  -4   1  -4   26.06    0.97 
  -4   1  -4   26.51    0.90 
  -5   1  -4   16.05    0.62 
  -5   1  -4   16.56    0.68 
  -6   1  -4   15.18    0.63 
  -6   1  -4   16.00    0.67 
  -7   1  -4    2.59    0.26 
  -7   1  -4    2.95    0.24 
  -8   1  -4   26.85    1.06 
  -8   1  -4   27.33    1.06 
  -9   1  -4   14.19    0.68 
  -9   1  -4   13.61    0.66 
 -10   1  -4   24.41    1.00 
 -10   1  -4   24.18    1.04 
 -11   1  -4    7.23    0.50 
 -11   1  -4    7.41    0.47 
 -12   1  -4   10.98    0.66 
 -13   1  -4    2.23    0.34 
 -14   1  -4    5.05    0.52 
 -15   1  -4    1.98    0.37 
 -16   1  -4    1.96    0.40 
 -16   0   4    0.57    0.25 
 -15   0   4    0.35    0.19 
 -14   0   4    0.36    0.17 
 -13   0   4    4.02    0.42 
 -12   0   4    7.21    0.51 
 -11   0   4    7.84    0.51 
  10   0  -4    0.34    0.20 
 -10   0   4    0.52    0.15 
   9   0  -4   11.68    0.77 
  -9   0   4   12.44    0.60 
   8   0  -4    0.09    0.15 
  -8   0   4    0.09    0.07 
   7   0  -4   11.68    0.70 
  -7   0   4   12.04    0.53 
   6   0  -4    0.04    0.10 
  -6   0   4   -0.02    0.04 
   5   0  -4   50.46    1.68 
   5   0  -4   51.72    1.97 
  -5   0   4   53.43    1.70 
   4   0  -4    6.76    0.30 
   4   0  -4    6.39    0.40 
  -4   0   4    6.53    0.29 
   3   0  -4    4.04    0.20 
   3   0  -4    3.62    0.26 
  -3   0   4    3.86    0.19 
   2   0  -4   54.57    1.68 
   2   0  -4   51.23    1.90 
   1   0  -4  552.87   17.56 
   1   0  -4  608.77   19.44 
  -1   0   4  599.05   17.84 
   0   0  -4    8.02    0.30 
   0   0  -4    8.28    0.33 
  -1   0  -4  388.55   11.83 
  -1   0  -4  399.39   12.01 
  -2   0  -4    2.61    0.15 
  -2   0  -4    2.51    0.16 
  -3   0  -4    9.52    0.39 
  -3   0  -4    9.60    0.39 
  -4   0  -4    8.07    0.37 
  -4   0  -4    8.58    0.36 
  -5   0  -4    3.00    0.20 
  -5   0  -4    2.79    0.19 
  -6   0  -4   26.93    1.01 
  -6   0  -4   28.14    0.97 
  -7   0  -4   50.43    1.59 
  -7   0  -4   44.06    1.63 
  -8   0  -4    0.77    0.16 
  -8   0  -4    0.83    0.14 
  -9   0  -4   16.68    0.76 
 -10   0  -4    0.01    0.09 
 -10   0  -4   -0.05    0.08 
 -11   0  -4    0.33    0.17 
 -12   0  -4    9.42    0.61 
 -13   0  -4    5.67    0.53 
 -14   0  -4    6.47    0.61 
 -15   0  -4    0.42    0.25 
 -16   0  -4    1.08    0.33 
 -16   1   4    0.34    0.24 
 -15   1   4    2.05    0.37 
 -14   1   4    0.61    0.22 
 -13   1   4    0.83    0.23 
 -12   1   4    0.42    0.16 
 -11   1   4    2.94    0.32 
 -10   1   4    3.83    0.31 
  -9   1   4   12.43    0.59 
  -8   1   4   38.06    1.37 
  -7   1   4    0.96    0.15 
   6  -1  -4   27.87    1.22 
  -6   1   4   26.65    1.01 
   5  -1  -4   59.40    2.03 
   5  -1  -4   61.99    2.29 
  -5   1   4   62.53    2.04 
   4  -1  -4   41.68    1.45 
   4  -1  -4   44.06    1.61 
  -4   1   4   40.49    1.44 
   3  -1  -4    2.10    0.20 
   3  -1  -4    2.07    0.20 
  -3   1   4    2.24    0.20 
   2  -1  -4   70.45    2.19 
   2  -1  -4   61.72    2.33 
  -2   1   4   70.07    2.21 
   1  -1  -4   16.84    0.63 
   1  -1  -4   16.32    0.61 
  -1   1   4   15.10    0.64 
   0  -1  -4  246.33    7.48 
   0  -1  -4  245.00    8.07 
   0  -1  -4  234.79    7.35 
  -1  -1  -4   52.73    1.76 
  -1  -1  -4   52.38    1.70 
  -2  -1  -4  124.85    3.85 
  -2  -1  -4  124.54    3.95 
  -3  -1  -4    2.13    0.20 
  -3  -1  -4    2.06    0.15 
  -4  -1  -4   25.46    0.97 
  -4  -1  -4   25.14    0.88 
  -5  -1  -4   15.49    0.68 
  -5  -1  -4   15.22    0.58 
  -7  -1  -4    3.14    0.30 
  -7  -1  -4    3.05    0.21 
  -8  -1  -4   24.39    0.87 
  -8  -1  -4   22.35    1.00 
  -9  -1  -4   12.17    0.66 
  -9  -1  -4   11.50    0.51 
 -10  -1  -4   21.64    1.01 
 -11  -1  -4    6.11    0.48 
 -12  -1  -4   11.37    0.73 
 -13  -1  -4    2.11    0.39 
 -14  -1  -4    3.86    0.53 
 -15  -1  -4    2.68    0.48 
 -16  -1  -4    1.89    0.46 
 -16   2   4    0.95    0.31 
 -15   2   4    0.50    0.24 
 -14   2   4    1.71    0.32 
 -13   2   4    0.14    0.16 
 -12   2   4    1.95    0.29 
 -11   2   4    7.01    0.47 
 -10   2   4   14.81    0.74 
  -9   2   4   29.67    1.19 
  -8   2   4   16.33    0.76 
  -7   2   4    5.76    0.40 
  -6   2   4    9.54    0.52 
  -5   2   4   26.45    1.07 
  -4   2   4   55.38    1.97 
   3  -2  -4   99.41    3.31 
  -3   2   4  103.22    3.36 
   2  -2  -4   11.14    0.56 
  -2   2   4   10.76    0.57 
   1  -2  -4    3.21    0.26 
   1  -2  -4    3.17    0.29 
  -1   2   4    3.91    0.33 
   0  -2  -4   13.87    0.65 
   0  -2  -4   14.39    0.64 
  -1  -2  -4    6.64    0.38 
  -1  -2  -4    7.02    0.42 
  -2  -2  -4    8.12    0.46 
  -2  -2  -4    7.58    0.41 
  -3  -2  -4   20.09    0.87 
  -3  -2  -4   20.41    0.80 
  -4  -2  -4    2.64    0.23 
  -4  -2  -4    2.92    0.30 
  -5  -2  -4   11.58    0.61 
  -6  -2  -4   10.19    0.47 
  -6  -2  -4   11.01    0.60 
  -7  -2  -4    4.79    0.39 
  -7  -2  -4    5.39    0.32 
  -8  -2  -4    5.14    0.46 
  -8  -2  -4    4.58    0.31 
  -9  -2  -4   10.38    0.67 
 -10  -2  -4    8.43    0.60 
 -11  -2  -4    3.76    0.49 
 -12  -2  -4    6.78    0.66 
 -13  -2  -4    1.56    0.38 
 -14  -2  -4    0.19    0.26 
 -15  -2  -4    0.17    0.27 
 -15   3   4    0.31    0.23 
 -14   3   4    1.21    0.31 
 -13   3   4    1.30    0.29 
 -12   3   4    0.19    0.17 
 -11   3   4    0.36    0.18 
 -10   3   4    0.25    0.18 
  -9   3   4    0.33    0.19 
  -8   3   4    5.75    0.46 
  -7   3   4   14.38    0.77 
  -6   3   4   18.16    0.90 
  -5   3   4    1.13    0.23 
  -4   3   4    1.47    0.26 
  -3   3   4    8.78    0.57 
  -2   3   4   15.03    0.80 
   1  -3  -4   35.70    1.39 
  -1   3   4   34.17    1.43 
   0  -3  -4   28.60    1.19 
   0  -3  -4   29.35    1.22 
  -1  -3  -4    4.37    0.39 
  -1  -3  -4    4.11    0.37 
   1   3   4    3.55    0.20 
  -2  -3  -4   13.28    0.72 
  -2  -3  -4   14.00    0.68 
   2   3   4   13.16    0.52 
  -3  -3  -4    7.59    0.46 
  -3  -3  -4    6.85    0.49 
   3   3   4    7.58    0.35 
  -4  -3  -4    1.59    0.23 
  -4  -3  -4    1.29    0.26 
   4   3   4    1.67    0.17 
  -5  -3  -4    0.94    0.23 
  -5  -3  -4    0.97    0.19 
   5   3   4    1.55    0.19 
  -6  -3  -4    0.46    0.15 
  -6  -3  -4    0.66    0.20 
  -7  -3  -4    2.68    0.27 
  -7  -3  -4    1.92    0.34 
  -8  -3  -4    3.74    0.45 
  -9  -3  -4   12.20    0.78 
 -10  -3  -4    3.29    0.48 
 -11  -3  -4    0.15    0.18 
 -12  -3  -4    0.04    0.19 
 -13  -3  -4    0.36    0.26 
 -14  -3  -4    0.11    0.29 
 -13   4   4    0.27    0.22 
 -12   4   4    0.54    0.23 
 -11   4   4    0.08    0.18 
 -10   4   4    1.22    0.29 
  -9   4   4    1.70    0.32 
  -8   4   4    4.56    0.50 
  -7   4   4    3.39    0.44 
  -6   4   4    3.30    0.44 
  -5   4   4    1.53    0.33 
  -4   4   4    2.30    0.38 
  -3   4   4    7.49    0.59 
  -2   4   4   19.44    1.04 
  -1   4   4   12.65    0.79 
   0  -4  -4   16.04    0.88 
  -1  -4  -4    3.37    0.42 
  -2  -4  -4    0.91    0.26 
  -3  -4  -4    0.49    0.20 
  -4  -4  -4    9.84    0.67 
  -5  -4  -4    8.50    0.64 
  -5  -4  -4    9.88    0.59 
  -6  -4  -4    6.66    0.47 
  -6  -4  -4    6.87    0.62 
  -7  -4  -4    1.69    0.35 
  -8  -4  -4    0.85    0.28 
  -9  -4  -4    0.23    0.22 
 -10  -4  -4    2.78    0.51 
 -11  -4  -4    0.86    0.31 
 -12  -4  -4    3.40    0.56 
 -13  -4  -4    1.72    0.44 
 -12   5   4    0.66    0.27 
 -11   5   4   -0.03    0.18 
 -10   5   4    0.38    0.22 
  -9   5   4    0.48    0.24 
  -8   5   4    1.67    0.38 
  -7   5   4    0.19    0.20 
  -6   5   4    0.83    0.30 
  -5   5   4    3.28    0.52 
  -4   5   4    0.64    0.26 
  -3   5   4    0.09    0.18 
  -2   5   4    1.14    0.35 
  -1   5   4    3.37    0.51 
   0  -5  -4    7.24    0.66 
   0   5   4    6.14    0.66 
  -1  -5  -4    4.68    0.56 
  -2  -5  -4    4.55    0.55 
  -3  -5  -4    3.38    0.48 
  -4  -5  -4    0.46    0.22 
  -5  -5  -4   -0.01    0.16 
  -6  -5  -4    0.27    0.24 
  -7  -5  -4    1.08    0.35 
  -8  -5  -4    2.37    0.47 
  -9  -5  -4    0.29    0.23 
 -10  -5  -4    0.68    0.33 
 -11  -5  -4    0.51    0.33 
  -9   6   4    0.13    0.26 
  -8   6   4    0.10    0.26 
  -7   6   4    0.33    0.30 
  -6   6   4    0.50    0.28 
  -5   6   4    0.21    0.22 
  -4   6   4    2.36    0.49 
  -3   6   4    0.98    0.35 
  -2   6   4    0.13    0.23 
  -1   6   4    0.31    0.27 
   0   6   4    1.04    0.36 
  -1  -6  -4    2.44    0.46 
   1   6   4    1.98    0.44 
  -2  -6  -4    0.21    0.26 
  -3  -6  -4    0.87    0.30 
  -4  -6  -4    0.74    0.29 
  -5  -6  -4    1.21    0.32 
  -6  -6  -4    0.35    0.23 
  -7  -6  -4    0.13    0.23 
  -8  -6  -4    0.58    0.28 
  -3   7   4    0.22    0.28 
  -2   7   4    0.61    0.35 
  -1   7   4   -0.15    0.26 
   0   7   4    0.50    0.35 
   1   7   4    0.16    0.33 
   2   7   4    0.40    0.37 
  -3  -7  -4    0.43    0.29 
   0   7  -5   -0.41    0.15 
  -1   7  -5    0.15    0.21 
  -2   7  -5    0.09    0.20 
   5   6  -5    0.37    0.29 
   4   6  -5   -0.09    0.19 
   3   6  -5    0.24    0.24 
   2   6  -5    0.72    0.22 
   2   6  -5    0.97    0.33 
   1   6  -5    0.16    0.17 
   0   6  -5    0.48    0.21 
  -1   6  -5    0.57    0.21 
  -2   6  -5    0.78    0.26 
  -3   6  -5    0.68    0.25 
  -4   6  -5    0.13    0.17 
  -5   6  -5    0.49    0.22 
  -6   6  -5    0.08    0.18 
  -7   6  -5    0.21    0.22 
  -8   6  -5    0.38    0.24 
  11   5  -5    0.44    0.32 
 -11  -5   5    0.34    0.33 
  10   5  -5    2.03    0.47 
 -10  -5   5    2.55    0.50 
   9   5  -5    0.61    0.26 
  -9  -5   5    0.60    0.33 
   8   5  -5    0.86    0.29 
  -8  -5   5    0.17    0.27 
   7   5  -5    2.28    0.44 
  -7  -5   5    2.16    0.41 
   6   5  -5    0.97    0.29 
  -6  -5   5    1.19    0.32 
   5   5  -5    2.72    0.47 
  -5  -5   5    3.43    0.46 
   4   5  -5    2.88    0.48 
  -4  -5   5    2.49    0.39 
   3   5  -5    1.50    0.25 
   3   5  -5    1.42    0.34 
  -3  -5   5    1.25    0.29 
   2   5  -5    1.46    0.26 
  -2  -5   5    1.21    0.29 
   1   5  -5    0.11    0.13 
   1   5  -5   -0.02    0.17 
   0   5  -5    5.65    0.52 
   0   5  -5    6.31    0.49 
  -1   5  -5    0.34    0.17 
  -1   5  -5    0.31    0.18 
  -2   5  -5    0.17    0.17 
  -2   5  -5    0.66    0.19 
  -3   5  -5    3.72    0.46 
  -3   5  -5    4.33    0.45 
  -4   5  -5    5.33    0.54 
  -4   5  -5    5.98    0.49 
  -5   5  -5    1.45    0.30 
  -5   5  -5    1.38    0.32 
  -6   5  -5    2.44    0.41 
  -6   5  -5    2.65    0.36 
  -7   5  -5    0.96    0.26 
  -8   5  -5    0.25    0.21 
  -9   5  -5    0.36    0.21 
 -10   5  -5    0.36    0.21 
 -11   5  -5    1.66    0.38 
  13   4  -5    1.47    0.47 
 -13  -4   5    1.22    0.39 
  12   4  -5    0.68    0.34 
 -12  -4   5    0.59    0.30 
  11   4  -5    0.98    0.33 
 -11  -4   5    1.18    0.37 
  10   4  -5    0.20    0.20 
 -10  -4   5    0.23    0.24 
   9   4  -5    1.96    0.40 
  -9  -4   5    2.22    0.40 
   8   4  -5    2.29    0.41 
  -8  -4   5    2.99    0.44 
   7   4  -5   13.44    0.91 
  -7  -4   5   14.74    0.84 
   6   4  -5    0.63    0.25 
  -6  -4   5    1.24    0.29 
   5   4  -5    4.52    0.55 
  -5  -4   5    4.25    0.43 
   4   4  -5    0.17    0.09 
   4   4  -5    0.30    0.19 
  -4  -4   5   -0.01    0.14 
   3   4  -5    1.78    0.35 
   3   4  -5    1.60    0.22 
  -3  -4   5    1.06    0.24 
   2   4  -5    2.92    0.30 
  -2  -4   5    3.16    0.35 
   1   4  -5    3.21    0.33 
  -1  -4   5    3.86    0.38 
   0   4  -5    2.67    0.32 
   0   4  -5    3.14    0.35 
  -1   4  -5   12.59    0.69 
  -1   4  -5   14.92    0.75 
  -2   4  -5    0.98    0.23 
  -2   4  -5    0.68    0.18 
  -3   4  -5    4.68    0.45 
  -3   4  -5    4.91    0.38 
  -4   4  -5    0.50    0.20 
  -4   4  -5    1.06    0.21 
  -5   4  -5    1.54    0.24 
  -5   4  -5    0.90    0.24 
  -6   4  -5    2.80    0.31 
  -6   4  -5    3.06    0.41 
  -7   4  -5    4.71    0.51 
  -7   4  -5    5.73    0.42 
  -8   4  -5    2.44    0.31 
  -8   4  -5    3.13    0.44 
  -9   4  -5    6.41    0.61 
  -9   4  -5    6.04    0.46 
 -10   4  -5    0.07    0.16 
 -10   4  -5    0.18    0.19 
 -11   4  -5    0.90    0.25 
 -11   4  -5    0.77    0.24 
 -12   4  -5    0.28    0.22 
 -12   4  -5    0.16    0.23 
 -13   4  -5    0.41    0.23 
 -15  -3   5    0.51    0.30 
  14   3  -5    0.58    0.34 
 -14  -3   5    0.45    0.30 
  13   3  -5    1.39    0.44 
 -13  -3   5    1.19    0.37 
  12   3  -5    4.68    0.66 
 -12  -3   5    4.50    0.57 
  11   3  -5    8.49    0.81 
 -11  -3   5    7.44    0.62 
 -10  -3   5   18.10    0.97 
   9   3  -5    4.56    0.55 
  -9  -3   5    3.98    0.45 
   8   3  -5    1.74    0.35 
  -8  -3   5    2.12    0.32 
   7   3  -5    5.97    0.53 
  -7  -3   5    5.69    0.44 
   6   3  -5   17.54    1.01 
  -6  -3   5   18.23    0.85 
   5   3  -5    9.01    0.38 
   5   3  -5    8.33    0.62 
  -5  -3   5    7.93    0.50 
   4   3  -5    7.54    0.36 
   4   3  -5    7.23    0.57 
  -4  -3   5    7.53    0.47 
   3   3  -5    4.15    0.47 
   3   3  -5    3.94    0.26 
  -3  -3   5    3.58    0.32 
   2   3  -5   11.50    0.54 
   1   3  -5    0.09    0.08 
  -1  -3   5    0.26    0.12 
   0   3  -5   19.15    0.82 
   0   3  -5   18.74    0.80 
  -1   3  -5    5.65    0.38 
  -1   3  -5    5.49    0.35 
  -2   3  -5    9.45    0.53 
  -2   3  -5    9.08    0.47 
  -3   3  -5   11.50    0.61 
  -3   3  -5   10.34    0.51 
  -4   3  -5    0.56    0.16 
  -4   3  -5    0.85    0.16 
  -5   3  -5    4.59    0.42 
  -5   3  -5    4.89    0.32 
  -6   3  -5    2.27    0.32 
  -6   3  -5    3.02    0.25 
  -7   3  -5    6.07    0.47 
  -7   3  -5    5.60    0.36 
  -8   3  -5    2.61    0.37 
  -8   3  -5    2.63    0.27 
  -9   3  -5    0.38    0.19 
  -9   3  -5    1.09    0.21 
 -10   3  -5    1.45    0.30 
 -10   3  -5    1.64    0.27 
 -11   3  -5    3.92    0.46 
 -11   3  -5    2.84    0.36 
 -12   3  -5    1.78    0.35 
 -12   3  -5    2.13    0.36 
 -13   3  -5    0.82    0.29 
 -13   3  -5    0.64    0.27 
 -14   3  -5    0.98    0.31 
  15   2  -5    0.90    0.36 
 -15  -2   5    0.59    0.25 
  14   2  -5    1.32    0.42 
 -14  -2   5    1.24    0.33 
  13   2  -5    2.94    0.55 
 -13  -2   5    2.84    0.43 
  12   2  -5    2.06    0.45 
 -12  -2   5    2.16    0.36 
  11   2  -5    0.69    0.27 
 -11  -2   5    1.06    0.26 
  10   2  -5    4.97    0.59 
 -10  -2   5    4.86    0.45 
   9   2  -5   45.74    2.02 
  -9  -2   5   45.82    1.73 
   8   2  -5   22.35    1.13 
  -8  -2   5   20.57    0.93 
   7   2  -5    8.38    0.61 
  -7  -2   5   10.05    0.53 
   6   2  -5    1.24    0.10 
   6   2  -5    1.23    0.26 
  -6  -2   5    1.36    0.20 
   5   2  -5    1.88    0.31 
   5   2  -5    2.15    0.14 
  -5  -2   5    2.22    0.22 
   4   2  -5    4.43    0.39 
   4   2  -5    4.03    0.20 
  -4  -2   5    3.68    0.26 
   3   2  -5   66.04    1.99 
   3   2  -5   63.86    2.44 
  -3  -2   5   57.20    2.05 
   2   2  -5   71.51    2.30 
  -2  -2   5   73.14    2.36 
   1   2  -5   45.98    1.58 
  -1  -2   5   49.37    1.59 
   0   2  -5    7.30    0.35 
   0   2  -5    7.51    0.38 
  -1   2  -5   49.60    1.63 
  -1   2  -5   49.83    1.70 
  -2   2  -5   13.71    0.53 
  -2   2  -5   13.95    0.62 
  -3   2  -5    5.22    0.34 
  -3   2  -5    4.88    0.26 
  -4   2  -5    5.43    0.37 
  -4   2  -5    6.13    0.30 
  -5   2  -5    0.36    0.09 
  -5   2  -5    0.09    0.10 
  -6   2  -5   12.18    0.52 
  -6   2  -5   11.90    0.63 
  -7   2  -5   11.46    0.54 
  -7   2  -5   12.74    0.65 
  -8   2  -5    9.14    0.55 
  -8   2  -5    8.16    0.46 
  -9   2  -5    3.55    0.38 
  -9   2  -5    3.56    0.33 
 -10   2  -5    3.88    0.42 
 -10   2  -5    4.08    0.38 
 -11   2  -5    4.23    0.43 
 -11   2  -5    4.13    0.42 
 -12   2  -5    1.38    0.29 
 -12   2  -5    1.73    0.30 
 -13   2  -5    1.17    0.30 
 -13   2  -5    1.66    0.33 
 -14   2  -5    0.94    0.28 
 -15   2  -5    0.10    0.26 
 -16  -1   5    1.04    0.29 
 -15  -1   5    0.47    0.20 
 -14  -1   5    1.17    0.28 
  13   1  -5    0.14    0.21 
 -13  -1   5    0.34    0.20 
  12   1  -5    4.63    0.62 
 -12  -1   5    4.87    0.44 
  11   1  -5    7.46    0.66 
 -11  -1   5    7.91    0.51 
  10   1  -5   14.54    0.93 
 -10  -1   5   14.12    0.70 
   9   1  -5    9.53    0.69 
  -9  -1   5   10.48    0.55 
   8   1  -5    3.08    0.42 
  -8  -1   5    3.39    0.27 
   7   1  -5    0.54    0.16 
  -7  -1   5    0.29    0.11 
   6   1  -5   14.73    0.51 
   6   1  -5   14.49    0.77 
  -6  -1   5   12.71    0.57 
   5   1  -5   20.54    0.69 
   5   1  -5   17.91    0.92 
  -5  -1   5   20.83    0.75 
   4   1  -5   16.25    0.55 
   4   1  -5   15.36    0.79 
  -4  -1   5   15.42    0.59 
   3   1  -5   19.10    0.93 
   3   1  -5   20.67    0.70 
  -3  -1   5   21.44    0.72 
   2   1  -5   11.75    0.65 
   2   1  -5   12.69    0.46 
  -2  -1   5   12.57    0.45 
   1   1  -5   16.92    0.61 
  -1  -1   5   17.29    0.57 
   0   1  -5  158.70    4.86 
  -1   1  -5   33.19    1.02 
  -1   1  -5   31.89    1.11 
  -2   1  -5    5.08    0.21 
  -2   1  -5    4.87    0.27 
  -3   1  -5   30.32    1.01 
  -3   1  -5   30.56    1.08 
  -4   1  -5    9.30    0.39 
  -4   1  -5    8.97    0.44 
  -5   1  -5   34.48    1.20 
  -5   1  -5   35.20    1.25 
  -6   1  -5   26.90    1.03 
  -6   1  -5   26.93    0.99 
  -7   1  -5   24.76    0.95 
  -7   1  -5   24.40    0.97 
  -8   1  -5    2.56    0.27 
  -8   1  -5    2.43    0.26 
  -9   1  -5   26.88    1.07 
  -9   1  -5   26.12    1.07 
 -10   1  -5    1.24    0.24 
 -10   1  -5    1.39    0.23 
 -11   1  -5    3.59    0.34 
 -11   1  -5    2.12    0.31 
 -12   1  -5    3.45    0.40 
 -12   1  -5    3.84    0.36 
 -13   1  -5    1.90    0.34 
 -14   1  -5    0.18    0.21 
 -15   1  -5    0.22    0.20 
 -16   0   5   -0.04    0.18 
 -15   0   5    0.06    0.18 
 -14   0   5    0.25    0.17 
 -13   0   5    5.14    0.48 
 -12   0   5    0.78    0.21 
  11   0  -5    0.45    0.23 
 -11   0   5    0.32    0.15 
  10   0  -5    4.22    0.54 
 -10   0   5    4.20    0.34 
   9   0  -5   12.22    0.78 
  -9   0   5   11.54    0.58 
   8   0  -5    9.12    0.65 
  -8   0   5   10.26    0.49 
   7   0  -5    0.05    0.12 
  -7   0   5    0.23    0.09 
   6   0  -5   19.99    0.77 
   6   0  -5   21.49    0.99 
  -6   0   5   21.29    0.78 
   5   0  -5    0.79    0.11 
   5   0  -5    0.88    0.18 
  -5   0   5    0.49    0.09 
   4   0  -5   11.47    0.47 
   4   0  -5   11.22    0.58 
  -4   0   5   11.45    0.44 
   3   0  -5   32.98    1.10 
   3   0  -5   32.66    1.28 
   2   0  -5   14.94    0.55 
   2   0  -5   15.17    0.67 
  -2   0   5   14.73    0.52 
   1   0  -5    5.33    0.32 
   1   0  -5    5.25    0.25 
  -1   0   5    5.22    0.23 
   0   0  -5  306.91    9.43 
   0   0  -5  311.29    9.32 
  -1   0  -5   22.29    0.80 
  -1   0  -5   23.81    0.79 
  -2   0  -5  287.62    8.79 
  -2   0  -5  287.40    8.69 
  -3   0  -5  163.93    5.09 
  -3   0  -5  168.82    5.15 
  -4   0  -5   48.63    1.62 
  -4   0  -5   49.28    1.60 
  -5   0  -5    0.98    0.14 
  -5   0  -5    0.70    0.12 
  -6   0  -5   15.20    0.61 
  -6   0  -5   15.52    0.65 
  -7   0  -5   13.00    0.55 
  -7   0  -5   12.39    0.58 
  -8   0  -5   16.56    0.75 
  -8   0  -5   16.89    0.68 
  -9   0  -5   27.18    1.10 
  -9   0  -5   25.99    0.99 
 -10   0  -5    0.48    0.14 
 -10   0  -5    0.51    0.17 
 -11   0  -5    7.77    0.53 
 -12   0  -5    0.63    0.22 
 -13   0  -5    1.76    0.35 
 -14   0  -5    0.43    0.25 
 -15   0  -5    1.14    0.34 
 -16   1   5    1.61    0.36 
 -15   1   5    0.77    0.29 
 -14   1   5    0.81    0.24 
 -13   1   5    0.31    0.18 
 -12   1   5    5.38    0.42 
 -11   1   5    7.87    0.50 
 -10   1   5   14.71    0.70 
  -9   1   5    9.48    0.50 
  -8   1   5    2.80    0.26 
   7  -1  -5    0.76    0.21 
  -7   1   5    0.42    0.11 
   6  -1  -5   15.22    0.80 
  -6   1   5   16.33    0.67 
   5  -1  -5   19.94    0.90 
   5  -1  -5   19.69    0.80 
  -5   1   5   18.93    0.77 
   4  -1  -5   14.85    0.65 
   4  -1  -5   14.86    0.70 
  -4   1   5   15.39    0.63 
   3  -1  -5   20.30    0.79 
   3  -1  -5   20.81    0.84 
  -3   1   5   18.75    0.77 
   2  -1  -5   11.90    0.52 
  -2   1   5   12.46    0.54 
   1  -1  -5   14.93    0.61 
   1  -1  -5   16.02    0.61 
  -1   1   5   14.92    0.64 
   0  -1  -5  162.33    5.31 
   0  -1  -5  151.87    4.88 
   0  -1  -5  161.28    4.97 
  -1  -1  -5   29.67    1.06 
  -1  -1  -5   28.78    1.02 
  -2  -1  -5    4.81    0.27 
  -2  -1  -5    5.03    0.30 
  -3  -1  -5   28.09    0.98 
  -3  -1  -5   27.65    1.04 
  -4  -1  -5    8.47    0.39 
  -4  -1  -5    8.80    0.45 
  -5  -1  -5   32.74    1.24 
  -5  -1  -5   33.74    1.15 
  -6  -1  -5   25.25    0.90 
  -6  -1  -5   23.29    0.98 
  -7  -1  -5   22.31    0.96 
  -8  -1  -5    2.48    0.30 
  -9  -1  -5   23.42    0.91 
  -9  -1  -5   25.58    1.10 
 -10  -1  -5    1.09    0.25 
 -11  -1  -5    2.49    0.38 
 -12  -1  -5    3.63    0.47 
 -13  -1  -5    2.57    0.44 
 -14  -1  -5    0.10    0.23 
 -15  -1  -5    0.11    0.26 
 -15   2   5    1.20    0.29 
 -14   2   5    1.34    0.28 
 -13   2   5    2.35    0.34 
 -12   2   5    2.83    0.35 
 -11   2   5    0.80    0.19 
 -10   2   5    5.38    0.41 
  -9   2   5   46.00    1.70 
  -8   2   5   22.01    0.96 
  -7   2   5    9.74    0.55 
  -6   2   5    0.97    0.18 
  -5   2   5    1.97    0.25 
   4  -2  -5    4.06    0.32 
  -4   2   5    3.43    0.33 
   3  -2  -5   63.61    2.21 
  -3   2   5   64.00    2.23 
   2  -2  -5   66.85    2.30 
  -2   2   5   68.23    2.35 
   1  -2  -5   47.75    1.69 
  -1   2   5   47.27    1.73 
   0  -2  -5    6.82    0.41 
   0  -2  -5    7.23    0.42 
  -1  -2  -5   45.85    1.62 
  -1  -2  -5   46.56    1.68 
  -2  -2  -5   12.07    0.55 
  -2  -2  -5   11.44    0.60 
  -3  -2  -5    5.07    0.36 
  -3  -2  -5    4.47    0.30 
  -4  -2  -5    5.68    0.32 
  -4  -2  -5    4.42    0.36 
  -5  -2  -5    0.13    0.09 
  -5  -2  -5    0.27    0.12 
  -6  -2  -5   10.72    0.61 
  -7  -2  -5    9.95    0.48 
  -7  -2  -5   10.03    0.60 
  -8  -2  -5    6.19    0.36 
  -8  -2  -5    6.19    0.48 
  -9  -2  -5    3.62    0.43 
 -10  -2  -5    3.21    0.44 
 -11  -2  -5    4.24    0.53 
 -12  -2  -5    1.38    0.36 
 -13  -2  -5    1.99    0.44 
 -14  -2  -5    0.73    0.33 
 -15  -2  -5    0.32    0.33 
 -15   3   5    0.35    0.23 
 -14   3   5    0.46    0.24 
 -13   3   5    0.91    0.25 
 -12   3   5    3.97    0.44 
 -11   3   5    7.39    0.55 
 -10   3   5   20.11    1.00 
  -9   3   5    4.17    0.44 
  -8   3   5    1.90    0.31 
  -7   3   5    6.52    0.50 
  -6   3   5   18.01    0.90 
  -5   3   5    8.36    0.57 
  -4   3   5    6.99    0.51 
  -3   3   5    3.61    0.39 
   2  -3  -5   11.51    0.65 
  -2   3   5   11.13    0.67 
   1  -3  -5   -0.01    0.11 
  -1   3   5    0.14    0.12 
   0  -3  -5   18.10    0.87 
   0  -3  -5   19.15    0.90 
  -1  -3  -5    5.85    0.42 
  -1  -3  -5    4.96    0.40 
  -2  -3  -5    9.43    0.55 
  -2  -3  -5    9.24    0.58 
  -3  -3  -5    9.04    0.58 
  -3  -3  -5   10.16    0.56 
  -4  -3  -5    0.44    0.16 
  -4  -3  -5    0.37    0.14 
  -5  -3  -5    4.27    0.35 
  -5  -3  -5    4.55    0.44 
  -6  -3  -5    2.18    0.34 
  -7  -3  -5    4.50    0.35 
  -7  -3  -5    4.88    0.49 
  -8  -3  -5    2.53    0.39 
  -9  -3  -5    0.40    0.20 
 -10  -3  -5    1.58    0.35 
 -11  -3  -5    2.73    0.46 
 -12  -3  -5    1.87    0.40 
 -13  -3  -5    0.70    0.29 
 -14  -3  -5    1.44    0.42 
 -13   4   5    1.29    0.32 
 -12   4   5    0.39    0.22 
 -11   4   5    0.88    0.27 
 -10   4   5    0.05    0.17 
  -9   4   5    2.02    0.37 
  -8   4   5    2.75    0.41 
  -7   4   5   15.52    0.91 
  -6   4   5    0.84    0.25 
  -5   4   5    5.03    0.53 
  -4   4   5    0.16    0.14 
  -3   4   5    0.85    0.26 
  -2   4   5    2.12    0.37 
  -1   4   5    2.95    0.42 
   0  -4  -5    2.20    0.36 
  -1  -4  -5   13.72    0.76 
  -1  -4  -5   12.75    0.78 
  -2  -4  -5    0.63    0.21 
  -2  -4  -5    0.83    0.22 
  -3  -4  -5    4.69    0.50 
  -3  -4  -5    4.73    0.45 
  -4  -4  -5    0.68    0.22 
  -4  -4  -5    0.73    0.24 
  -5  -4  -5    0.93    0.24 
  -5  -4  -5    0.82    0.27 
  -6  -4  -5    2.34    0.33 
  -6  -4  -5    2.23    0.39 
  -7  -4  -5    4.29    0.54 
  -8  -4  -5    2.32    0.43 
  -9  -4  -5    5.93    0.67 
 -10  -4  -5    0.20    0.23 
 -11  -4  -5    0.44    0.31 
 -12  -4  -5    0.23    0.26 
 -13  -4  -5    0.39    0.27 
 -11   5   5    0.19    0.23 
 -10   5   5    1.75    0.41 
  -9   5   5    0.53    0.28 
  -8   5   5    0.23    0.21 
  -7   5   5    1.88    0.39 
  -6   5   5    1.08    0.35 
  -5   5   5    2.53    0.46 
  -4   5   5    2.15    0.43 
  -3   5   5    1.45    0.37 
  -2   5   5    1.11    0.33 
  -1   5   5    0.20    0.22 
   0   5   5    5.42    0.63 
  -1  -5  -5    0.25    0.18 
  -2  -5  -5    0.34    0.19 
  -3  -5  -5    3.27    0.49 
  -4  -5  -5    5.17    0.60 
  -5  -5  -5    1.23    0.35 
  -6  -5  -5    2.46    0.48 
  -7  -5  -5    0.49    0.28 
  -8  -5  -5    0.15    0.20 
  -9  -5  -5    0.78    0.34 
 -10  -5  -5    0.20    0.24 
 -11  -5  -5    1.54    0.44 
  -8   6   5    0.37    0.27 
  -7   6   5    0.73    0.33 
  -6   6   5    0.54    0.29 
  -5   6   5    0.15    0.24 
  -4   6   5    0.02    0.22 
  -3   6   5    0.64    0.31 
  -2   6   5    0.83    0.33 
  -1   6   5    0.43    0.27 
   0   6   5    0.80    0.33 
   1   6   5    0.66    0.31 
  -2  -6  -5    1.28    0.35 
  -3  -6  -5    1.28    0.36 
  -4  -6  -5    0.06    0.19 
  -5  -6  -5    0.32    0.21 
  -6  -6  -5    0.20    0.24 
  -7  -6  -5    0.65    0.29 
  -8  -6  -5    0.15    0.27 
  -2   7   5    0.05    0.27 
  -1   7   5    0.45    0.30 
   0   7   5   -0.02    0.25 
   1   7   5    0.29    0.32 
   2   7   5   -0.50    0.19 
   7   6  -6    0.37    0.33 
   6   6  -6    2.65    0.54 
   5   6  -6    0.76    0.33 
   4   6  -6    0.66    0.29 
   3   6  -6    0.43    0.28 
   2   6  -6    0.74    0.31 
   1   6  -6    0.89    0.25 
   0   6  -6    0.29    0.19 
  -1   6  -6    1.59    0.33 
  -2   6  -6    0.54    0.23 
  -3   6  -6    1.18    0.32 
  -4   6  -6    2.30    0.43 
  -5   6  -6    0.54    0.26 
  -6   6  -6    0.07    0.20 
  -7   6  -6    0.16    0.22 
  11   5  -6    0.95    0.37 
 -11  -5   6    0.24    0.35 
  10   5  -6    0.31    0.26 
 -10  -5   6    0.14    0.32 
   9   5  -6    2.52    0.52 
  -9  -5   6    1.88    0.45 
   8   5  -6    4.99    0.67 
  -8  -5   6    4.04    0.55 
   7   5  -6    1.76    0.41 
  -7  -5   6    1.35    0.35 
   6   5  -6    0.03    0.17 
  -6  -5   6   -0.03    0.21 
   5   5  -6    0.65    0.27 
  -5  -5   6    0.55    0.26 
   4   5  -6    1.09    0.31 
  -4  -5   6    1.09    0.30 
   3   5  -6    1.34    0.24 
   3   5  -6    1.60    0.37 
  -3  -5   6    1.65    0.33 
   2   5  -6    0.19    0.13 
  -2  -5   6    0.17    0.20 
   1   5  -6    1.69    0.29 
   0   5  -6    1.51    0.28 
  -1   5  -6    4.01    0.45 
  -2   5  -6    2.42    0.37 
  -3   5  -6    0.76    0.24 
  -4   5  -6    0.56    0.23 
  -5   5  -6    2.10    0.38 
  -6   5  -6    2.34    0.41 
  -7   5  -6    5.68    0.60 
  -8   5  -6    2.13    0.38 
  -9   5  -6    0.40    0.23 
 -10   5  -6    0.59    0.26 
  13   4  -6    0.20    0.28 
 -13  -4   6    0.40    0.31 
  12   4  -6    2.65    0.54 
 -12  -4   6    2.65    0.51 
  11   4  -6    2.31    0.48 
 -11  -4   6    3.71    0.55 
  10   4  -6    0.06    0.21 
 -10  -4   6    0.55    0.28 
   9   4  -6    0.99    0.31 
  -9  -4   6    1.77    0.37 
   8   4  -6    0.58    0.24 
  -8  -4   6    0.25    0.21 
   7   4  -6    4.96    0.61 
  -7  -4   6    5.08    0.50 
   6   4  -6    8.44    0.69 
  -6  -4   6    6.86    0.55 
   5   4  -6    4.27    0.56 
  -5  -4   6    4.68    0.44 
   4   4  -6   13.62    0.93 
   4   4  -6   14.81    0.65 
  -4  -4   6   14.37    0.77 
   3   4  -6    6.80    0.61 
   3   4  -6    8.58    0.46 
  -3  -4   6    5.78    0.47 
   2   4  -6    1.94    0.24 
  -2  -4   6    0.38    0.15 
   1   4  -6   11.31    0.62 
  -1  -4   6   12.33    0.64 
   0   4  -6    1.00    0.21 
   0   4  -6    1.17    0.23 
  -1   4  -6    1.18    0.23 
  -1   4  -6    1.37    0.23 
  -2   4  -6    8.95    0.59 
  -2   4  -6    9.57    0.54 
  -3   4  -6    4.36    0.44 
  -3   4  -6    5.27    0.37 
  -4   4  -6   17.45    0.80 
  -4   4  -6   18.28    0.93 
  -5   4  -6    6.38    0.42 
  -5   4  -6    6.38    0.52 
  -6   4  -6    0.57    0.18 
  -6   4  -6    0.55    0.22 
  -7   4  -6    0.60    0.19 
  -7   4  -6    0.60    0.21 
  -8   4  -6    5.31    0.41 
  -8   4  -6    5.44    0.56 
  -9   4  -6    1.80    0.34 
 -10   4  -6    8.89    0.68 
 -11   4  -6    0.49    0.22 
 -12   4  -6    0.70    0.28 
  14   3  -6    0.17    0.35 
 -14  -3   6    0.25    0.27 
  13   3  -6    2.71    0.55 
 -13  -3   6    3.34    0.52 
  12   3  -6    3.03    0.56 
 -12  -3   6    2.99    0.49 
  11   3  -6    0.56    0.28 
 -11  -3   6    0.24    0.26 
  10   3  -6    0.67    0.28 
 -10  -3   6    0.69    0.27 
   9   3  -6    8.51    0.69 
  -9  -3   6    8.74    0.61 
   8   3  -6    1.79    0.37 
  -8  -3   6    1.38    0.28 
   7   3  -6   22.67    1.21 
  -7  -3   6   21.24    0.99 
   6   3  -6    9.80    0.71 
  -6  -3   6    9.74    0.57 
   5   3  -6    3.63    0.22 
   5   3  -6    3.51    0.47 
  -5  -3   6    3.10    0.32 
   4   3  -6    1.56    0.33 
   4   3  -6    1.59    0.16 
   3   3  -6   11.26    0.76 
   3   3  -6   12.21    0.53 
  -3  -3   6   12.15    0.60 
   2   3  -6    0.59    0.13 
  -2  -3   6    0.57    0.16 
   1   3  -6   20.29    0.83 
  -1  -3   6   19.71    0.81 
   0   3  -6   18.31    0.79 
   0   3  -6   18.33    0.77 
  -1   3  -6    0.39    0.11 
  -1   3  -6    0.48    0.13 
  -2   3  -6    8.13    0.49 
  -2   3  -6    7.88    0.41 
  -3   3  -6    2.52    0.30 
  -3   3  -6    2.46    0.22 
  -4   3  -6    5.40    0.41 
  -4   3  -6    5.51    0.33 
  -5   3  -6    6.23    0.36 
  -5   3  -6    6.73    0.47 
  -6   3  -6   22.82    0.87 
  -6   3  -6   20.64    1.00 
  -7   3  -6    4.95    0.33 
  -7   3  -6    4.18    0.44 
  -8   3  -6    0.25    0.16 
  -8   3  -6    0.26    0.13 
  -9   3  -6    2.63    0.30 
  -9   3  -6    3.00    0.40 
 -10   3  -6    0.50    0.20 
 -10   3  -6    0.85    0.23 
 -11   3  -6    1.75    0.32 
 -11   3  -6    1.97    0.34 
 -12   3  -6   -0.08    0.19 
 -12   3  -6   -0.04    0.18 
 -13   3  -6    0.28    0.26 
 -13   3  -6    0.67    0.25 
  15   2  -6    0.16    0.29 
 -15  -2   6    0.39    0.24 
  14   2  -6    1.80    0.45 
 -14  -2   6    1.80    0.37 
  13   2  -6    3.07    0.58 
 -13  -2   6    4.02    0.48 
  12   2  -6    3.68    0.59 
 -12  -2   6    3.49    0.44 
  11   2  -6    2.19    0.46 
 -11  -2   6    2.78    0.37 
  10   2  -6    1.00    0.30 
 -10  -2   6    1.12    0.25 
   9   2  -6    5.08    0.57 
  -9  -2   6    4.88    0.40 
   8   2  -6    1.35    0.30 
  -8  -2   6    1.34    0.23 
   7   2  -6    0.16    0.13 
  -7  -2   6    0.04    0.09 
   6   2  -6   31.64    1.02 
   6   2  -6   28.85    1.42 
  -6  -2   6   31.80    1.18 
   5   2  -6    9.48    0.66 
   5   2  -6   11.13    0.42 
  -5  -2   6   11.13    0.52 
   4   2  -6    6.83    0.29 
   4   2  -6    5.87    0.49 
  -4  -2   6    5.86    0.35 
   3   2  -6   20.41    1.05 
   3   2  -6   20.82    0.74 
  -3  -2   6   20.56    0.79 
   2   2  -6   39.64    1.38 
  -2  -2   6   43.28    1.41 
   1   2  -6   12.99    0.55 
  -1  -2   6   13.00    0.51 
   0   2  -6   93.03    2.93 
   0   2  -6   89.93    2.87 
  -1   2  -6    1.54    0.13 
  -1   2  -6    2.03    0.21 
  -2   2  -6   22.43    0.78 
  -2   2  -6   22.91    0.90 
  -3   2  -6    0.44    0.11 
  -3   2  -6    0.43    0.08 
  -4   2  -6    1.38    0.13 
  -4   2  -6    1.37    0.21 
  -5   2  -6    5.17    0.36 
  -5   2  -6    4.54    0.26 
  -6   2  -6    1.09    0.21 
  -6   2  -6    1.17    0.16 
  -7   2  -6    2.28    0.30 
  -7   2  -6    2.09    0.23 
  -8   2  -6    3.74    0.30 
  -8   2  -6    4.21    0.41 
  -9   2  -6   15.51    0.79 
  -9   2  -6   15.58    0.73 
 -10   2  -6    3.18    0.38 
 -10   2  -6    3.00    0.34 
 -11   2  -6    0.35    0.17 
 -11   2  -6    0.29    0.18 
 -12   2  -6    1.90    0.33 
 -12   2  -6    2.39    0.35 
 -13   2  -6    0.15    0.21 
 -13   2  -6    0.13    0.20 
 -14   2  -6    0.22    0.24 
 -15   2  -6    0.14    0.25 
 -16  -1   6    0.23    0.21 
 -15  -1   6    0.41    0.20 
  14   1  -6    2.59    0.55 
 -14  -1   6    2.22    0.35 
  13   1  -6    2.15    0.50 
 -13  -1   6    2.86    0.38 
  12   1  -6   -0.05    0.22 
 -12  -1   6    0.39    0.18 
  11   1  -6    1.22    0.34 
 -11  -1   6    1.49    0.26 
  10   1  -6    9.51    0.72 
 -10  -1   6    8.73    0.52 
   9   1  -6   10.21    0.72 
  -9  -1   6   11.01    0.56 
  -8  -1   6   22.19    0.90 
   7   1  -6   17.28    0.64 
   7   1  -6   17.27    0.94 
  -7  -1   6   19.33    0.75 
   6   1  -6    3.97    0.21 
   6   1  -6    3.16    0.39 
  -6  -1   6    3.10    0.23 
   5   1  -6   12.26    0.71 
   5   1  -6   12.22    0.47 
  -5  -1   6   11.95    0.50 
   4   1  -6   13.08    0.73 
   4   1  -6   15.16    0.52 
  -4  -1   6   12.33    0.51 
   3   1  -6  104.18    3.84 
   3   1  -6  106.17    3.29 
  -3  -1   6  109.25    3.32 
   2   1  -6   32.58    1.41 
   2   1  -6   32.98    1.12 
  -2  -1   6   35.39    1.09 
   1   1  -6   18.02    0.66 
   0   1  -6   10.67    0.44 
  -1   1  -6  150.74    4.65 
  -2   1  -6  126.21    3.83 
  -2   1  -6  123.49    3.90 
  -3   1  -6   89.63    2.77 
  -3   1  -6   87.65    2.84 
  -4   1  -6   11.74    0.46 
  -4   1  -6   11.17    0.52 
  -5   1  -6   10.71    0.46 
  -5   1  -6   11.15    0.52 
  -6   1  -6   26.59    0.99 
  -6   1  -6   27.03    1.04 
  -7   1  -6   11.06    0.52 
  -7   1  -6   10.18    0.53 
  -8   1  -6   28.02    1.10 
  -8   1  -6   29.41    1.13 
  -9   1  -6   10.93    0.58 
 -10   1  -6    2.69    0.31 
 -10   1  -6    3.26    0.32 
 -11   1  -6    2.20    0.28 
 -11   1  -6    1.67    0.29 
 -12   1  -6    3.01    0.39 
 -12   1  -6    3.92    0.36 
 -13   1  -6    0.08    0.18 
 -14   1  -6   -0.05    0.20 
 -15   1  -6    0.36    0.26 
 -16   0   6    0.26    0.19 
 -15   0   6    0.09    0.18 
 -14   0   6    0.29    0.20 
 -13   0   6    1.49    0.29 
  12   0  -6    0.98    0.34 
 -12   0   6    1.03    0.24 
  11   0  -6    3.83    0.54 
 -11   0   6    3.53    0.36 
  10   0  -6   18.14    1.07 
 -10   0   6   18.90    0.84 
   9   0  -6   11.77    0.79 
  -9   0   6   12.89    0.61 
   8   0  -6    0.38    0.19 
  -8   0   6    0.49    0.13 
   7   0  -6    0.35    0.10 
   7   0  -6    0.27    0.16 
  -7   0   6    0.35    0.10 
   6   0  -6   19.58    0.77 
   6   0  -6   19.89    0.97 
  -6   0   6   20.08    0.75 
   5   0  -6    2.72    0.19 
   5   0  -6    1.66    0.26 
  -5   0   6    2.22    0.16 
   4   0  -6    1.70    0.16 
   4   0  -6    1.32    0.21 
  -4   0   6    1.39    0.12 
   3   0  -6   17.63    0.66 
   3   0  -6   17.08    0.80 
   2   0  -6    2.11    0.23 
   2   0  -6    2.18    0.15 
  -2   0   6    1.95    0.13 
   1   0  -6   58.45    2.16 
   1   0  -6   59.52    1.89 
  -1   0   6   59.00    1.87 
   0   0  -6   10.72    0.44 
   0   0   6   10.99    0.42 
  -1   0  -6  134.94    4.23 
  -1   0  -6  140.11    4.26 
  -2   0  -6   34.62    1.14 
  -2   0  -6   33.26    1.15 
  -3   0  -6  286.43    8.92 
  -3   0  -6  295.58    8.83 
  -4   0  -6  220.39    6.66 
  -4   0  -6  214.87    6.73 
  -5   0  -6   14.44    0.61 
  -5   0  -6   15.42    0.62 
  -6   0  -6    1.61    0.18 
  -6   0  -6    1.86    0.20 
  -7   0  -6    5.81    0.34 
  -7   0  -6    6.18    0.38 
  -8   0  -6    3.54    0.33 
  -8   0  -6    3.62    0.28 
  -9   0  -6   27.58    1.04 
  -9   0  -6   27.07    1.13 
 -10   0  -6   28.10    1.19 
 -10   0  -6   27.50    1.06 
 -11   0  -6    7.85    0.46 
 -11   0  -6    7.81    0.54 
 -12   0  -6    0.30    0.21 
 -13   0  -6    1.37    0.33 
 -14   0  -6   -0.19    0.21 
 -15   0  -6   -0.40    0.20 
 -16   1   6    0.75    0.28 
 -15   1   6    0.30    0.21 
 -14   1   6    1.30    0.31 
 -13   1   6    2.85    0.38 
 -12   1   6    0.43    0.17 
 -11   1   6    1.05    0.22 
 -10   1   6    8.95    0.51 
   9  -1  -6   11.70    0.79 
  -9   1   6   12.32    0.59 
   8  -1  -6   22.49    1.12 
  -8   1   6   20.87    0.87 
   7  -1  -6   16.79    0.90 
  -7   1   6   18.07    0.74 
   6  -1  -6    3.48    0.36 
   6  -1  -6    3.35    0.27 
  -6   1   6    3.23    0.25 
   5  -1  -6   12.00    0.58 
   5  -1  -6   12.44    0.66 
  -5   1   6   12.59    0.56 
   4  -1  -6   14.79    0.70 
   4  -1  -6   14.39    0.65 
  -4   1   6   14.93    0.63 
   3  -1  -6  102.66    3.30 
  -3   1   6  103.99    3.33 
   2  -1  -6   33.21    1.23 
   2  -1  -6   32.68    1.17 
  -2   1   6   31.89    1.17 
   1  -1  -6   19.35    0.74 
   1  -1  -6   18.74    0.73 
  -1   1   6   17.76    0.75 
   0  -1  -6   10.15    0.43 
   0  -1  -6    9.98    0.46 
   0  -1  -6    9.66    0.45 
  -1  -1  -6  144.29    4.52 
  -1  -1  -6  147.25    4.61 
  -2  -1  -6  117.04    3.67 
  -2  -1  -6  111.33    3.57 
  -3  -1  -6   81.07    2.62 
  -3  -1  -6   83.48    2.71 
  -4  -1  -6   10.45    0.47 
  -4  -1  -6   10.41    0.51 
  -5  -1  -6   10.85    0.55 
  -5  -1  -6   10.85    0.49 
  -6  -1  -6   23.86    0.99 
  -6  -1  -6   23.28    0.89 
  -7  -1  -6    9.19    0.53 
  -7  -1  -6    9.02    0.45 
  -8  -1  -6   26.38    1.03 
  -8  -1  -6   29.60    1.19 
 -10  -1  -6    3.59    0.42 
 -11  -1  -6    2.24    0.38 
 -12  -1  -6    2.68    0.43 
 -13  -1  -6    0.37    0.24 
 -14  -1  -6    0.23    0.24 
 -15  -1  -6    0.25    0.28 
 -15   2   6    0.25    0.20 
 -14   2   6    1.62    0.33 
 -13   2   6    3.69    0.42 
 -12   2   6    3.31    0.37 
 -11   2   6    2.60    0.32 
 -10   2   6    0.67    0.19 
  -9   2   6    4.97    0.39 
  -8   2   6    1.12    0.21 
  -7   2   6    0.18    0.12 
  -6   2   6   29.39    1.19 
   5  -2  -6   11.20    0.61 
  -5   2   6   10.23    0.57 
   4  -2  -6    6.62    0.44 
  -4   2   6    6.31    0.42 
   3  -2  -6   21.81    0.93 
  -3   2   6   20.98    0.92 
   2  -2  -6   38.72    1.43 
  -2   2   6   36.70    1.44 
   1  -2  -6   12.14    0.60 
  -1   2   6   11.66    0.62 
   0  -2  -6   86.10    2.86 
   0  -2  -6   87.20    2.91 
  -1  -2  -6    1.41    0.20 
  -1  -2  -6    1.27    0.20 
  -2  -2  -6   20.00    0.83 
  -2  -2  -6   20.51    0.89 
  -3  -2  -6    0.61    0.16 
  -3  -2  -6    0.27    0.10 
  -4  -2  -6    1.18    0.18 
  -4  -2  -6    1.49    0.24 
  -5  -2  -6    3.90    0.29 
  -5  -2  -6    4.13    0.38 
  -6  -2  -6    1.03    0.21 
  -6  -2  -6    0.88    0.17 
  -7  -2  -6    1.94    0.29 
  -7  -2  -6    1.41    0.19 
  -8  -2  -6    2.08    0.23 
  -8  -2  -6    3.29    0.39 
  -9  -2  -6   13.34    0.78 
 -10  -2  -6    2.63    0.41 
 -11  -2  -6    0.27    0.23 
 -12  -2  -6    2.05    0.43 
 -13  -2  -6    0.09    0.22 
 -14  -2  -6   -0.11    0.24 
 -14   3   6   -0.04    0.18 
 -13   3   6    1.93    0.33 
 -12   3   6    2.30    0.36 
 -11   3   6    0.95    0.23 
 -10   3   6    0.79    0.23 
  -9   3   6    8.52    0.59 
  -8   3   6    1.71    0.32 
  -7   3   6   21.53    1.03 
  -6   3   6   10.17    0.65 
  -5   3   6    3.35    0.40 
  -4   3   6    1.42    0.27 
   3  -3  -6   10.97    0.65 
  -3   3   6   10.84    0.66 
   2  -3  -6    0.33    0.16 
  -2   3   6    0.55    0.19 
   1  -3  -6   19.47    0.93 
  -1   3   6   19.13    0.95 
   0  -3  -6   18.06    0.86 
   0  -3  -6   16.77    0.85 
  -1  -3  -6    0.46    0.17 
  -1  -3  -6    0.09    0.10 
  -2  -3  -6    7.66    0.52 
  -2  -3  -6    7.30    0.49 
  -3  -3  -6    2.52    0.35 
  -3  -3  -6    3.00    0.32 
  -4  -3  -6    5.03    0.38 
  -4  -3  -6    4.83    0.46 
  -5  -3  -6    5.31    0.50 
  -5  -3  -6    6.69    0.44 
  -6  -3  -6   21.97    1.05 
  -6  -3  -6   19.33    0.89 
  -7  -3  -6    3.77    0.46 
  -8  -3  -6    0.38    0.18 
  -9  -3  -6    2.52    0.43 
 -10  -3  -6    0.57    0.24 
 -11  -3  -6    2.20    0.45 
 -12  -3  -6   -0.03    0.23 
 -13  -3  -6    0.41    0.30 
 -14  -3  -6    0.25    0.30 
 -13   4   6   -0.05    0.17 
 -12   4   6    2.83    0.44 
 -11   4   6    2.86    0.43 
 -10   4   6    0.73    0.26 
  -9   4   6    1.34    0.32 
  -8   4   6    0.24    0.19 
  -7   4   6    5.09    0.55 
  -6   4   6    7.37    0.60 
  -5   4   6    3.71    0.46 
  -4   4   6   13.70    0.84 
  -3   4   6    8.06    0.63 
  -2   4   6    2.65    0.42 
   1  -4  -6   12.30    0.74 
  -1   4   6   10.86    0.75 
   0  -4  -6    0.75    0.24 
   0  -4  -6    1.19    0.27 
  -1  -4  -6    1.40    0.29 
  -1  -4  -6    1.53    0.31 
  -2  -4  -6    9.10    0.61 
  -2  -4  -6    8.60    0.64 
  -3  -4  -6    4.92    0.48 
  -3  -4  -6    5.14    0.54 
  -4  -4  -6   15.67    0.93 
  -4  -4  -6   17.94    0.90 
  -5  -4  -6    4.86    0.46 
  -5  -4  -6    5.54    0.57 
  -6  -4  -6    0.87    0.24 
  -6  -4  -6    0.84    0.27 
  -7  -4  -6    0.32    0.21 
  -8  -4  -6    4.91    0.60 
  -9  -4  -6    2.01    0.43 
 -10  -4  -6    7.16    0.76 
 -11  -4  -6    0.25    0.22 
 -12  -4  -6    0.90    0.35 
 -11   5   6    0.56    0.28 
 -10   5   6    0.23    0.25 
  -9   5   6    1.96    0.41 
  -8   5   6    3.58    0.53 
  -7   5   6    2.03    0.42 
  -6   5   6    0.13    0.21 
  -5   5   6    0.56    0.29 
  -4   5   6    1.03    0.33 
  -3   5   6    1.03    0.32 
  -2   5   6    0.20    0.20 
  -1   5   6    1.50    0.37 
   0   5   6    0.35    0.27 
  -1  -5  -6    3.33    0.50 
  -2  -5  -6    2.71    0.45 
  -3  -5  -6    0.36    0.26 
  -4  -5  -6    0.10    0.22 
  -5  -5  -6    1.34    0.36 
  -6  -5  -6    2.17    0.46 
  -7  -5  -6    5.63    0.69 
  -8  -5  -6    1.97    0.47 
  -9  -5  -6    0.42    0.30 
 -10  -5  -6    0.11    0.23 
  -8   6   6    0.71    0.32 
  -7   6   6    0.72    0.31 
  -6   6   6    2.41    0.51 
  -5   6   6    0.44    0.30 
  -4   6   6    0.53    0.31 
  -3   6   6    0.58    0.31 
  -2   6   6    0.76    0.31 
  -1   6   6    0.64    0.30 
   0   6   6    0.29    0.25 
   1   6   6    1.25    0.39 
  -2  -6  -6    0.56    0.27 
  -3  -6  -6    1.55    0.39 
  -4  -6  -6    1.54    0.39 
  -5  -6  -6    0.00    0.18 
  -6  -6  -6   -0.11    0.18 
  -7  -6  -6    0.34    0.27 
   7   6  -7   -0.06    0.24 
   6   6  -7    0.45    0.26 
   5   6  -7    0.04    0.24 
   4   6  -7    0.41    0.28 
   3   6  -7    1.17    0.38 
   2   6  -7    0.42    0.27 
   1   6  -7    0.32    0.19 
   0   6  -7    1.72    0.35 
  -1   6  -7    0.53    0.23 
  -2   6  -7    0.67    0.25 
  -3   6  -7    0.02    0.17 
  -4   6  -7   -0.01    0.15 
  -5   6  -7    0.20    0.20 
  -6   6  -7    0.98    0.31 
  -7   6  -7    0.16    0.20 
  11   5  -7    0.26    0.32 
  10   5  -7    0.25    0.24 
   9   5  -7   -0.14    0.20 
   8   5  -7    0.43    0.28 
   7   5  -7    2.34    0.48 
   6   5  -7    1.09    0.34 
   5   5  -7    0.67    0.29 
   4   5  -7    1.08    0.32 
   3   5  -7    0.31    0.22 
   3   5  -7    0.21    0.13 
   2   5  -7    2.39    0.32 
   1   5  -7    0.78    0.21 
   0   5  -7    1.73    0.29 
  -1   5  -7    0.14    0.14 
  -2   5  -7    2.34    0.38 
  -3   5  -7    6.91    0.56 
  -4   5  -7    1.92    0.35 
  -5   5  -7    1.74    0.33 
  -6   5  -7    1.46    0.32 
  -7   5  -7    0.17    0.18 
  -8   5  -7    1.60    0.35 
  -9   5  -7    5.32    0.61 
 -10   5  -7    0.65    0.27 
  13   4  -7    0.38    0.37 
 -13  -4   7   -0.01    0.31 
  12   4  -7    0.98    0.38 
 -12  -4   7   -0.13    0.26 
  11   4  -7    1.24    0.35 
 -11  -4   7    1.47    0.39 
  10   4  -7    2.29    0.48 
 -10  -4   7    2.68    0.47 
   9   4  -7    0.31    0.20 
  -9  -4   7   -0.07    0.22 
   8   4  -7    3.68    0.58 
  -8  -4   7    4.38    0.49 
   7   4  -7    0.63    0.24 
  -7  -4   7    0.41    0.24 
   6   4  -7    2.34    0.41 
  -6  -4   7    2.14    0.35 
   5   4  -7    0.29    0.21 
  -5  -4   7    0.78    0.23 
   4   4  -7    2.29    0.24 
   4   4  -7    2.05    0.41 
   3   4  -7    1.21    0.20 
   3   4  -7    0.81    0.29 
  -3  -4   7    0.98    0.23 
   2   4  -7    1.55    0.23 
  -2  -4   7    1.84    0.27 
   1   4  -7    1.12    0.24 
   1   4  -7    0.86    0.19 
   0   4  -7   18.05    0.86 
  -1   4  -7    1.44    0.25 
  -2   4  -7    7.59    0.52 
  -3   4  -7    0.94    0.23 
  -4   4  -7    2.58    0.37 
  -5   4  -7   16.04    0.88 
  -6   4  -7   13.38    0.80 
  -7   4  -7    2.97    0.42 
  -8   4  -7    4.11    0.51 
  -9   4  -7    1.84    0.34 
 -10   4  -7    1.46    0.34 
 -11   4  -7    0.82    0.26 
 -12   4  -7    1.35    0.33 
  14   3  -7    2.60    0.59 
 -14  -3   7    2.52    0.49 
  13   3  -7    1.98    0.49 
 -13  -3   7    2.55    0.49 
  12   3  -7    0.97    0.36 
 -12  -3   7    1.00    0.36 
  11   3  -7    2.56    0.50 
 -11  -3   7    3.48    0.48 
  10   3  -7    0.53    0.27 
 -10  -3   7    0.81    0.28 
   9   3  -7    0.69    0.26 
  -9  -3   7    0.89    0.26 
   8   3  -7    6.32    0.67 
  -8  -3   7    6.10    0.48 
   7   3  -7    7.19    0.63 
  -7  -3   7    7.34    0.50 
   6   3  -7    4.30    0.54 
  -6  -3   7    4.61    0.37 
   5   3  -7   10.16    0.74 
   5   3  -7    9.82    0.42 
   4   3  -7    3.69    0.24 
   4   3  -7    4.10    0.51 
  -4  -3   7    3.79    0.31 
   3   3  -7    6.36    0.56 
   3   3  -7    6.20    0.35 
  -3  -3   7    6.38    0.40 
   2   3  -7    7.45    0.40 
  -2  -3   7    6.66    0.39 
   1   3  -7    1.48    0.20 
  -1  -3   7    1.47    0.18 
   0   3  -7    1.85    0.20 
   0   3  -7    1.26    0.20 
  -1   3  -7   11.16    0.59 
  -1   3  -7   11.65    0.51 
  -2   3  -7    2.65    0.21 
  -2   3  -7    2.67    0.30 
  -3   3  -7    2.04    0.19 
  -3   3  -7    2.14    0.28 
  -4   3  -7   18.48    0.89 
  -4   3  -7   19.63    0.75 
  -5   3  -7   15.16    0.78 
  -5   3  -7   15.01    0.62 
  -6   3  -7   10.61    0.65 
  -6   3  -7   10.61    0.50 
  -7   3  -7    4.53    0.31 
  -7   3  -7    4.36    0.45 
  -8   3  -7    0.29    0.14 
  -8   3  -7    0.18    0.16 
  -9   3  -7    5.07    0.38 
  -9   3  -7    4.53    0.48 
 -10   3  -7    5.94    0.56 
 -10   3  -7    5.34    0.44 
 -11   3  -7    3.72    0.46 
 -12   3  -7    0.20    0.20 
 -13   3  -7    0.35    0.23 
  15   2  -7    0.18    0.31 
 -15  -2   7    1.22    0.33 
  14   2  -7    1.77    0.47 
 -14  -2   7    1.15    0.32 
  13   2  -7    2.15    0.50 
 -13  -2   7    2.13    0.37 
  12   2  -7    4.91    0.68 
 -12  -2   7    6.03    0.54 
  11   2  -7    2.43    0.49 
 -11  -2   7    2.11    0.34 
  10   2  -7    3.69    0.56 
 -10  -2   7    3.05    0.37 
   9   2  -7    1.55    0.36 
  -9  -2   7    1.81    0.27 
   8   2  -7   15.10    0.93 
  -8  -2   7   14.81    0.72 
   7   2  -7   10.23    0.70 
  -7  -2   7    9.47    0.52 
   6   2  -7   12.24    0.82 
   6   2  -7   14.12    0.52 
  -6  -2   7   13.77    0.63 
   5   2  -7    3.25    0.19 
   5   2  -7    3.37    0.43 
  -5  -2   7    2.35    0.23 
   4   2  -7    3.60    0.21 
   4   2  -7    4.17    0.47 
  -4  -2   7    3.49    0.25 
   3   2  -7   15.23    0.59 
   3   2  -7   16.46    0.91 
  -3  -2   7   15.03    0.61 
   2   2  -7   21.74    0.80 
  -2  -2   7   21.59    0.79 
   1   2  -7   27.16    0.97 
  -1  -2   7   25.64    0.89 
   0   2  -7   27.96    0.94 
   0   2  -7   30.01    1.06 
  -1   2  -7   11.11    0.53 
  -1   2  -7   10.95    0.39 
  -2   2  -7    2.54    0.25 
  -2   2  -7    2.83    0.15 
  -3   2  -7   23.02    0.93 
  -3   2  -7   22.98    0.78 
  -4   2  -7    2.52    0.28 
  -4   2  -7    2.47    0.17 
  -5   2  -7    6.79    0.44 
  -5   2  -7    6.56    0.33 
  -6   2  -7    8.45    0.42 
  -6   2  -7    8.29    0.51 
  -7   2  -7    6.56    0.38 
  -7   2  -7    6.80    0.46 
  -8   2  -7   17.33    0.76 
  -8   2  -7   16.88    0.83 
  -9   2  -7    1.50    0.27 
  -9   2  -7    1.50    0.24 
 -10   2  -7    0.25    0.17 
 -10   2  -7    0.53    0.18 
 -11   2  -7    2.72    0.35 
 -11   2  -7    2.59    0.34 
 -12   2  -7    0.32    0.20 
 -12   2  -7    0.13    0.17 
 -13   2  -7    1.50    0.30 
 -13   2  -7    1.45    0.31 
 -14   2  -7    1.65    0.38 
 -16  -1   7    1.52    0.34 
  15   1  -7    1.92    0.50 
 -15  -1   7    1.93    0.36 
  14   1  -7    0.58    0.30 
 -14  -1   7    0.84    0.24 
  13   1  -7    2.01    0.47 
 -13  -1   7    1.56    0.31 
  12   1  -7    4.40    0.64 
 -12  -1   7    3.79    0.39 
  11   1  -7    0.63    0.27 
 -11  -1   7    0.30    0.17 
  10   1  -7   14.19    0.92 
 -10  -1   7   12.54    0.65 
   9   1  -7    1.55    0.35 
  -9  -1   7    1.50    0.23 
   8   1  -7    3.85    0.47 
  -8  -1   7    3.17    0.28 
   7   1  -7   25.91    0.92 
   7   1  -7   22.96    1.22 
  -7  -1   7   27.90    1.00 
   6   1  -7    0.22    0.07 
   6   1  -7    0.09    0.13 
  -6  -1   7    0.24    0.09 
   5   1  -7   17.78    0.93 
   5   1  -7   17.69    0.66 
   4   1  -7   26.88    1.25 
   4   1  -7   27.79    0.95 
  -4  -1   7   27.81    0.95 
   3   1  -7   11.22    0.68 
   3   1  -7   11.43    0.47 
  -3  -1   7   12.36    0.44 
   2   1  -7    9.68    0.61 
   2   1  -7   10.50    0.43 
  -2  -1   7   10.31    0.37 
   1   1  -7   51.56    1.68 
   0   1  -7   11.83    0.49 
  -1   1  -7   28.47    1.01 
  -2   1  -7   30.19    0.97 
  -2   1  -7   30.02    1.07 
  -3   1  -7   80.28    2.51 
  -3   1  -7   79.80    2.59 
  -4   1  -7    0.62    0.13 
  -4   1  -7    0.80    0.10 
  -5   1  -7    8.36    0.45 
  -5   1  -7    9.07    0.40 
  -6   1  -7    1.24    0.17 
  -6   1  -7    1.01    0.18 
  -7   1  -7   10.66    0.56 
  -7   1  -7   12.08    0.55 
  -8   1  -7    4.35    0.32 
  -8   1  -7    4.11    0.35 
  -9   1  -7   44.82    1.61 
  -9   1  -7   43.34    1.61 
 -10   1  -7    1.27    0.25 
 -10   1  -7    1.23    0.23 
 -11   1  -7    3.91    0.40 
 -11   1  -7    3.76    0.36 
 -12   1  -7    1.38    0.29 
 -12   1  -7    1.27    0.24 
 -13   1  -7    0.28    0.22 
 -14   1  -7    0.23    0.23 
 -15   1  -7    1.03    0.35 
 -16   0   7    2.65    0.41 
 -15   0   7    2.17    0.36 
 -14   0   7    0.26    0.20 
  13   0  -7    0.14    0.23 
 -13   0   7   -0.11    0.13 
  12   0  -7    5.06    0.66 
 -12   0   7    4.58    0.43 
  11   0  -7   -0.13    0.16 
 -11   0   7    0.11    0.14 
  10   0  -7    5.64    0.62 
 -10   0   7    5.49    0.39 
   9   0  -7   41.88    1.86 
  -9   0   7   40.21    1.49 
   8   0  -7    3.85    0.46 
   8   0  -7    3.99    0.28 
  -8   0   7    4.21    0.29 
   7   0  -7    1.31    0.18 
   7   0  -7    1.58    0.31 
  -7   0   7    1.79    0.19 
   6   0  -7    3.42    0.24 
   6   0  -7    3.98    0.40 
  -6   0   7    3.06    0.21 
   5   0  -7    0.93    0.21 
   5   0  -7    1.19    0.16 
  -5   0   7    1.07    0.12 
   4   0  -7    0.73    0.17 
   4   0  -7    0.83    0.13 
  -4   0   7    0.37    0.07 
   3   0  -7   33.42    1.15 
   3   0  -7   31.91    1.34 
  -3   0   7   33.08    1.10 
   2   0  -7    0.21    0.11 
   2   0  -7    0.19    0.07 
  -2   0   7    0.25    0.06 
   1   0  -7   43.23    1.47 
   1   0  -7   44.95    1.71 
  -1   0   7   44.96    1.44 
   0   0  -7  124.53    3.88 
   0   0   7  124.91    3.88 
  -1   0  -7   61.33    2.00 
  -1   0  -7   64.28    2.03 
  -2   0  -7  110.66    3.46 
  -2   0  -7  109.50    3.45 
  -3   0  -7    6.10    0.34 
  -3   0  -7    6.44    0.32 
  -4   0  -7   13.14    0.56 
  -4   0  -7   13.51    0.57 
  -5   0  -7    8.03    0.41 
  -5   0  -7    7.95    0.41 
  -6   0  -7   43.26    1.50 
  -6   0  -7   42.87    1.53 
  -7   0  -7   39.32    1.40 
  -7   0  -7   39.21    1.44 
  -8   0  -7   27.35    1.14 
  -8   0  -7   29.55    1.09 
  -9   0  -7    1.20    0.20 
  -9   0  -7    0.85    0.22 
 -10   0  -7    6.57    0.48 
 -10   0  -7    6.40    0.41 
 -11   0  -7    2.13    0.33 
 -11   0  -7    2.32    0.27 
 -12   0  -7    0.08    0.19 
 -13   0  -7    0.50    0.27 
 -14   0  -7    0.04    0.21 
 -15   0  -7    1.68    0.40 
 -16   1   7    1.66    0.35 
 -15   1   7    2.05    0.37 
 -14   1   7    0.86    0.26 
 -13   1   7    1.74    0.30 
 -12   1   7    4.74    0.43 
 -11   1   7    0.71    0.19 
 -10   1   7   12.81    0.63 
   9  -1  -7    1.37    0.32 
  -9   1   7    0.91    0.18 
   8  -1  -7    3.61    0.44 
  -8   1   7    3.68    0.28 
   7  -1  -7   25.95    1.07 
   7  -1  -7   26.28    1.23 
  -7   1   7   26.75    1.02 
   6  -1  -7    0.25    0.11 
   6  -1  -7    0.06    0.11 
  -6   1   7    0.09    0.07 
   5  -1  -7   15.91    0.73 
   5  -1  -7   16.68    0.81 
  -5   1   7   17.19    0.70 
   4  -1  -7   27.58    1.07 
  -4   1   7   28.25    1.05 
   3  -1  -7   10.99    0.53 
  -3   1   7   11.31    0.53 
   2  -1  -7    9.91    0.47 
   2  -1  -7   10.14    0.48 
  -2   1   7    9.26    0.47 
   1  -1  -7   46.68    1.64 
   1  -1  -7   48.74    1.74 
  -1   1   7   49.20    1.68 
   0  -1  -7   11.28    0.52 
   0  -1  -7   11.33    0.51 
   0  -1  -7   11.35    0.52 
  -1  -1  -7   25.96    0.97 
  -1  -1  -7   24.73    0.94 
  -2  -1  -7   29.05    1.05 
  -2  -1  -7   29.07    1.09 
  -3  -1  -7   77.75    2.50 
  -3  -1  -7   76.92    2.58 
  -4  -1  -7    0.55    0.12 
  -4  -1  -7    0.67    0.15 
  -5  -1  -7    7.81    0.41 
  -5  -1  -7    8.47    0.47 
  -6  -1  -7    1.47    0.23 
  -6  -1  -7    1.13    0.17 
  -7  -1  -7   10.40    0.51 
  -7  -1  -7   10.37    0.60 
  -8  -1  -7    3.13    0.28 
  -8  -1  -7    3.47    0.38 
  -9  -1  -7   40.56    1.48 
  -9  -1  -7   42.06    1.66 
 -10  -1  -7    1.77    0.33 
 -10  -1  -7    0.76    0.17 
 -11  -1  -7    4.46    0.51 
 -12  -1  -7    1.66    0.38 
 -13  -1  -7    0.30    0.26 
 -14  -1  -7   -0.13    0.23 
 -15  -1  -7    0.79    0.35 
 -15   2   7    0.49    0.24 
 -14   2   7    1.25    0.28 
 -13   2   7    1.80    0.31 
 -12   2   7    4.88    0.45 
 -11   2   7    2.44    0.32 
 -10   2   7    2.93    0.33 
  -9   2   7    1.78    0.28 
  -8   2   7   16.10    0.78 
  -7   2   7   10.22    0.58 
   6  -2  -7   13.52    0.71 
  -6   2   7   12.05    0.65 
   5  -2  -7    2.70    0.32 
  -5   2   7    2.64    0.30 
   4  -2  -7    3.66    0.36 
  -4   2   7    3.87    0.35 
   3  -2  -7   14.28    0.72 
  -3   2   7   15.29    0.73 
   2  -2  -7   18.51    0.85 
  -2   2   7   20.29    0.89 
   1  -2  -7   23.22    0.97 
  -1   2   7   23.39    1.01 
   0  -2  -7   27.52    1.10 
   0  -2  -7   28.47    1.13 
  -1  -2  -7    9.17    0.51 
  -1  -2  -7    9.61    0.53 
  -2  -2  -7    2.96    0.31 
  -2  -2  -7    2.39    0.25 
  -3  -2  -7   20.47    0.91 
  -3  -2  -7   20.32    0.85 
  -4  -2  -7    2.08    0.24 
  -4  -2  -7    2.38    0.30 
  -5  -2  -7    5.00    0.34 
  -5  -2  -7    5.35    0.42 
  -6  -2  -7    7.55    0.51 
  -6  -2  -7    7.18    0.43 
  -7  -2  -7    5.60    0.37 
  -7  -2  -7    5.34    0.44 
  -8  -2  -7   14.83    0.81 
  -8  -2  -7   14.34    0.68 
  -9  -2  -7    1.18    0.27 
 -10  -2  -7    0.31    0.21 
 -11  -2  -7    2.51    0.43 
 -12  -2  -7    0.03    0.22 
 -13  -2  -7    0.89    0.31 
 -14  -2  -7    1.75    0.42 
 -14   3   7    1.90    0.34 
 -13   3   7    1.97    0.35 
 -12   3   7    0.84    0.25 
 -11   3   7    2.87    0.39 
 -10   3   7    0.85    0.25 
  -9   3   7    1.03    0.26 
  -8   3   7    6.68    0.53 
  -7   3   7    7.65    0.56 
  -6   3   7    4.97    0.48 
  -5   3   7    8.82    0.60 
   4  -3  -7    4.23    0.44 
  -4   3   7    3.18    0.39 
   3  -3  -7    6.14    0.47 
  -3   3   7    5.65    0.50 
   2  -3  -7    7.09    0.51 
  -2   3   7    6.31    0.50 
   1  -3  -7    0.96    0.23 
  -1   3   7    1.18    0.25 
   0  -3  -7    1.42    0.27 
   0  -3  -7    1.08    0.22 
  -1  -3  -7   10.34    0.64 
  -1  -3  -7   11.86    0.66 
  -2  -3  -7    1.96    0.31 
  -2  -3  -7    1.89    0.29 
  -3  -3  -7    1.76    0.28 
  -3  -3  -7    1.84    0.30 
  -4  -3  -7   17.70    0.91 
  -4  -3  -7   17.59    0.84 
  -5  -3  -7   12.16    0.75 
  -5  -3  -7   13.75    0.70 
  -6  -3  -7    9.71    0.65 
  -6  -3  -7    9.06    0.55 
  -7  -3  -7    3.07    0.43 
  -7  -3  -7    3.39    0.34 
  -8  -3  -7    0.26    0.18 
  -9  -3  -7    4.79    0.56 
 -10  -3  -7    4.61    0.58 
 -11  -3  -7    3.33    0.54 
 -12  -3  -7    0.14    0.22 
 -13  -3  -7    0.47    0.28 
 -13   4   7    0.66    0.27 
 -12   4   7    0.02    0.19 
 -11   4   7    0.75    0.25 
 -10   4   7    2.14    0.39 
  -9   4   7    0.18    0.21 
  -8   4   7    4.11    0.52 
  -7   4   7    0.51    0.25 
  -6   4   7    1.93    0.36 
  -5   4   7    0.89    0.29 
  -4   4   7    1.33    0.31 
  -3   4   7    1.06    0.30 
   2  -4  -7    1.63    0.32 
  -2   4   7    1.57    0.35 
   1  -4  -7    1.02    0.28 
  -1   4   7    0.55    0.25 
   0  -4  -7   17.12    0.94 
   0  -4  -7   17.16    0.95 
  -1  -4  -7    1.59    0.34 
  -1  -4  -7    1.27    0.30 
  -2  -4  -7    6.95    0.57 
  -2  -4  -7    7.49    0.57 
  -3  -4  -7    1.17    0.29 
  -3  -4  -7    1.75    0.32 
  -4  -4  -7    2.62    0.43 
  -4  -4  -7    2.63    0.37 
  -5  -4  -7   15.64    0.84 
  -5  -4  -7   14.32    0.89 
  -6  -4  -7   10.38    0.74 
  -7  -4  -7    3.80    0.53 
  -8  -4  -7    3.68    0.54 
  -9  -4  -7    1.15    0.36 
 -10  -4  -7    1.20    0.37 
 -11  -4  -7    1.04    0.34 
 -12  -4  -7    1.64    0.46 
 -11   5   7    0.15    0.24 
 -10   5   7    0.29    0.23 
  -9   5   7    0.00    0.19 
  -8   5   7    0.24    0.24 
  -7   5   7    2.86    0.49 
  -6   5   7    1.17    0.34 
  -5   5   7    0.31    0.26 
  -4   5   7    0.93    0.29 
  -3   5   7    0.53    0.28 
  -2   5   7    2.21    0.43 
  -1   5   7    0.59    0.28 
   0   5   7    1.36    0.36 
  -1  -5  -7   -0.07    0.15 
  -2  -5  -7    1.38    0.37 
  -3  -5  -7    6.46    0.67 
  -4  -5  -7    2.67    0.49 
  -5  -5  -7    1.55    0.36 
  -5  -5  -7    1.46    0.39 
  -6  -5  -7    1.04    0.34 
  -7  -5  -7    0.47    0.26 
  -8  -5  -7    1.80    0.45 
  -9  -5  -7    3.75    0.61 
 -10  -5  -7    0.58    0.35 
  -8   6   7    0.88    0.32 
  -7   6   7    0.32    0.28 
  -6   6   7    0.21    0.25 
  -5   6   7    0.53    0.29 
  -4   6   7    0.32    0.26 
  -3   6   7    1.03    0.34 
  -2   6   7    0.71    0.30 
  -1   6   7    0.06    0.23 
   0   6   7    0.91    0.37 
   1   6   7    0.37    0.29 
  -2  -6  -7    0.60    0.27 
  -3  -6  -7    0.36    0.29 
  -4  -6  -7   -0.14    0.22 
  -5  -6  -7   -0.36    0.20 
  -6  -6  -7    0.69    0.34 
  -7  -6  -7    0.39    0.34 
   7   6  -8    0.49    0.29 
   6   6  -8    0.54    0.30 
   5   6  -8    0.82    0.33 
   4   6  -8    0.26    0.27 
   3   6  -8    0.82    0.33 
   2   6  -8    0.75    0.30 
   1   6  -8    0.08    0.17 
   0   6  -8    1.49    0.32 
  -1   6  -8    1.92    0.36 
  -2   6  -8    1.10    0.30 
  -3   6  -8    0.23    0.18 
  -4   6  -8    0.58    0.24 
  -5   6  -8    0.11    0.19 
  -6   6  -8   -0.06    0.16 
  10   5  -8    1.42    0.41 
   9   5  -8    0.55    0.30 
   8   5  -8    0.47    0.28 
   7   5  -8    0.17    0.24 
   6   5  -8    0.10    0.25 
   5   5  -8    0.01    0.20 
   4   5  -8    0.36    0.23 
   3   5  -8    0.73    0.30 
   2   5  -8    1.22    0.25 
   1   5  -8    5.82    0.46 
   0   5  -8    0.67    0.21 
  -1   5  -8    1.47    0.29 
  -2   5  -8    0.87    0.23 
  -3   5  -8    0.50    0.20 
  -4   5  -8    2.91    0.43 
  -5   5  -8    1.01    0.28 
  -6   5  -8    0.74    0.24 
  -7   5  -8    0.02    0.15 
  -8   5  -8    0.40    0.20 
  -9   5  -8    1.21    0.32 
  12   4  -8    0.75    0.34 
  11   4  -8    0.23    0.25 
  10   4  -8    0.60    0.29 
   9   4  -8   -0.03    0.17 
   8   4  -8    1.20    0.36 
   7   4  -8    6.15    0.72 
   6   4  -8    2.73    0.48 
   5   4  -8    0.43    0.23 
   4   4  -8    3.15    0.52 
   4   4  -8    2.87    0.27 
   3   4  -8    4.62    0.34 
   3   4  -8    4.90    0.63 
   2   4  -8    2.08    0.26 
   1   4  -8    2.81    0.31 
   0   4  -8    8.12    0.52 
  -1   4  -8   15.00    0.78 
  -2   4  -8    0.50    0.17 
  -3   4  -8    3.85    0.42 
  -4   4  -8    2.86    0.38 
  -5   4  -8    4.45    0.48 
  -6   4  -8    0.39    0.18 
  -7   4  -8    2.04    0.36 
  -8   4  -8    0.74    0.26 
  -9   4  -8    0.97    0.27 
 -10   4  -8    0.61    0.27 
 -11   4  -8    1.83    0.38 
  14   3  -8    0.21    0.34 
 -14  -3   8    0.24    0.31 
  13   3  -8   -0.22    0.23 
 -13  -3   8    0.01    0.27 
  12   3  -8    1.60    0.44 
 -12  -3   8    1.40    0.39 
  11   3  -8    1.45    0.40 
 -11  -3   8    1.21    0.34 
  10   3  -8    5.28    0.68 
 -10  -3   8    5.08    0.52 
   9   3  -8    1.69    0.39 
  -9  -3   8    2.41    0.36 
   8   3  -8    6.98    0.72 
  -8  -3   8    6.95    0.52 
   7   3  -8    3.84    0.55 
  -7  -3   8    3.48    0.36 
   6   3  -8    3.24    0.49 
   5   3  -8    4.50    0.26 
   5   3  -8    4.79    0.58 
  -5  -3   8    4.38    0.35 
   4   3  -8    3.42    0.50 
   4   3  -8    3.61    0.24 
  -4  -3   8    3.57    0.31 
   3   3  -8    5.63    0.33 
   3   3  -8    6.20    0.63 
  -3  -3   8    6.08    0.38 
   2   3  -8   10.05    0.49 
  -2  -3   8    9.49    0.48 
   1   3  -8   17.57    0.76 
   0   3  -8    8.64    0.48 
  -1   3  -8   20.91    0.91 
  -2   3  -8    9.98    0.57 
  -3   3  -8    8.96    0.55 
  -4   3  -8    2.60    0.33 
  -5   3  -8    3.04    0.38 
  -6   3  -8    7.06    0.53 
  -7   3  -8    0.01    0.13 
  -8   3  -8    1.34    0.28 
  -9   3  -8    7.02    0.56 
 -10   3  -8    1.58    0.32 
 -11   3  -8    0.55    0.21 
 -12   3  -8    3.91    0.48 
 -13   3  -8    1.11    0.29 
  15   2  -8    1.21    0.41 
 -15  -2   8    0.94    0.29 
  14   2  -8    0.50    0.31 
 -14  -2   8    0.40    0.26 
  13   2  -8    4.44    0.71 
 -13  -2   8    3.83    0.48 
  12   2  -8    1.14    0.38 
 -12  -2   8    1.60    0.32 
  11   2  -8    3.24    0.54 
 -11  -2   8    3.66    0.42 
  10   2  -8    0.63    0.27 
 -10  -2   8    1.13    0.25 
   9   2  -8    4.90    0.60 
  -9  -2   8    4.21    0.39 
   8   2  -8    2.78    0.45 
  -8  -2   8    2.47    0.28 
   7   2  -8    3.18    0.47 
  -7  -2   8    3.70    0.32 
   6   2  -8   14.55    0.56 
   6   2  -8   13.40    0.88 
   5   2  -8   16.68    1.01 
   5   2  -8   18.34    0.69 
  -5  -2   8   20.31    0.77 
   4   2  -8   19.19    0.73 
   4   2  -8   19.05    1.07 
  -4  -2   8   20.09    0.77 
   3   2  -8    2.66    0.42 
   3   2  -8    3.13    0.21 
  -3  -2   8    2.65    0.21 
   2   2  -8    0.71    0.12 
  -2  -2   8    0.72    0.10 
   1   2  -8    6.50    0.35 
   0   2  -8   58.26    1.95 
  -1   2  -8    4.68    0.31 
  -2   2  -8   18.02    0.77 
  -2   2  -8   18.00    0.60 
  -3   2  -8   11.50    0.43 
  -3   2  -8   11.10    0.57 
  -4   2  -8    3.19    0.32 
  -4   2  -8    3.57    0.21 
  -5   2  -8    1.00    0.20 
  -5   2  -8    1.52    0.17 
  -6   2  -8   19.87    0.78 
  -6   2  -8   19.46    0.89 
  -7   2  -8    1.14    0.23 
  -7   2  -8    1.53    0.21 
  -8   2  -8    3.41    0.38 
  -8   2  -8    3.91    0.31 
  -9   2  -8    4.89    0.37 
  -9   2  -8    5.51    0.43 
 -10   2  -8    2.81    0.36 
 -10   2  -8    2.34    0.31 
 -11   2  -8    2.96    0.36 
 -11   2  -8    3.23    0.39 
 -12   2  -8    1.69    0.30 
 -13   2  -8    0.50    0.23 
  15   1  -8    1.59    0.46 
 -15  -1   8    1.14    0.28 
  14   1  -8    0.06    0.22 
 -14  -1   8    0.19    0.21 
  13   1  -8    0.53    0.30 
 -13  -1   8    0.81    0.24 
  12   1  -8    3.61    0.61 
 -12  -1   8    3.29    0.37 
  11   1  -8    8.75    0.74 
 -11  -1   8    7.65    0.51 
  10   1  -8    1.90    0.39 
 -10  -1   8    2.35    0.29 
   9   1  -8   30.71    1.52 
  -9  -1   8   29.40    1.16 
   8   1  -8    0.27    0.17 
  -8  -1   8    0.75    0.16 
   7   1  -8    9.88    0.46 
   7   1  -8    9.26    0.67 
  -7  -1   8   10.48    0.49 
   6   1  -8   20.00    1.01 
   6   1  -8   21.23    0.74 
  -6  -1   8   15.42    0.70 
   5   1  -8    7.25    0.56 
   5   1  -8    7.92    0.38 
  -5  -1   8    8.28    0.38 
   4   1  -8    0.93    0.24 
   4   1  -8    1.00    0.13 
  -4  -1   8    1.08    0.12 
   3   1  -8   20.84    0.78 
   3   1  -8   20.10    1.04 
  -3  -1   8   21.62    0.72 
   2   1  -8    4.47    0.44 
   2   1  -8    4.16    0.25 
  -2  -1   8    4.56    0.19 
   1   1  -8  162.87    5.03 
   0   1  -8   12.50    0.53 
  -1   1  -8    3.73    0.25 
  -2   1  -8    5.18    0.30 
  -2   1  -8    4.60    0.21 
  -3   1  -8    9.02    0.36 
  -3   1  -8    8.54    0.44 
  -4   1  -8    7.19    0.41 
  -4   1  -8    8.14    0.35 
  -5   1  -8    5.32    0.29 
  -5   1  -8    5.01    0.34 
  -6   1  -8   13.64    0.64 
  -6   1  -8   14.00    0.60 
  -7   1  -8    5.80    0.38 
  -7   1  -8    5.73    0.36 
  -8   1  -8    4.20    0.33 
  -8   1  -8    4.27    0.33 
  -9   1  -8    0.06    0.12 
  -9   1  -8    0.21    0.13 
 -10   1  -8    2.93    0.32 
 -10   1  -8    2.27    0.31 
 -11   1  -8    2.51    0.35 
 -11   1  -8    2.81    0.32 
 -12   1  -8    0.25    0.16 
 -12   1  -8    0.60    0.25 
 -13   1  -8    2.28    0.41 
 -14   1  -8    1.07    0.34 
 -15   0   8    1.48    0.31 
 -14   0   8    1.40    0.31 
  13   0  -8    1.25    0.37 
 -13   0   8    0.97    0.24 
  12   0  -8    2.45    0.49 
 -12   0   8    2.39    0.34 
  11   0  -8    0.13    0.20 
 -11   0   8    0.17    0.14 
  10   0  -8    0.44    0.25 
 -10   0   8    0.85    0.19 
   9   0  -8    6.13    0.55 
  -9   0   8    6.34    0.40 
   8   0  -8   24.65    1.00 
   8   0  -8   24.74    1.25 
  -8   0   8   26.63    0.99 
   7   0  -8    0.16    0.09 
   7   0  -8    0.08    0.14 
  -7   0   8    0.11    0.08 
   6   0  -8    6.31    0.49 
   6   0  -8    6.72    0.38 
  -6   0   8    7.25    0.35 
   5   0  -8    4.90    0.30 
   5   0  -8    4.26    0.37 
  -5   0   8    4.60    0.25 
   4   0  -8    0.04    0.10 
   4   0  -8    0.02    0.05 
  -4   0   8    0.02    0.04 
   3   0  -8    7.74    0.50 
   3   0  -8    8.03    0.40 
  -3   0   8    8.00    0.34 
   2   0  -8   11.29    0.61 
   2   0  -8   10.97    0.49 
  -2   0   8   10.92    0.43 
   1   0  -8    1.84    0.18 
   1   0  -8    1.94    0.26 
  -1   0   8    1.84    0.14 
   0   0  -8   48.51    1.62 
   0   0   8   47.52    1.57 
  -1   0  -8   48.82    1.62 
  -1   0  -8   50.47    1.66 
  -2   0  -8   23.17    0.86 
  -2   0  -8   22.11    0.82 
  -3   0  -8   10.19    0.47 
  -3   0  -8    9.64    0.44 
  -4   0  -8    0.92    0.14 
  -4   0  -8    0.43    0.11 
  -5   0  -8    3.35    0.26 
  -5   0  -8    3.67    0.27 
  -6   0  -8    0.54    0.15 
  -6   0  -8    0.95    0.18 
  -7   0  -8   10.65    0.56 
  -7   0  -8   10.64    0.54 
  -8   0  -8   21.57    0.89 
  -8   0  -8   21.19    0.95 
  -9   0  -8    0.13    0.12 
  -9   0  -8    0.19    0.14 
 -10   0  -8    9.41    0.59 
 -10   0  -8    8.77    0.51 
 -11   0  -8    1.09    0.24 
 -11   0  -8    0.86    0.20 
 -12   0  -8    2.26    0.39 
 -13   0  -8   -0.04    0.21 
 -14   0  -8    0.11    0.24 
 -15   1   8    1.68    0.34 
 -14   1   8   -0.11    0.17 
 -13   1   8    0.84    0.25 
 -12   1   8    2.97    0.35 
 -11   1   8    8.09    0.50 
  10  -1  -8    2.46    0.47 
 -10   1   8    2.21    0.27 
   9  -1  -8   27.86    1.40 
  -9   1   8   28.55    1.11 
   8  -1  -8    0.90    0.25 
   8  -1  -8    1.16    0.21 
  -8   1   8    0.51    0.14 
   7  -1  -8   10.05    0.56 
   7  -1  -8    8.78    0.61 
  -7   1   8    8.99    0.47 
   6  -1  -8   20.53    1.01 
   6  -1  -8   21.15    0.91 
  -6   1   8   21.12    0.85 
   5  -1  -8    7.62    0.45 
   5  -1  -8    7.10    0.48 
  -5   1   8    7.36    0.40 
   4  -1  -8    0.86    0.18 
   4  -1  -8    0.86    0.16 
  -4   1   8    0.85    0.15 
   3  -1  -8   19.30    0.84 
  -3   1   8   21.74    0.84 
   2  -1  -8    3.79    0.28 
   2  -1  -8    3.54    0.27 
  -2   1   8    4.19    0.28 
   1  -1  -8  148.78    4.48 
   1  -1  -8  153.42    4.86 
  -1   1   8  123.60    4.49 
   0  -1  -8   11.87    0.54 
   0  -1  -8   11.91    0.55 
   0  -1  -8   11.87    0.55 
  -1  -1  -8    3.09    0.25 
  -1  -1  -8    3.64    0.25 
  -2  -1  -8    5.04    0.32 
  -2  -1  -8    5.48    0.34 
  -3  -1  -8    7.90    0.42 
  -3  -1  -8    8.24    0.45 
  -4  -1  -8    7.17    0.39 
  -4  -1  -8    6.58    0.41 
  -5  -1  -8    4.28    0.33 
  -5  -1  -8    3.91    0.29 
  -6  -1  -8   12.08    0.64 
  -6  -1  -8   12.27    0.58 
  -7  -1  -8    5.37    0.36 
  -7  -1  -8    5.00    0.40 
  -8  -1  -8    4.44    0.43 
  -8  -1  -8    3.75    0.30 
  -9  -1  -8   -0.09    0.10 
  -9  -1  -8    0.14    0.17 
 -10  -1  -8    2.96    0.41 
 -10  -1  -8    2.74    0.29 
 -11  -1  -8    2.76    0.44 
 -12  -1  -8    0.60    0.29 
 -13  -1  -8    1.44    0.36 
 -14  -1  -8    0.74    0.35 
 -15   2   8    0.36    0.21 
 -14   2   8    0.92    0.26 
 -13   2   8    3.34    0.41 
 -12   2   8    1.10    0.25 
 -11   2   8    3.27    0.37 
 -10   2   8    0.82    0.22 
  -9   2   8    4.29    0.40 
  -8   2   8    2.54    0.32 
   7  -2  -8    3.06    0.37 
  -7   2   8    3.07    0.34 
   6  -2  -8   13.85    0.75 
  -6   2   8   14.05    0.72 
   5  -2  -8   17.82    0.89 
  -5   2   8   19.33    0.87 
   4  -2  -8   18.88    0.86 
   4  -2  -8   18.80    0.88 
  -4   2   8   18.01    0.86 
   3  -2  -8    2.77    0.24 
   3  -2  -8    2.61    0.31 
  -3   2   8    2.73    0.31 
   2  -2  -8    0.65    0.12 
   2  -2  -8    0.45    0.14 
  -2   2   8    0.37    0.15 
   1  -2  -8    5.65    0.40 
   1  -2  -8    6.18    0.30 
  -1   2   8    6.98    0.46 
   0  -2  -8   52.97    1.88 
   0  -2  -8   52.37    1.90 
  -1  -2  -8    4.89    0.36 
  -1  -2  -8    4.95    0.36 
  -2  -2  -8   16.95    0.80 
  -2  -2  -8   17.42    0.77 
  -3  -2  -8    9.03    0.54 
  -3  -2  -8   10.03    0.52 
  -4  -2  -8    2.42    0.31 
  -4  -2  -8    2.55    0.27 
  -5  -2  -8    0.68    0.19 
  -5  -2  -8    1.03    0.20 
  -6  -2  -8   16.02    0.75 
  -6  -2  -8   16.73    0.85 
  -7  -2  -8    1.02    0.24 
  -7  -2  -8    0.89    0.19 
  -8  -2  -8    2.48    0.28 
  -8  -2  -8    2.48    0.37 
  -9  -2  -8    5.03    0.51 
  -9  -2  -8    4.53    0.36 
 -10  -2  -8    2.74    0.43 
 -11  -2  -8    3.04    0.49 
 -12  -2  -8    1.16    0.35 
 -13  -2  -8   -0.05    0.24 
 -14  -2  -8   -0.18    0.24 
 -14   3   8    0.24    0.21 
 -13   3   8    0.25    0.20 
 -12   3   8    1.18    0.27 
 -11   3   8    1.35    0.29 
 -10   3   8    4.38    0.48 
  -9   3   8    2.69    0.39 
  -8   3   8    7.33    0.56 
  -7   3   8    4.23    0.46 
  -6   3   8    3.46    0.42 
   5  -3  -8    3.88    0.45 
  -5   3   8    3.49    0.43 
   4  -3  -8    4.10    0.44 
  -4   3   8    3.23    0.41 
   3  -3  -8    5.17    0.49 
  -3   3   8    5.02    0.48 
   2  -3  -8    7.90    0.57 
  -2   3   8    9.84    0.63 
   1  -3  -8   16.75    0.87 
  -1   3   8   17.11    0.90 
   0  -3  -8    7.84    0.54 
   0  -3  -8    7.33    0.52 
  -1  -3  -8   16.72    0.85 
  -1  -3  -8   17.34    0.88 
  -2  -3  -8    8.58    0.57 
  -2  -3  -8    8.78    0.56 
  -3  -3  -8    7.32    0.54 
  -3  -3  -8    7.27    0.50 
  -4  -3  -8    2.41    0.31 
  -4  -3  -8    2.10    0.34 
  -5  -3  -8    2.90    0.33 
  -5  -3  -8    2.07    0.35 
  -6  -3  -8    6.65    0.46 
  -6  -3  -8    5.02    0.53 
  -7  -3  -8    0.56    0.18 
  -7  -3  -8    0.11    0.17 
  -8  -3  -8    1.19    0.30 
  -9  -3  -8    5.61    0.61 
 -10  -3  -8    1.74    0.40 
 -11  -3  -8    0.73    0.30 
 -12  -3  -8    2.78    0.51 
 -13  -3  -8    0.88    0.38 
 -12   4   8    0.38    0.22 
 -11   4   8    0.34    0.23 
 -10   4   8    0.14    0.21 
  -9   4   8   -0.14    0.16 
  -8   4   8    1.31    0.31 
  -7   4   8    6.10    0.60 
  -6   4   8    2.59    0.42 
  -5   4   8    0.66    0.24 
  -4   4   8    2.65    0.42 
   3  -4  -8    3.32    0.46 
  -3   4   8    3.82    0.50 
   2  -4  -8    1.24    0.31 
  -2   4   8    1.57    0.36 
   1  -4  -8    1.99    0.37 
  -1   4   8    2.28    0.41 
   0  -4  -8    6.23    0.59 
   0  -4  -8    7.73    0.60 
  -1  -4  -8   12.97    0.81 
  -1  -4  -8   12.96    0.80 
  -2  -4  -8    0.53    0.23 
  -2  -4  -8    0.76    0.25 
  -3  -4  -8    3.86    0.45 
  -3  -4  -8    3.71    0.48 
  -4  -4  -8    2.12    0.35 
  -4  -4  -8    2.70    0.43 
  -5  -4  -8    4.10    0.46 
  -5  -4  -8    3.97    0.52 
  -6  -4  -8    0.67    0.27 
  -6  -4  -8    0.41    0.19 
  -7  -4  -8    2.66    0.47 
  -8  -4  -8    0.58    0.28 
  -9  -4  -8    1.23    0.36 
 -10  -4  -8    1.04    0.34 
 -11  -4  -8    1.75    0.45 
 -10   5   8    1.17    0.33 
  -9   5   8    0.53    0.29 
  -8   5   8    0.14    0.21 
  -7   5   8    0.09    0.22 
  -6   5   8    0.36    0.23 
  -5   5   8    0.09    0.21 
  -4   5   8    0.32    0.22 
  -3   5   8    1.44    0.39 
  -2   5   8    0.67    0.31 
  -1   5   8    6.22    0.69 
   0   5   8    0.36    0.27 
  -1  -5  -8    1.33    0.34 
  -2  -5  -8    0.80    0.28 
  -2  -5  -8    0.52    0.27 
  -3  -5  -8    0.48    0.25 
  -3  -5  -8    0.67    0.25 
  -4  -5  -8    2.87    0.49 
  -4  -5  -8    3.09    0.47 
  -5  -5  -8    1.21    0.31 
  -5  -5  -8    0.46    0.25 
  -6  -5  -8    0.55    0.25 
  -7  -5  -8    0.68    0.31 
  -8  -5  -8    0.50    0.28 
  -9  -5  -8    1.22    0.38 
  -7   6   8    0.34    0.29 
  -6   6   8    0.38    0.29 
  -5   6   8    0.31    0.30 
  -4   6   8    0.67    0.31 
  -3   6   8    0.63    0.32 
  -2   6   8    0.21    0.25 
  -1   6   8   -0.28    0.22 
   0   6   8    0.94    0.35 
   1   6   8    1.55    0.42 
  -2  -6  -8    1.03    0.40 
  -3  -6  -8   -0.07    0.26 
  -4  -6  -8    0.06    0.27 
  -5  -6  -8   -0.07    0.27 
  -6  -6  -8   -0.38    0.26 
   6   6  -9    0.40    0.31 
   5   6  -9    0.45    0.30 
   4   6  -9    0.98    0.37 
   3   6  -9    1.16    0.41 
   2   6  -9    1.33    0.44 
   1   6  -9    0.17    0.19 
   0   6  -9    0.48    0.20 
  -1   6  -9    0.21    0.18 
  -2   6  -9    0.28    0.20 
  -3   6  -9    0.38    0.21 
  -4   6  -9    0.80    0.27 
  -5   6  -9    1.68    0.38 
  10   5  -9    0.29    0.29 
   9   5  -9    1.22    0.39 
   8   5  -9    0.51    0.29 
   7   5  -9    1.67    0.43 
   6   5  -9    1.38    0.44 
   5   5  -9    0.43    0.26 
   4   5  -9    0.57    0.31 
   3   5  -9    0.82    0.33 
   2   5  -9    1.25    0.24 
   1   5  -9    0.67    0.21 
   0   5  -9    4.04    0.43 
  -1   5  -9    1.06    0.24 
  -2   5  -9    0.89    0.25 
  -3   5  -9    2.21    0.36 
  -4   5  -9    0.72    0.24 
  -5   5  -9    0.20    0.17 
  -6   5  -9    0.77    0.25 
  -7   5  -9    1.25    0.31 
  -8   5  -9    0.13    0.17 
  -9   5  -9    0.95    0.29 
  12   4  -9    0.64    0.38 
  11   4  -9    0.34    0.27 
  10   4  -9    1.16    0.38 
   9   4  -9    1.34    0.36 
   8   4  -9    3.22    0.59 
   7   4  -9    0.22    0.24 
   6   4  -9    1.67    0.41 
   5   4  -9    1.75    0.40 
   4   4  -9    2.98    0.53 
   3   4  -9    0.84    0.30 
   3   4  -9    1.60    0.22 
   2   4  -9    1.24    0.22 
   1   4  -9    4.10    0.37 
   0   4  -9   22.02    0.99 
  -1   4  -9    4.39    0.43 
  -2   4  -9    0.33    0.16 
  -3   4  -9   10.38    0.65 
  -4   4  -9    7.37    0.55 
  -5   4  -9    2.07    0.34 
  -6   4  -9    1.92    0.35 
  -7   4  -9    1.51    0.32 
  -8   4  -9    1.10    0.29 
  -9   4  -9    1.27    0.33 
 -10   4  -9    2.30    0.39 
 -11   4  -9    0.51    0.24 
  13   3  -9    0.61    0.36 
  12   3  -9    0.95    0.36 
  11   3  -9    0.53    0.29 
 -11  -3   9    0.28    0.29 
  10   3  -9    0.25    0.21 
 -10  -3   9    0.14    0.23 
   9   3  -9    3.12    0.55 
  -9  -3   9    2.47    0.38 
   8   3  -9    0.21    0.21 
  -8  -3   9    0.49    0.22 
   7   3  -9    4.21    0.60 
   6   3  -9    5.53    0.66 
   5   3  -9   11.85    0.87 
   5   3  -9   12.35    0.53 
   4   3  -9    5.26    0.63 
   4   3  -9    5.55    0.32 
   3   3  -9    5.32    0.32 
   3   3  -9    6.00    0.65 
   2   3  -9    0.40    0.11 
   1   3  -9    3.50    0.28 
   0   3  -9    0.16    0.11 
  -1   3  -9   43.51    1.61 
  -2   3  -9   43.14    1.62 
  -3   3  -9   13.17    0.69 
  -4   3  -9    2.48    0.33 
  -5   3  -9    2.05    0.31 
  -6   3  -9   12.35    0.71 
  -7   3  -9   10.00    0.65 
  -8   3  -9    0.27    0.18 
  -9   3  -9    0.25    0.18 
 -10   3  -9    1.98    0.36 
 -11   3  -9    1.25    0.30 
 -12   3  -9    0.55    0.23 
  14   2  -9    0.37    0.34 
 -14  -2   9    0.26    0.27 
  13   2  -9    0.04    0.24 
 -13  -2   9    0.31    0.24 
  12   2  -9    0.95    0.36 
 -12  -2   9    2.24    0.37 
  11   2  -9    4.72    0.68 
 -11  -2   9    4.45    0.45 
  10   2  -9   15.29    1.02 
 -10  -2   9   14.62    0.77 
   9   2  -9    3.84    0.57 
  -9  -2   9    3.20    0.34 
   8   2  -9    0.78    0.29 
  -8  -2   9    0.44    0.17 
   7   2  -9    2.22    0.41 
   6   2  -9    4.63    0.27 
   6   2  -9    4.49    0.55 
  -6  -2   9    4.51    0.32 
   5   2  -9    0.65    0.12 
   5   2  -9    0.63    0.23 
  -5  -2   9    0.29    0.12 
   4   2  -9    1.37    0.32 
   4   2  -9    1.58    0.17 
  -4  -2   9    1.51    0.17 
   3   2  -9   27.61    0.98 
   3   2  -9   22.42    1.29 
  -3  -2   9   28.31    0.95 
   2   2  -9   53.37    1.78 
   1   2  -9   15.43    0.64 
   0   2  -9   16.52    0.69 
  -1   2  -9    3.37    0.27 
  -2   2  -9   13.98    0.65 
  -3   2  -9   53.46    1.88 
  -4   2  -9   28.06    1.13 
  -5   2  -9   16.44    0.78 
  -6   2  -9   11.40    0.63 
  -7   2  -9   14.01    0.73 
  -8   2  -9   10.71    0.63 
  -9   2  -9    0.58    0.20 
 -10   2  -9    0.33    0.18 
 -11   2  -9    1.71    0.29 
 -12   2  -9    0.43    0.20 
 -13   2  -9    0.72    0.24 
  15   1  -9    0.14    0.26 
 -15  -1   9    0.06    0.19 
  14   1  -9    0.73    0.32 
 -14  -1   9    0.00    0.19 
  13   1  -9    3.18    0.61 
 -13  -1   9    4.11    0.44 
  12   1  -9    2.12    0.46 
 -12  -1   9    1.62    0.30 
  11   1  -9    1.20    0.36 
 -11  -1   9    1.08    0.24 
  10   1  -9    0.37    0.25 
 -10  -1   9    1.10    0.22 
   9   1  -9    4.37    0.56 
  -9  -1   9    5.29    0.37 
   8   1  -9   13.68    0.88 
  -8  -1   9   13.55    0.63 
   7   1  -9   10.22    0.49 
   7   1  -9   10.32    0.72 
  -7  -1   9   10.01    0.49 
   6   1  -9    7.14    0.57 
   6   1  -9    7.63    0.39 
  -6  -1   9    8.03    0.39 
   5   1  -9    0.30    0.16 
   5   1  -9    0.48    0.11 
  -5  -1   9    0.57    0.11 
   4   1  -9   28.60    1.08 
   4   1  -9   30.70    1.43 
  -4  -1   9   32.56    1.05 
   3   1  -9   12.80    0.80 
   3   1  -9   13.90    0.58 
  -3  -1   9   13.62    0.49 
   2   1  -9   41.20    1.80 
   2   1  -9   42.06    1.45 
  -2  -1   9   44.10    1.35 
   1   1  -9    4.51    0.28 
   0   1  -9   89.38    2.87 
  -1   1  -9   10.82    0.50 
  -2   1  -9   26.63    1.00 
  -3   1  -9   20.83    0.83 
  -3   1  -9   19.91    0.71 
  -4   1  -9    2.01    0.17 
  -4   1  -9    1.31    0.20 
  -5   1  -9    4.42    0.27 
  -5   1  -9    4.25    0.31 
  -6   1  -9   18.72    0.80 
  -6   1  -9   17.77    0.74 
  -7   1  -9    2.25    0.27 
  -7   1  -9    1.60    0.22 
  -8   1  -9    6.45    0.41 
  -8   1  -9    5.87    0.41 
  -9   1  -9    5.27    0.39 
  -9   1  -9    5.14    0.39 
 -10   1  -9    4.56    0.42 
 -10   1  -9    4.75    0.38 
 -11   1  -9    0.63    0.19 
 -11   1  -9    0.83    0.21 
 -12   1  -9    0.74    0.27 
 -12   1  -9    1.08    0.25 
 -15   0   9    0.28    0.20 
  14   0  -9    0.40    0.26 
 -14   0   9   -0.08    0.17 
  13   0  -9    1.44    0.39 
 -13   0   9    1.86    0.33 
  12   0  -9    5.10    0.68 
 -12   0   9    3.59    0.40 
  11   0  -9    0.65    0.29 
 -11   0   9    0.68    0.20 
  10   0  -9    2.27    0.44 
 -10   0   9    2.58    0.30 
   9   0  -9   16.21    0.99 
  -9   0   9   16.32    0.73 
   8   0  -9   12.33    0.61 
   8   0  -9   11.94    0.79 
  -8   0   9   12.40    0.57 
   7   0  -9    0.70    0.15 
   7   0  -9    0.19    0.17 
  -7   0   9    0.58    0.12 
   6   0  -9    5.24    0.49 
   6   0  -9    4.95    0.33 
  -6   0   9    4.22    0.26 
   5   0  -9    0.04    0.11 
   5   0  -9    0.04    0.08 
  -5   0   9    0.00    0.05 
   4   0  -9    3.09    0.24 
   4   0  -9    3.37    0.37 
  -4   0   9    2.79    0.18 
   3   0  -9    5.97    0.45 
   3   0  -9    6.66    0.36 
  -3   0   9    6.20    0.29 
   2   0  -9   35.22    1.43 
   2   0  -9   33.14    1.20 
  -2   0   9   32.59    1.11 
   1   0  -9    5.16    0.30 
   1   0  -9    4.60    0.38 
  -1   0   9    4.80    0.24 
   0   0  -9    0.47    0.11 
   0   0   9    0.43    0.09 
  -1   0  -9    2.75    0.24 
  -1   0  -9    2.50    0.18 
  -2   0  -9   58.89    1.94 
  -2   0  -9   56.72    1.89 
  -3   0  -9    5.72    0.34 
  -3   0  -9    5.06    0.30 
  -4   0  -9    0.53    0.12 
  -4   0  -9    0.31    0.10 
  -5   0  -9   17.75    0.75 
  -5   0  -9   17.63    0.75 
  -6   0  -9    8.84    0.48 
  -6   0  -9    9.53    0.50 
  -7   0  -9   -0.08    0.09 
  -7   0  -9    0.02    0.11 
  -8   0  -9    2.54    0.28 
  -8   0  -9    2.58    0.31 
  -9   0  -9    3.76    0.40 
  -9   0  -9    3.24    0.32 
 -10   0  -9    5.43    0.50 
 -10   0  -9    6.27    0.42 
 -11   0  -9    2.68    0.31 
 -11   0  -9    2.48    0.39 
 -12   0  -9    0.19    0.23 
 -13   0  -9    1.22    0.35 
 -14   0  -9    1.42    0.41 
 -15   1   9    0.20    0.23 
 -14   1   9    0.93    0.26 
 -13   1   9    3.25    0.39 
 -12   1   9    1.86    0.31 
  11  -1  -9    1.05    0.34 
 -11   1   9    0.64    0.19 
  10  -1  -9    0.79    0.27 
 -10   1   9    0.90    0.20 
   9  -1  -9    6.06    0.61 
  -9   1   9    5.29    0.37 
   8  -1  -9   12.64    0.82 
   8  -1  -9   13.77    0.72 
  -8   1   9   14.60    0.65 
   7  -1  -9   10.92    0.61 
   7  -1  -9   10.03    0.68 
  -7   1   9   10.22    0.51 
   6  -1  -9    7.66    0.55 
   6  -1  -9    8.15    0.50 
  -6   1   9    8.38    0.44 
   5  -1  -9    0.43    0.14 
   5  -1  -9    0.19    0.13 
  -5   1   9    0.45    0.12 
   4  -1  -9   30.07    1.23 
   4  -1  -9   29.62    1.15 
  -4   1   9   27.38    1.09 
   3  -1  -9   12.07    0.60 
  -3   1   9   13.16    0.59 
   2  -1  -9   40.51    1.45 
   2  -1  -9   39.77    1.53 
   1  -1  -9    4.33    0.30 
   1  -1  -9    3.86    0.29 
   0  -1  -9   81.47    2.88 
   0  -1  -9   80.96    2.68 
  -1  -1  -9   10.77    0.54 
  -1  -1  -9   10.69    0.52 
  -2  -1  -9   23.19    0.94 
  -2  -1  -9   23.97    0.94 
  -3  -1  -9   19.50    0.81 
  -3  -1  -9   20.16    0.84 
  -4  -1  -9    1.96    0.24 
  -4  -1  -9    1.25    0.19 
  -5  -1  -9    3.73    0.34 
  -5  -1  -9    3.86    0.30 
  -6  -1  -9   15.86    0.71 
  -6  -1  -9   15.63    0.76 
  -7  -1  -9    1.78    0.27 
  -7  -1  -9    2.20    0.25 
  -8  -1  -9    5.54    0.38 
  -8  -1  -9    5.35    0.47 
  -9  -1  -9    4.99    0.37 
  -9  -1  -9    5.24    0.50 
 -10  -1  -9    3.42    0.33 
 -10  -1  -9    3.51    0.44 
 -11  -1  -9    1.15    0.33 
 -12  -1  -9    1.23    0.36 
 -13  -1  -9    0.12    0.30 
 -14  -1  -9    0.85    0.36 
 -14   2   9    0.39    0.22 
 -13   2   9    0.26    0.18 
 -12   2   9    1.94    0.32 
 -11   2   9    4.05    0.40 
 -10   2   9   15.72    0.79 
  -9   2   9    3.00    0.34 
  -8   2   9    0.61    0.18 
   7  -2  -9    2.61    0.37 
  -7   2   9    2.61    0.31 
   6  -2  -9    4.35    0.45 
   6  -2  -9    4.63    0.44 
  -6   2   9    4.48    0.40 
   5  -2  -9    0.15    0.12 
   5  -2  -9    0.55    0.16 
  -5   2   9    0.45    0.15 
   4  -2  -9    2.03    0.25 
   4  -2  -9    1.26    0.24 
  -4   2   9    1.50    0.25 
   3  -2  -9   23.57    1.08 
   3  -2  -9   25.56    1.04 
  -3   2   9   26.61    1.11 
   2  -2  -9   56.34    1.97 
   2  -2  -9   52.32    1.97 
  -2   2   9   55.28    2.01 
   1  -2  -9   15.56    0.62 
   1  -2  -9   15.19    0.74 
  -1   2   9   14.77    0.76 
   0  -2  -9   14.84    0.72 
   0  -2  -9   14.98    0.73 
  -1  -2  -9    2.36    0.28 
  -1  -2  -9    2.97    0.31 
  -2  -2  -9   14.30    0.72 
  -2  -2  -9   14.21    0.70 
  -3  -2  -9   46.21    1.69 
  -3  -2  -9   41.97    1.60 
  -4  -2  -9   23.87    1.04 
  -4  -2  -9   22.66    0.97 
  -5  -2  -9   14.39    0.69 
  -5  -2  -9   13.02    0.73 
  -6  -2  -9   10.17    0.57 
  -6  -2  -9    9.99    0.63 
  -7  -2  -9   11.31    0.61 
  -7  -2  -9   11.72    0.70 
  -8  -2  -9    8.19    0.50 
  -8  -2  -9    8.30    0.60 
  -9  -2  -9    0.64    0.20 
  -9  -2  -9    0.69    0.22 
 -10  -2  -9    0.26    0.20 
 -11  -2  -9    0.81    0.31 
 -12  -2  -9    0.68    0.28 
 -13  -2  -9    1.19    0.37 
 -13   3   9    0.02    0.20 
 -12   3   9    0.73    0.25 
 -11   3   9    0.43    0.19 
 -10   3   9    0.32    0.19 
  -9   3   9    2.61    0.39 
  -8   3   9    0.64    0.23 
  -7   3   9    3.40    0.42 
   6  -3  -9    5.37    0.54 
  -6   3   9    5.40    0.51 
   5  -3  -9   13.04    0.78 
  -5   3   9   11.89    0.75 
   4  -3  -9    5.94    0.55 
  -4   3   9    5.50    0.52 
   3  -3  -9    6.04    0.53 
  -3   3   9    5.46    0.51 
   2  -3  -9    0.31    0.16 
  -2   3   9    0.15    0.17 
   1  -3  -9    4.85    0.46 
  -1   3   9    2.92    0.40 
   0  -3  -9   -0.10    0.12 
   0  -3  -9    0.06    0.12 
  -1  -3  -9   37.91    1.51 
  -1  -3  -9   36.48    1.52 
  -2  -3  -9   35.87    1.45 
  -2  -3  -9   34.64    1.47 
  -3  -3  -9   11.76    0.67 
  -3  -3  -9   11.59    0.71 
  -4  -3  -9    2.46    0.33 
  -4  -3  -9    2.41    0.36 
  -5  -3  -9    2.19    0.31 
  -5  -3  -9    2.53    0.39 
  -6  -3  -9   10.40    0.62 
  -6  -3  -9   10.05    0.69 
  -7  -3  -9    7.94    0.54 
  -7  -3  -9    7.89    0.61 
  -8  -3  -9    0.57    0.20 
  -8  -3  -9    0.23    0.22 
  -9  -3  -9    0.61    0.26 
 -10  -3  -9    2.18    0.44 
 -11  -3  -9    0.47    0.29 
 -12  -3  -9    0.53    0.31 
 -12   4   9    1.02    0.31 
 -11   4   9    0.26    0.21 
 -10   4   9    1.33    0.33 
  -9   4   9    1.05    0.32 
  -8   4   9    2.79    0.44 
  -7   4   9    0.24    0.22 
  -6   4   9    2.02    0.39 
  -5   4   9    1.55    0.35 
   4  -4  -9    3.51    0.49 
  -4   4   9    3.67    0.49 
   3  -4  -9    1.22    0.31 
  -3   4   9    0.92    0.30 
   2  -4  -9    2.32    0.40 
  -2   4   9    1.47    0.35 
   1  -4  -9    3.68    0.49 
  -1   4   9    3.97    0.52 
   0  -4  -9   18.66    1.04 
   0   4   9   20.25    1.11 
  -1  -4  -9    4.34    0.51 
  -1  -4  -9    4.21    0.50 
  -2  -4  -9    0.46    0.20 
  -2  -4  -9    0.20    0.20 
  -3  -4  -9    9.86    0.67 
  -3  -4  -9    7.75    0.64 
  -4  -4  -9    6.59    0.64 
  -4  -4  -9    6.71    0.55 
  -5  -4  -9    2.26    0.38 
  -5  -4  -9    2.44    0.45 
  -6  -4  -9    1.36    0.30 
  -6  -4  -9    1.72    0.38 
  -7  -4  -9    0.93    0.31 
  -8  -4  -9    0.92    0.33 
  -9  -4  -9    0.80    0.33 
 -10  -4  -9    1.85    0.45 
 -11  -4  -9    0.68    0.31 
 -10   5   9    0.05    0.22 
  -9   5   9    0.82    0.32 
  -8   5   9    0.70    0.31 
  -7   5   9    1.05    0.33 
  -6   5   9    1.33    0.36 
  -5   5   9    0.13    0.22 
  -4   5   9    0.29    0.26 
  -3   5   9    0.91    0.32 
  -2   5   9    1.47    0.38 
  -1   5   9    0.66    0.29 
   0  -5  -9    4.37    0.57 
   0   5   9    2.91    0.51 
  -1  -5  -9    1.27    0.33 
  -1  -5  -9    0.44    0.26 
  -2  -5  -9    0.44    0.26 
  -2  -5  -9    0.77    0.29 
  -3  -5  -9    3.17    0.49 
  -3  -5  -9    2.25    0.44 
  -4  -5  -9    0.91    0.33 
  -4  -5  -9    1.18    0.31 
  -5  -5  -9    0.06    0.21 
  -5  -5  -9    0.04    0.25 
  -6  -5  -9    0.05    0.23 
  -7  -5  -9    0.33    0.27 
  -8  -5  -9    0.07    0.26 
  -9  -5  -9    1.28    0.40 
  -6   6   9    0.12    0.25 
  -5   6   9    0.31    0.29 
  -4   6   9    0.68    0.32 
  -3   6   9    1.43    0.40 
  -2   6   9    1.67    0.44 
  -1   6   9    0.04    0.24 
   0   6   9    0.41    0.29 
   1   6   9    0.65    0.31 
  -2  -6  -9    0.70    0.29 
  -3  -6  -9    0.51    0.27 
  -4  -6  -9    0.18    0.31 
  -5  -6  -9    0.82    0.37 
   5   6 -10    0.79    0.38 
   4   6 -10    1.50    0.48 
   3   6 -10    0.85    0.35 
   2   6 -10    0.94    0.38 
   0   6 -10    0.60    0.22 
  -1   6 -10   -0.04    0.16 
  -2   6 -10    0.47    0.23 
  -3   6 -10    0.38    0.24 
  -4   6 -10   -0.06    0.18 
   9   5 -10    0.68    0.32 
   8   5 -10    0.33    0.29 
   7   5 -10    0.69    0.34 
   6   5 -10    0.36    0.29 
   5   5 -10    3.69    0.64 
   4   5 -10    3.40    0.61 
   3   5 -10    0.71    0.31 
   2   5 -10    2.52    0.33 
   1   5 -10    1.12    0.24 
   0   5 -10    0.25    0.17 
  -1   5 -10    0.36    0.18 
  -2   5 -10   -0.02    0.13 
  -3   5 -10    0.02    0.15 
  -4   5 -10    1.32    0.29 
  -5   5 -10    1.55    0.32 
  -6   5 -10    3.03    0.45 
  -7   5 -10    0.56    0.24 
  -8   5 -10   -0.08    0.20 
  12   4 -10    0.54    0.37 
  11   4 -10    0.41    0.30 
  10   4 -10    0.35    0.25 
   9   4 -10    1.68    0.44 
   8   4 -10    0.60    0.30 
   7   4 -10    2.88    0.56 
   6   4 -10    1.66    0.44 
   5   4 -10    5.51    0.73 
   4   4 -10    1.01    0.35 
   3   4 -10    5.26    0.36 
   3   4 -10    5.19    0.68 
   2   4 -10    1.59    0.23 
   1   4 -10    2.12    0.28 
   0   4 -10    0.24    0.13 
  -1   4 -10    5.86    0.45 
  -2   4 -10    2.21    0.32 
  -3   4 -10    4.77    0.47 
  -4   4 -10    0.52    0.19 
  -5   4 -10    0.00    0.13 
  -6   4 -10    0.50    0.21 
  -7   4 -10    1.05    0.27 
  -8   4 -10    2.04    0.37 
  -9   4 -10    2.71    0.43 
 -10   4 -10    0.55    0.23 
  13   3 -10    1.75    0.46 
  12   3 -10    0.48    0.30 
  11   3 -10    2.10    0.48 
  10   3 -10    1.53    0.42 
   9   3 -10    0.32    0.26 
   8   3 -10    1.13    0.34 
   7   3 -10    3.80    0.59 
   6   3 -10    1.53    0.37 
   5   3 -10    0.63    0.26 
   4   3 -10    9.61    0.47 
   4   3 -10    9.82    0.79 
   3   3 -10    6.85    0.71 
   3   3 -10    6.29    0.36 
   2   3 -10    5.99    0.36 
   1   3 -10   11.34    0.57 
   0   3 -10    0.86    0.19 
  -1   3 -10    4.84    0.37 
  -2   3 -10   36.49    1.43 
  -3   3 -10   12.87    0.69 
  -4   3 -10    3.39    0.38 
  -5   3 -10    1.19    0.25 
  -6   3 -10    2.97    0.39 
  -7   3 -10    5.59    0.52 
  -8   3 -10    0.73    0.22 
  -9   3 -10    1.17    0.26 
 -10   3 -10    1.60    0.31 
 -11   3 -10    0.63    0.24 
  14   2 -10    1.65    0.51 
 -14  -2  10    1.15    0.36 
  13   2 -10   -0.16    0.25 
 -13  -2  10    0.07    0.23 
  12   2 -10    0.28    0.29 
 -12  -2  10    0.30    0.24 
  11   2 -10    0.37    0.29 
 -11  -2  10    0.76    0.24 
  10   2 -10    1.09    0.36 
 -10  -2  10    0.76    0.23 
   9   2 -10    5.52    0.69 
  -9  -2  10    5.77    0.44 
   8   2 -10    3.40    0.53 
   7   2 -10   11.14    0.83 
  -7  -2  10   10.63    0.56 
   6   2 -10   10.42    0.79 
   6   2 -10    9.98    0.47 
   5   2 -10    5.12    0.31 
   5   2 -10    5.14    0.59 
   4   2 -10    1.96    0.20 
   4   2 -10    1.88    0.40 
   3   2 -10   14.47    0.61 
   3   2 -10   13.20    0.89 
   2   2 -10    1.24    0.17 
   1   2 -10   17.69    0.74 
   0   2 -10   34.14    1.25 
  -1   2 -10   47.05    1.66 
  -2   2 -10    7.25    0.43 
  -3   2 -10    1.75    0.24 
  -4   2 -10    3.96    0.35 
  -5   2 -10    2.91    0.33 
  -6   2 -10    9.33    0.56 
  -7   2 -10    8.87    0.56 
  -8   2 -10    1.41    0.25 
  -9   2 -10    2.40    0.33 
 -10   2 -10   -0.01    0.14 
 -11   2 -10    0.23    0.17 
 -12   2 -10    0.67    0.21 
 -13   2 -10    0.53    0.21 
  15   1 -10    0.80    0.35 
 -15  -1  10    0.25    0.20 
  14   1 -10    1.65    0.45 
 -14  -1  10    1.99    0.35 
  13   1 -10    0.17    0.26 
 -13  -1  10    0.15    0.18 
  12   1 -10    0.62    0.28 
 -12  -1  10    0.70    0.23 
  11   1 -10    1.14    0.39 
 -11  -1  10    1.21    0.25 
  10   1 -10    1.73    0.41 
 -10  -1  10    1.23    0.23 
   9   1 -10    9.88    0.75 
  -9  -1  10    8.91    0.51 
   8   1 -10   12.46    0.85 
  -8  -1  10   12.85    0.60 
   7   1 -10    5.98    0.37 
   7   1 -10    5.80    0.60 
   6   1 -10    2.85    0.43 
   6   1 -10    2.77    0.25 
  -6  -1  10    2.25    0.21 
   5   1 -10    2.15    0.37 
   5   1 -10    2.62    0.24 
  -5  -1  10    2.08    0.18 
   4   1 -10   21.91    1.16 
   4   1 -10   21.43    0.86 
  -4  -1  10   24.22    0.81 
   3   1 -10   21.13    0.84 
   3   1 -10   20.33    1.11 
  -3  -1  10   22.40    0.73 
   2   1 -10    0.65    0.23 
   2   1 -10    0.77    0.14 
   1   1 -10   14.89    0.63 
   0   1 -10    7.60    0.41 
  -1   1 -10    1.51    0.20 
  -2   1 -10    5.11    0.34 
  -3   1 -10    8.63    0.47 
  -4   1 -10   21.94    0.91 
  -5   1 -10    9.53    0.52 
  -6   1 -10    1.63    0.24 
  -7   1 -10    3.83    0.36 
  -8   1 -10    1.09    0.21 
  -9   1 -10    4.32    0.39 
 -10   1 -10    2.20    0.31 
 -11   1 -10    1.96    0.31 
 -12   1 -10    2.42    0.35 
 -15   0  10    1.25    0.30 
  14   0 -10    0.22    0.25 
 -14   0  10    0.03    0.18 
  13   0 -10    0.75    0.33 
 -13   0  10    0.28    0.20 
  12   0 -10    0.78    0.32 
 -12   0  10    0.73    0.24 
  11   0 -10    1.73    0.41 
 -11   0  10    1.48    0.27 
  10   0 -10   -0.01    0.14 
 -10   0  10   -0.07    0.12 
   9   0 -10    3.71    0.52 
  -9   0  10    4.27    0.32 
   8   0 -10    1.38    0.31 
   8   0 -10    1.90    0.25 
  -8   0  10    1.54    0.20 
   7   0 -10    9.96    0.55 
   7   0 -10    9.95    0.68 
  -7   0  10   11.13    0.50 
   6   0 -10    6.58    0.52 
   6   0 -10    7.32    0.43 
   5   0 -10    0.78    0.16 
   5   0 -10    0.72    0.22 
  -5   0  10    0.79    0.12 
   4   0 -10   -0.04    0.09 
   4   0 -10   -0.02    0.07 
  -4   0  10   -0.01    0.04 
   3   0 -10    1.67    0.20 
   3   0 -10    1.42    0.26 
  -3   0  10    1.68    0.13 
   2   0 -10    7.21    0.39 
   2   0 -10    6.95    0.50 
  -2   0  10    7.00    0.31 
   1   0 -10    4.08    0.28 
   1   0 -10    3.97    0.40 
  -1   0  10    4.43    0.22 
   0   0 -10    2.95    0.23 
   0   0  10    2.51    0.18 
  -1   0 -10    0.48    0.13 
  -2   0 -10   35.02    1.26 
  -2   0 -10   33.36    1.18 
  -3   0 -10   13.21    0.56 
  -3   0 -10   12.83    0.61 
  -4   0 -10    1.35    0.18 
  -4   0 -10    1.13    0.19 
  -5   0 -10    8.36    0.44 
  -5   0 -10    7.12    0.43 
  -6   0 -10    2.35    0.26 
  -6   0 -10    2.58    0.27 
  -7   0 -10    5.93    0.39 
  -7   0 -10    5.39    0.40 
  -8   0 -10   13.71    0.74 
  -8   0 -10   16.07    0.73 
  -9   0 -10   14.87    0.72 
  -9   0 -10   14.77    0.79 
 -10   0 -10    1.87    0.27 
 -10   0 -10    1.99    0.33 
 -11   0 -10    1.73    0.35 
 -11   0 -10    1.52    0.26 
 -12   0 -10    0.28    0.27 
 -15   1  10    0.41    0.24 
 -14   1  10    1.68    0.33 
 -13   1  10    0.09    0.17 
 -12   1  10    0.84    0.22 
  11  -1 -10    1.43    0.37 
 -11   1  10    1.28    0.25 
  10  -1 -10    1.74    0.38 
 -10   1  10    1.15    0.22 
   9  -1 -10    9.63    0.73 
   9  -1 -10    8.80    0.59 
  -9   1  10   11.56    0.56 
   8  -1 -10   13.17    0.83 
   8  -1 -10   12.07    0.70 
  -8   1  10   12.88    0.61 
   7  -1 -10    5.31    0.47 
   7  -1 -10    5.42    0.42 
  -7   1  10    5.75    0.36 
   6  -1 -10    2.93    0.33 
   6  -1 -10    2.54    0.36 
  -6   1  10    2.52    0.25 
   5  -1 -10    1.90    0.30 
   5  -1 -10    2.30    0.29 
  -5   1  10    1.93    0.22 
   4  -1 -10   20.52    0.94 
   4  -1 -10   22.55    1.02 
  -4   1  10   23.28    0.90 
   3  -1 -10   19.76    0.80 
  -3   1  10   14.75    0.71 
   2  -1 -10    0.81    0.18 
   2  -1 -10    0.66    0.14 
   1  -1 -10   14.51    0.68 
   1  -1 -10   15.03    0.71 
  -1   1  10   14.72    0.67 
   0  -1 -10    7.87    0.44 
   0  -1 -10    6.64    0.42 
   0   1  10    6.93    0.42 
  -1  -1 -10    1.45    0.21 
  -1  -1 -10    1.66    0.21 
  -2  -1 -10    4.30    0.31 
  -2  -1 -10    4.22    0.32 
  -3  -1 -10    6.91    0.41 
  -3  -1 -10    6.61    0.41 
  -4  -1 -10   19.29    0.89 
  -4  -1 -10   23.50    0.91 
  -5  -1 -10    8.86    0.53 
  -5  -1 -10    9.33    0.50 
  -6  -1 -10    2.17    0.29 
  -6  -1 -10    2.12    0.26 
  -7  -1 -10    3.20    0.31 
  -7  -1 -10    2.53    0.32 
  -8  -1 -10    1.11    0.25 
  -8  -1 -10    1.44    0.23 
  -9  -1 -10    4.32    0.35 
  -9  -1 -10    4.73    0.47 
 -10  -1 -10    2.41    0.39 
 -10  -1 -10    2.34    0.30 
 -11  -1 -10    1.43    0.35 
 -12  -1 -10    1.85    0.41 
 -13  -1 -10    1.21    0.39 
 -14   2  10    1.61    0.34 
 -13   2  10   -0.12    0.15 
 -12   2  10    0.45    0.20 
 -11   2  10    0.96    0.24 
 -10   2  10    0.57    0.20 
  -9   2  10    6.41    0.47 
   8  -2 -10    2.14    0.34 
  -8   2  10    2.65    0.33 
   7  -2 -10    9.73    0.65 
   7  -2 -10    9.94    0.67 
  -7   2  10   10.09    0.60 
   6  -2 -10    9.15    0.62 
   6  -2 -10   10.41    0.66 
  -6   2  10   11.42    0.63 
   5  -2 -10    4.49    0.45 
   5  -2 -10    4.77    0.38 
  -5   2  10    4.39    0.41 
   4  -2 -10    2.50    0.34 
   4  -2 -10    1.97    0.27 
  -4   2  10    2.29    0.30 
   3  -2 -10   13.75    0.67 
   3  -2 -10   14.46    0.75 
  -3   2  10   13.72    0.73 
   2  -2 -10    1.13    0.23 
   2  -2 -10    1.33    0.20 
  -2   2  10    1.28    0.24 
   1  -2 -10   15.64    0.79 
  -1   2  10   16.59    0.82 
   0  -2 -10   33.22    1.32 
  -1  -2 -10   41.52    1.57 
  -1  -2 -10   40.75    1.55 
  -2  -2 -10    7.25    0.46 
  -2  -2 -10    7.14    0.47 
  -3  -2 -10    1.58    0.27 
  -3  -2 -10    2.08    0.27 
  -4  -2 -10    4.39    0.35 
  -4  -2 -10    4.33    0.41 
  -5  -2 -10    1.93    0.31 
  -5  -2 -10    2.47    0.29 
  -6  -2 -10    8.82    0.58 
  -6  -2 -10    7.66    0.50 
  -7  -2 -10    7.49    0.50 
  -7  -2 -10    7.55    0.56 
  -8  -2 -10    1.43    0.31 
  -8  -2 -10    1.48    0.26 
  -9  -2 -10    2.30    0.31 
  -9  -2 -10    1.91    0.36 
 -10  -2 -10    0.22    0.21 
 -11  -2 -10    0.44    0.24 
 -12  -2 -10    0.28    0.27 
 -13  -2 -10    0.93    0.36 
 -13   3  10    2.04    0.37 
 -12   3  10    0.53    0.22 
 -11   3  10    1.57    0.30 
 -10   3  10    1.39    0.33 
  -9   3  10    0.13    0.17 
  -8   3  10    0.82    0.24 
   7  -3 -10    3.02    0.45 
  -7   3  10    3.03    0.41 
   6  -3 -10    2.46    0.41 
  -6   3  10    1.78    0.34 
   5  -3 -10    0.59    0.22 
  -5   3  10    0.54    0.22 
   4  -3 -10    9.77    0.68 
  -4   3  10   10.49    0.69 
   3  -3 -10    5.58    0.54 
  -3   3  10    5.39    0.52 
   2  -3 -10    5.00    0.50 
  -2   3  10    6.70    0.54 
   1  -3 -10   10.28    0.67 
  -1   3  10   12.10    0.74 
   0  -3 -10    0.92    0.24 
   0   3  10    1.48    0.31 
  -1  -3 -10    4.59    0.47 
  -1  -3 -10    4.75    0.46 
  -2  -3 -10   31.95    1.35 
  -2  -3 -10   31.18    1.37 
  -3  -3 -10   10.03    0.67 
  -3  -3 -10   11.32    0.67 
  -4  -3 -10    3.18    0.38 
  -4  -3 -10    4.00    0.46 
  -5  -3 -10    0.99    0.24 
  -5  -3 -10    1.35    0.30 
  -6  -3 -10    2.76    0.42 
  -6  -3 -10    2.31    0.34 
  -7  -3 -10    4.72    0.45 
  -7  -3 -10    4.33    0.52 
  -8  -3 -10    0.49    0.24 
  -8  -3 -10    0.67    0.23 
  -9  -3 -10    0.68    0.29 
 -10  -3 -10    1.30    0.37 
 -11  -3 -10    0.43    0.29 
 -12  -3 -10    1.36    0.41 
 -12   4  10    0.52    0.27 
 -11   4  10    0.18    0.24 
 -10   4  10    0.41    0.25 
  -9   4  10    1.26    0.34 
  -8   4  10    0.50    0.24 
  -7   4  10    2.29    0.42 
  -6   4  10    0.59    0.26 
   5  -4 -10    4.66    0.58 
  -5   4  10    4.73    0.56 
   4  -4 -10    0.89    0.28 
  -4   4  10    1.17    0.33 
   3  -4 -10    4.65    0.56 
  -3   4  10    4.29    0.52 
   2  -4 -10    2.01    0.40 
  -2   4  10    1.45    0.35 
   1  -4 -10    2.23    0.40 
  -1   4  10    2.06    0.40 
   0  -4 -10    0.26    0.17 
   0   4  10    0.15    0.21 
  -1  -4 -10    5.82    0.58 
  -1  -4 -10    4.83    0.54 
  -2  -4 -10    2.65    0.42 
  -2  -4 -10    1.86    0.36 
  -3  -4 -10    5.19    0.54 
  -3  -4 -10    3.75    0.51 
  -4  -4 -10    0.84    0.25 
  -4  -4 -10    0.57    0.27 
  -5  -4 -10    0.19    0.17 
  -5  -4 -10    0.25    0.21 
  -6  -4 -10    0.55    0.26 
  -6  -4 -10    0.44    0.21 
  -7  -4 -10    1.06    0.32 
  -8  -4 -10    2.21    0.45 
  -9  -4 -10    2.76    0.52 
 -10  -4 -10    0.68    0.31 
  -9   5  10    0.66    0.29 
  -8   5  10    0.59    0.28 
  -7   5  10    1.13    0.33 
  -6   5  10    0.41    0.29 
  -5   5  10    3.56    0.57 
  -4   5  10    2.82    0.51 
  -3   5  10    0.57    0.30 
  -2   5  10    3.00    0.52 
   1  -5 -10    0.78    0.28 
  -1   5  10    1.12    0.36 
   0  -5 -10    0.02    0.18 
   0   5  10    0.15    0.25 
  -1  -5 -10    0.28    0.22 
   1   5  10   -0.04    0.24 
  -2  -5 -10   -0.02    0.17 
  -2  -5 -10    0.07    0.21 
  -3  -5 -10    0.17    0.23 
  -3  -5 -10    0.11    0.21 
  -4  -5 -10    1.21    0.34 
  -4  -5 -10    1.30    0.35 
  -5  -5 -10    1.10    0.35 
  -5  -5 -10    1.60    0.40 
  -6  -5 -10    2.28    0.48 
  -7  -5 -10    0.53    0.28 
  -8  -5 -10    0.54    0.34 
  -5   6  10    0.91    0.37 
  -4   6  10    0.61    0.30 
  -3   6  10    1.44    0.42 
  -2   6  10    0.88    0.33 
  -1   6  10    1.25    0.37 
   0   6  10    0.83    0.35 
   1   6  10    0.26    0.28 
   2   6  10    0.12    0.27 
  -3  -6 -10    0.55    0.33 
  -4  -6 -10    0.52    0.32 
   3   6 -11    0.29    0.32 
   2   6 -11    1.79    0.50 
   0   6 -11    0.83    0.24 
  -1   6 -11    0.70    0.25 
  -2   6 -11    0.13    0.16 
   8   5 -11    1.26    0.44 
   7   5 -11    0.32    0.28 
   6   5 -11    4.27    0.72 
   5   5 -11    3.42    0.65 
   4   5 -11    0.28    0.28 
   3   5 -11    1.58    0.45 
   2   5 -11    2.86    0.35 
   1   5 -11    0.27    0.15 
   0   5 -11    1.01    0.25 
  -1   5 -11    0.29    0.16 
  -2   5 -11    0.44    0.19 
  -3   5 -11    0.31    0.19 
  -4   5 -11    0.28    0.18 
  -5   5 -11    0.46    0.20 
  -6   5 -11    0.12    0.17 
  -7   5 -11    0.41    0.23 
  11   4 -11    0.57    0.35 
  10   4 -11    0.42    0.30 
   9   4 -11    1.43    0.38 
   8   4 -11    0.90    0.35 
   7   4 -11    0.31    0.27 
   6   4 -11    1.01    0.35 
   5   4 -11    1.65    0.42 
   4   4 -11    6.27    0.78 
   3   4 -11    3.89    0.63 
   3   4 -11    3.04    0.29 
   2   4 -11    0.30    0.13 
   1   4 -11    0.97    0.21 
   0   4 -11    3.26    0.35 
  -1   4 -11    1.65    0.27 
  -2   4 -11    0.14    0.14 
  -3   4 -11    0.04    0.13 
  -4   4 -11    1.57    0.29 
  -5   4 -11    1.14    0.28 
  -6   4 -11    3.09    0.43 
  -7   4 -11    1.03    0.28 
  -8   4 -11    0.36    0.22 
  -9   4 -11    0.31    0.19 
 -10   4 -11    0.54    0.21 
  13   3 -11    0.44    0.34 
  12   3 -11    1.10    0.41 
  11   3 -11    0.41    0.29 
  10   3 -11    1.25    0.40 
   9   3 -11    2.16    0.49 
   8   3 -11    2.21    0.46 
   7   3 -11    9.23    0.90 
   6   3 -11    5.23    0.69 
   5   3 -11    1.63    0.40 
   4   3 -11    0.25    0.21 
   4   3 -11    0.78    0.15 
   3   3 -11    2.39    0.46 
   3   3 -11    2.53    0.25 
   2   3 -11    6.18    0.38 
   1   3 -11    8.58    0.48 
   0   3 -11   18.15    0.81 
  -1   3 -11    1.17    0.21 
  -2   3 -11    2.67    0.32 
  -3   3 -11   13.19    0.70 
  -4   3 -11    1.73    0.28 
  -5   3 -11    1.99    0.32 
  -6   3 -11    2.45    0.36 
  -7   3 -11   -0.22    0.11 
  -8   3 -11    2.24    0.35 
  -9   3 -11    0.92    0.25 
 -10   3 -11    0.86    0.24 
 -11   3 -11    0.16    0.19 
  14   2 -11    1.76    0.53 
  13   2 -11    2.48    0.56 
  12   2 -11    0.81    0.35 
  11   2 -11    2.42    0.52 
  10   2 -11    4.05    0.63 
   9   2 -11    3.12    0.55 
   8   2 -11    1.29    0.34 
   7   2 -11    1.29    0.33 
   6   2 -11    6.63    0.70 
   5   2 -11   12.29    0.89 
   5   2 -11   13.50    0.60 
   4   2 -11   11.10    0.81 
   4   2 -11   11.01    0.52 
   3   2 -11   13.50    0.60 
   3   2 -11   13.21    0.89 
   2   2 -11    8.44    0.45 
   1   2 -11    2.88    0.27 
   0   2 -11    5.58    0.37 
  -1   2 -11   48.95    1.73 
  -2   2 -11   30.92    1.20 
  -3   2 -11    6.43    0.42 
  -4   2 -11    4.88    0.37 
  -5   2 -11    3.05    0.34 
  -6   2 -11    4.38    0.40 
  -7   2 -11    0.05    0.12 
  -8   2 -11    0.85    0.21 
  -9   2 -11    1.07    0.24 
 -10   2 -11    0.63    0.20 
 -11   2 -11    0.81    0.23 
 -12   2 -11    0.30    0.19 
  14   1 -11    0.68    0.33 
 -14  -1  11    1.38    0.32 
  13   1 -11    0.59    0.31 
 -13  -1  11    0.37    0.24 
  12   1 -11    1.24    0.36 
 -12  -1  11    1.06    0.26 
  11   1 -11    0.24    0.26 
 -11  -1  11    0.06    0.15 
  10   1 -11    1.67    0.42 
 -10  -1  11    1.55    0.25 
   9   1 -11    0.19    0.20 
  -9  -1  11    0.33    0.15 
   7   1 -11    5.49    0.60 
   7   1 -11    6.81    0.40 
  -7  -1  11    5.60    0.35 
   6   1 -11    3.80    0.29 
   6   1 -11    4.24    0.53 
  -6  -1  11    3.69    0.26 
   5   1 -11    3.83    0.49 
   5   1 -11    4.59    0.31 
   4   1 -11    0.39    0.12 
   4   1 -11    0.57    0.21 
   3   1 -11    5.11    0.33 
   3   1 -11    5.00    0.54 
   2   1 -11   12.16    0.58 
   2   1 -11   13.15    0.81 
   1   1 -11   18.27    0.76 
   0   1 -11   34.88    1.27 
  -1   1 -11    5.50    0.36 
  -2   1 -11    5.01    0.35 
  -3   1 -11    4.90    0.35 
  -4   1 -11    8.91    0.51 
  -5   1 -11    0.32    0.14 
  -6   1 -11    5.71    0.41 
  -7   1 -11    2.74    0.33 
  -8   1 -11    8.19    0.52 
  -9   1 -11    3.56    0.38 
 -10   1 -11    5.94    0.46 
 -11   1 -11    1.11    0.25 
 -12   1 -11    0.52    0.22 
  14   0 -11    0.86    0.31 
 -14   0  11    0.72    0.26 
  13   0 -11    0.78    0.31 
 -13   0  11    0.67    0.26 
  12   0 -11    1.77    0.46 
 -12   0  11    1.56    0.30 
  11   0 -11    1.67    0.44 
 -11   0  11    1.80    0.29 
  10   0 -11    3.63    0.55 
 -10   0  11    4.54    0.38 
   9   0 -11    0.66    0.26 
  -9   0  11    0.71    0.18 
   8   0 -11   14.59    0.71 
  -8   0  11   12.55    0.60 
   7   0 -11    1.86    0.35 
   7   0 -11    2.04    0.27 
  -7   0  11    1.72    0.20 
   6   0 -11    1.54    0.31 
   6   0 -11    1.82    0.25 
  -6   0  11    1.55    0.17 
   5   0 -11    0.25    0.17 
   5   0 -11    0.68    0.16 
  -5   0  11    0.51    0.10 
   4   0 -11    3.67    0.42 
   4   0 -11    3.20    0.30 
  -4   0  11    3.45    0.21 
   3   0 -11    0.34    0.11 
   3   0 -11    0.14    0.14 
  -3   0  11    0.23    0.07 
   2   0 -11    4.84    0.33 
   2   0 -11    4.76    0.46 
  -2   0  11    5.07    0.25 
   1   0 -11    2.39    0.33 
   1   0 -11    1.92    0.23 
  -1   0  11    2.03    0.15 
   0   0 -11    0.10    0.08 
   0   0  11    0.08    0.07 
  -1   0 -11    8.84    0.47 
   1   0  11    7.69    0.38 
  -2   0 -11   22.49    0.92 
  -2   0 -11   21.84    0.82 
  -3   0 -11    9.53    0.51 
  -3   0 -11    9.15    0.45 
  -4   0 -11    1.19    0.18 
  -4   0 -11    1.00    0.19 
  -5   0 -11   15.89    0.72 
  -5   0 -11   16.14    0.74 
  -6   0 -11    0.18    0.13 
  -6   0 -11   -0.01    0.10 
  -7   0 -11    0.93    0.21 
  -8   0 -11    4.64    0.37 
  -9   0 -11    1.64    0.27 
 -10   0 -11    2.18    0.31 
 -11   0 -11    7.61    0.51 
 -14   1  11    0.78    0.26 
 -13   1  11    0.60    0.23 
  12  -1 -11    1.58    0.43 
 -12   1  11    1.10    0.26 
  11  -1 -11    0.10    0.25 
 -11   1  11   -0.06    0.15 
  10  -1 -11    1.34    0.39 
 -10   1  11    1.32    0.23 
   9  -1 -11    0.51    0.20 
   9  -1 -11    0.35    0.25 
  -9   1  11    0.21    0.14 
   8  -1 -11   13.94    0.77 
   8  -1 -11   13.58    0.87 
  -8   1  11   13.52    0.65 
   7  -1 -11    5.83    0.46 
   7  -1 -11    6.75    0.55 
  -7   1  11    6.92    0.41 
   6  -1 -11    3.06    0.40 
   6  -1 -11    3.81    0.38 
  -6   1  11    3.49    0.28 
   5  -1 -11    4.53    0.40 
   5  -1 -11    2.83    0.36 
  -5   1  11    4.22    0.30 
   4  -1 -11    0.24    0.13 
   4  -1 -11    0.68    0.20 
  -4   1  11    0.35    0.12 
   2  -1 -11   11.67    0.61 
   2  -1 -11   10.97    0.62 
  -2   1  11   12.35    0.58 
   1  -1 -11   16.78    0.81 
   1  -1 -11   19.73    0.87 
  -1   1  11   18.97    0.80 
   0  -1 -11   38.63    1.46 
   0  -1 -11   38.94    1.55 
   0   1  11   39.82    1.46 
  -1  -1 -11    4.91    0.37 
  -1  -1 -11    5.48    0.34 
  -2  -1 -11    3.92    0.30 
  -2  -1 -11    3.05    0.31 
  -3  -1 -11    5.11    0.37 
  -3  -1 -11    5.73    0.39 
  -4  -1 -11    8.44    0.49 
  -4  -1 -11    7.68    0.47 
  -5  -1 -11    0.29    0.13 
  -5  -1 -11    0.15    0.10 
  -6  -1 -11    4.34    0.41 
  -6  -1 -11    5.25    0.38 
  -7  -1 -11    2.42    0.33 
  -7  -1 -11    2.09    0.28 
  -8  -1 -11    7.89    0.56 
  -8  -1 -11    7.63    0.49 
  -9  -1 -11    2.86    0.33 
  -9  -1 -11    2.62    0.38 
 -10  -1 -11    4.23    0.51 
 -10  -1 -11    5.10    0.40 
 -11  -1 -11    0.62    0.27 
 -12  -1 -11    0.50    0.31 
 -14   2  11    2.07    0.37 
 -13   2  11    1.82    0.34 
 -12   2  11    1.61    0.30 
 -11   2  11    2.02    0.32 
 -10   2  11    3.26    0.36 
   9  -2 -11    3.30    0.46 
  -9   2  11    2.81    0.35 
   8  -2 -11    1.66    0.30 
  -8   2  11    1.38    0.25 
   7  -2 -11    2.03    0.35 
   7  -2 -11    1.13    0.27 
  -7   2  11    1.20    0.25 
   6  -2 -11    6.13    0.55 
  -6   2  11    6.71    0.48 
   5  -2 -11   12.84    0.71 
   5  -2 -11   12.61    0.74 
  -5   2  11   13.27    0.71 
   4  -2 -11   11.31    0.64 
   4  -2 -11   11.79    0.69 
  -4   2  11   11.71    0.66 
   3  -2 -11   13.88    0.74 
  -3   2  11   13.00    0.71 
   2  -2 -11    8.09    0.54 
  -2   2  11    9.58    0.57 
   1  -2 -11    2.78    0.35 
  -1   2  11    2.76    0.34 
   0  -2 -11    5.15    0.41 
   0   2  11    5.11    0.42 
  -1  -2 -11   42.45    1.61 
  -1  -2 -11   41.89    1.62 
  -2  -2 -11   28.10    1.16 
  -2  -2 -11   26.96    1.16 
  -3  -2 -11    5.80    0.44 
  -3  -2 -11    6.15    0.43 
  -4  -2 -11    4.02    0.38 
  -4  -2 -11    5.04    0.45 
  -5  -2 -11    2.55    0.33 
  -5  -2 -11    3.68    0.40 
  -6  -2 -11    3.11    0.40 
  -6  -2 -11    3.83    0.38 
  -7  -2 -11   -0.08    0.13 
  -7  -2 -11    0.25    0.20 
  -8  -2 -11    0.95    0.25 
  -8  -2 -11    0.80    0.21 
  -9  -2 -11    1.06    0.24 
  -9  -2 -11    0.37    0.22 
 -10  -2 -11    0.76    0.28 
 -11  -2 -11    0.88    0.34 
 -12  -2 -11    0.23    0.27 
 -13   3  11    0.26    0.23 
 -12   3  11    1.34    0.31 
 -11   3  11    0.05    0.18 
 -10   3  11    1.13    0.28 
  -9   3  11    2.30    0.37 
  -8   3  11    1.93    0.35 
   7  -3 -11    8.01    0.65 
  -7   3  11    8.49    0.62 
   6  -3 -11    4.44    0.54 
  -6   3  11    5.00    0.51 
   5  -3 -11    0.90    0.26 
  -5   3  11    1.39    0.31 
   4  -3 -11    0.66    0.23 
  -4   3  11    0.47    0.23 
   3  -3 -11    2.52    0.39 
  -3   3  11    2.55    0.38 
   2  -3 -11    6.43    0.57 
  -2   3  11    6.43    0.57 
   1  -3 -11    8.69    0.61 
  -1   3  11    8.94    0.65 
   0  -3 -11   16.39    0.90 
   0   3  11   17.70    0.94 
  -1  -3 -11    1.51    0.29 
  -1  -3 -11    1.29    0.29 
  -2  -3 -11    2.00    0.32 
  -2  -3 -11    2.09    0.35 
  -3  -3 -11   11.92    0.72 
  -3  -3 -11   11.12    0.69 
  -4  -3 -11    0.91    0.26 
  -4  -3 -11    1.36    0.29 
  -5  -3 -11    2.31    0.36 
  -5  -3 -11    3.19    0.44 
  -6  -3 -11    1.95    0.33 
  -6  -3 -11    2.12    0.37 
  -7  -3 -11    0.04    0.19 
  -7  -3 -11    0.03    0.14 
  -8  -3 -11    2.38    0.37 
  -8  -3 -11    1.74    0.40 
  -9  -3 -11    0.73    0.29 
 -10  -3 -11    0.61    0.29 
 -11  -3 -11   -0.06    0.26 
 -11   4  11    0.12    0.19 
 -10   4  11    0.94    0.32 
  -9   4  11    2.06    0.42 
  -8   4  11    0.90    0.31 
  -7   4  11    0.11    0.23 
  -6   4  11    0.64    0.28 
   5  -4 -11    1.79    0.36 
  -5   4  11    2.05    0.41 
   4  -4 -11    6.66    0.68 
  -4   4  11    7.21    0.68 
   3  -4 -11    3.22    0.49 
  -3   4  11    2.87    0.46 
   2  -4 -11    0.64    0.25 
  -2   4  11    0.55    0.28 
   1  -4 -11    0.79    0.26 
  -1   4  11    0.79    0.30 
   0  -4 -11    2.42    0.42 
   0   4  11    3.11    0.49 
  -1  -4 -11    1.87    0.38 
  -1  -4 -11    1.50    0.34 
  -2  -4 -11    0.13    0.17 
  -2  -4 -11    0.55    0.22 
  -3  -4 -11    0.36    0.21 
  -3  -4 -11    0.06    0.20 
  -4  -4 -11    1.78    0.37 
  -4  -4 -11    1.59    0.33 
  -5  -4 -11    1.72    0.36 
  -5  -4 -11    1.34    0.36 
  -6  -4 -11    3.92    0.50 
  -6  -4 -11    4.00    0.57 
  -7  -4 -11    0.39    0.26 
  -7  -4 -11    0.95    0.32 
  -8  -4 -11    0.11    0.24 
  -9  -4 -11    0.35    0.30 
 -10  -4 -11    0.25    0.33 
  -8   5  11    0.56    0.28 
  -7   5  11    0.34    0.27 
  -6   5  11    3.38    0.56 
  -5   5  11    2.06    0.45 
  -4   5  11    0.07    0.25 
  -3   5  11    2.17    0.45 
   2  -5 -11    3.01    0.49 
  -2   5  11    2.63    0.51 
   1  -5 -11    0.46    0.24 
  -1   5  11    0.33    0.28 
   0  -5 -11    0.83    0.29 
   0   5  11    1.21    0.38 
  -1  -5 -11    0.19    0.23 
   1   5  11    0.23    0.28 
  -2  -5 -11    0.30    0.27 
  -2  -5 -11   -0.01    0.20 
  -3  -5 -11    0.37    0.25 
  -3  -5 -11    0.35    0.24 
  -4  -5 -11   -0.05    0.22 
  -4  -5 -11    0.45    0.26 
  -5  -5 -11   -0.22    0.21 
  -5  -5 -11    0.13    0.26 
  -6  -5 -11   -0.14    0.23 
  -7  -5 -11    0.24    0.29 
  -4   6  11    1.90    0.49 
  -3   6  11    0.24    0.29 
  -2   6  11    1.12    0.39 
  -1   6  11    0.30    0.31 
   0   6  11    0.78    0.38 
   1   6  11    0.32    0.30 
   2   6  11    0.36    0.32 
   8   5 -12    0.86    0.39 
   7   5 -12    0.26    0.30 
   6   5 -12    0.98    0.41 
   5   5 -12    1.62    0.47 
   4   5 -12    3.03    0.62 
   3   5 -12    2.24    0.51 
   2   5 -12    0.41    0.28 
   1   5 -12    0.19    0.14 
   0   5 -12    0.19    0.16 
  -1   5 -12    0.93    0.23 
  -2   5 -12    1.39    0.29 
  -3   5 -12    1.42    0.29 
  -4   5 -12    0.71    0.25 
  -5   5 -12    0.67    0.25 
  -6   5 -12   -0.08    0.18 
  10   4 -12    0.71    0.35 
   9   4 -12    1.06    0.34 
   8   4 -12    2.49    0.54 
   7   4 -12    0.35    0.28 
   6   4 -12    0.36    0.27 
   5   4 -12    2.39    0.52 
   4   4 -12    0.15    0.24 
   3   4 -12    0.89    0.33 
   3   4 -12    0.86    0.18 
   2   4 -12    1.03    0.19 
   1   4 -12    4.28    0.35 
   0   4 -12    2.82    0.34 
  -1   4 -12    0.45    0.18 
  -2   4 -12    1.69    0.29 
  -3   4 -12    0.07    0.13 
  -4   4 -12    0.35    0.17 
  -5   4 -12    0.62    0.20 
  -6   4 -12    0.65    0.23 
  -7   4 -12    2.38    0.39 
  -8   4 -12    1.61    0.32 
  -9   4 -12    0.95    0.27 
  12   3 -12    0.67    0.37 
  11   3 -12    3.39    0.62 
  10   3 -12    1.42    0.40 
   9   3 -12    1.50    0.41 
   8   3 -12    0.26    0.23 
   7   3 -12    0.06    0.18 
   6   3 -12    2.80    0.52 
   5   3 -12    1.75    0.40 
   4   3 -12    6.67    0.39 
   4   3 -12    5.19    0.69 
   3   3 -12    8.54    0.76 
   3   3 -12    8.96    0.49 
   2   3 -12    1.20    0.20 
   1   3 -12    2.86    0.29 
   0   3 -12    4.31    0.34 
  -1   3 -12    3.12    0.32 
  -2   3 -12    1.26    0.22 
  -3   3 -12    3.05    0.35 
  -4   3 -12    1.61    0.28 
  -5   3 -12    3.41    0.39 
  -6   3 -12    0.55    0.19 
  -7   3 -12    0.05    0.14 
  -8   3 -12    1.20    0.26 
  -9   3 -12    2.22    0.37 
 -10   3 -12    0.93    0.25 
  13   2 -12    0.58    0.32 
  12   2 -12    0.13    0.25 
  11   2 -12    0.26    0.28 
  10   2 -12    3.80    0.62 
   9   2 -12    8.91    0.80 
   8   2 -12    4.56    0.63 
   7   2 -12    4.01    0.61 
   6   2 -12    1.79    0.41 
   5   2 -12    3.26    0.26 
   5   2 -12    3.62    0.55 
   4   2 -12    1.12    0.33 
   4   2 -12    1.08    0.18 
   3   2 -12    8.39    0.70 
   3   2 -12    7.93    0.44 
   2   2 -12   19.74    1.19 
   2   2 -12   22.19    0.88 
   1   2 -12   30.80    1.18 
   0   2 -12    0.96    0.19 
  -1   2 -12   11.02    0.58 
  -2   2 -12    4.82    0.37 
  -3   2 -12    4.11    0.37 
  -4   2 -12    3.16    0.33 
  -5   2 -12    2.53    0.32 
  -6   2 -12    3.29    0.36 
  -7   2 -12    1.49    0.27 
  -8   2 -12    0.47    0.17 
  -9   2 -12    1.87    0.31 
 -10   2 -12    1.29    0.27 
 -11   2 -12    0.52    0.22 
 -12   2 -12    0.45    0.21 
  14   1 -12    1.18    0.41 
  13   1 -12    1.44    0.44 
  12   1 -12    3.53    0.61 
  11   1 -12    1.36    0.39 
  10   1 -12    5.46    0.69 
   9   1 -12    1.39    0.38 
   8   1 -12    5.53    0.64 
   7   1 -12    2.91    0.48 
   6   1 -12    0.51    0.15 
   6   1 -12    0.59    0.23 
   5   1 -12    8.24    0.47 
   5   1 -12    8.40    0.66 
   4   1 -12   18.55    1.05 
   4   1 -12   17.20    0.76 
   3   1 -12    6.42    0.40 
   3   1 -12    8.72    0.64 
   2   1 -12    5.74    0.58 
   2   1 -12    5.99    0.38 
   1   1 -12    3.60    0.29 
   0   1 -12   30.27    1.16 
  -1   1 -12   13.80    0.65 
  -2   1 -12   10.31    0.55 
  -3   1 -12    8.96    0.51 
  -4   1 -12    0.55    0.16 
  -5   1 -12    0.39    0.15 
  -6   1 -12    1.44    0.25 
  -7   1 -12    1.85    0.29 
  -8   1 -12    0.21    0.16 
  -9   1 -12    1.25    0.26 
 -10   1 -12    1.12    0.27 
 -11   1 -12    2.67    0.37 
 -12   1 -12    3.02    0.39 
  14   0 -12    0.69    0.29 
 -14   0  12    0.61    0.27 
  13   0 -12    0.75    0.34 
 -13   0  12    1.11    0.29 
  12   0 -12    0.16    0.25 
 -12   0  12   -0.05    0.18 
  11   0 -12    0.67    0.36 
 -11   0  12    0.38    0.18 
  10   0 -12    1.20    0.36 
 -10   0  12    0.76    0.21 
   9   0 -12    7.99    0.69 
  -9   0  12    8.70    0.49 
   8   0 -12    0.49    0.17 
   8   0 -12    0.00    0.22 
  -8   0  12    0.15    0.13 
   7   0 -12   26.80    1.34 
   7   0 -12   26.46    1.13 
   6   0 -12    0.42    0.16 
   6   0 -12    0.89    0.26 
  -6   0  12    0.88    0.14 
   5   0 -12    2.83    0.30 
   5   0 -12    2.98    0.40 
  -5   0  12    3.10    0.21 
   4   0 -12    0.75    0.24 
   4   0 -12    0.81    0.17 
   3   0 -12   23.92    0.97 
   3   0 -12   21.96    1.13 
   2   0 -12   16.69    0.76 
   2   0 -12   16.64    0.91 
   1   0 -12   55.53    1.94 
   1   0 -12   55.71    2.24 
   0   0 -12    1.36    0.21 
  -1   0 -12   -0.10    0.07 
  -2   0 -12    2.05    0.26 
  -3   0 -12    5.56    0.39 
  -4   0 -12    1.13    0.21 
  -5   0 -12    0.51    0.16 
  -6   0 -12    4.67    0.37 
  -7   0 -12    0.80    0.20 
  -8   0 -12    0.48    0.16 
  -9   0 -12   10.68    0.62 
 -10   0 -12    0.23    0.16 
 -11   0 -12    4.24    0.43 
 -14   1  12    0.94    0.30 
 -13   1  12    1.09    0.28 
  12  -1 -12    3.50    0.60 
 -12   1  12    3.16    0.39 
  11  -1 -12    0.85    0.35 
 -11   1  12    1.33    0.26 
  10  -1 -12    5.25    0.64 
 -10   1  12    4.97    0.38 
   9  -1 -12    1.02    0.27 
   9  -1 -12    0.92    0.33 
  -9   1  12    1.09    0.20 
   8  -1 -12    6.17    0.61 
   8  -1 -12    5.82    0.52 
  -8   1  12    5.64    0.39 
   7  -1 -12    2.61    0.41 
   7  -1 -12    2.84    0.37 
  -7   1  12    2.16    0.26 
   6  -1 -12    0.89    0.22 
   6  -1 -12    0.71    0.23 
  -6   1  12    0.48    0.14 
   5  -1 -12    8.12    0.56 
   5  -1 -12    8.74    0.55 
  -5   1  12    8.00    0.45 
   4  -1 -12   17.32    0.85 
   4  -1 -12   18.66    0.92 
   3  -1 -12    8.62    0.52 
  -3   1  12    7.93    0.45 
   2  -1 -12    5.73    0.41 
   2  -1 -12    5.42    0.42 
  -2   1  12    5.50    0.37 
   1  -1 -12    3.26    0.34 
   1  -1 -12    3.95    0.36 
  -1   1  12    3.61    0.31 
   0  -1 -12   27.37    1.16 
   0  -1 -12   27.44    1.21 
   0   1  12   30.83    1.16 
  -1  -1 -12   12.66    0.68 
  -1  -1 -12   12.82    0.66 
  -2  -1 -12   10.61    0.55 
  -2  -1 -12   10.58    0.59 
  -3  -1 -12    8.05    0.49 
  -3  -1 -12    7.97    0.47 
  -4  -1 -12    0.64    0.17 
  -4  -1 -12    0.52    0.17 
  -5  -1 -12    0.60    0.17 
  -5  -1 -12    0.50    0.17 
  -6  -1 -12    1.51    0.25 
  -6  -1 -12    1.68    0.28 
  -7  -1 -12    1.74    0.29 
  -7  -1 -12    1.99    0.28 
  -8  -1 -12    0.46    0.17 
  -9  -1 -12    1.25    0.26 
 -10  -1 -12    0.89    0.22 
 -13   2  12    0.42    0.21 
 -12   2  12    0.05    0.18 
 -11   2  12    0.63    0.23 
 -10   2  12    3.76    0.39 
   9  -2 -12    7.61    0.62 
  -9   2  12    8.56    0.56 
   8  -2 -12    5.95    0.59 
   8  -2 -12    4.00    0.51 
  -8   2  12    5.48    0.43 
   7  -2 -12    3.85    0.46 
   7  -2 -12    3.81    0.48 
  -7   2  12    3.29    0.37 
   6  -2 -12    1.46    0.30 
  -6   2  12    1.72    0.28 
   5  -2 -12    3.06    0.40 
  -5   2  12    2.93    0.35 
   4  -2 -12    1.47    0.28 
  -4   2  12    1.39    0.28 
   3  -2 -12    7.84    0.55 
  -3   2  12    8.73    0.55 
   2  -2 -12   20.16    0.98 
  -2   2  12   21.76    0.98 
   1  -2 -12   26.74    1.18 
  -1   2  12   27.41    1.18 
   0  -2 -12    0.77    0.20 
   0   2  12    1.03    0.25 
  -1  -2 -12   11.17    0.61 
  -1  -2 -12    9.43    0.60 
  -2  -2 -12    5.18    0.40 
  -2  -2 -12    4.51    0.42 
  -3  -2 -12    3.75    0.38 
  -3  -2 -12    3.78    0.39 
  -4  -2 -12    3.46    0.39 
  -4  -2 -12    3.56    0.38 
  -5  -2 -12    1.88    0.31 
  -5  -2 -12    2.40    0.34 
  -6  -2 -12    2.73    0.38 
  -6  -2 -12    3.25    0.38 
  -7  -2 -12    0.54    0.22 
  -7  -2 -12    0.87    0.23 
  -8  -2 -12    0.17    0.15 
  -8  -2 -12    0.17    0.16 
  -9  -2 -12    1.77    0.33 
  -9  -2 -12    2.39    0.42 
 -10  -2 -12    1.01    0.33 
 -11  -2 -12    2.07    0.46 
 -12   3  12    0.31    0.22 
 -11   3  12    3.12    0.42 
 -10   3  12    0.97    0.29 
  -9   3  12    2.43    0.39 
   8  -3 -12    0.61    0.25 
  -8   3  12    0.29    0.20 
   7  -3 -12    0.30    0.20 
  -7   3  12    0.38    0.23 
   6  -3 -12    2.80    0.43 
  -6   3  12    3.34    0.44 
   5  -3 -12    1.84    0.36 
  -5   3  12    1.57    0.34 
   4  -3 -12    5.99    0.59 
  -4   3  12    5.62    0.55 
   3  -3 -12    9.00    0.65 
  -3   3  12    8.74    0.64 
   2  -3 -12    1.21    0.29 
  -2   3  12    0.88    0.28 
   1  -3 -12    2.58    0.39 
  -1   3  12    2.83    0.42 
   0  -3 -12    5.00    0.50 
   0   3  12    4.38    0.50 
  -1  -3 -12    3.71    0.44 
  -1  -3 -12    3.10    0.40 
  -2  -3 -12    1.59    0.31 
  -2  -3 -12    1.23    0.28 
  -3  -3 -12    3.50    0.43 
  -3  -3 -12    3.22    0.42 
  -4  -3 -12    1.74    0.34 
  -4  -3 -12    2.02    0.35 
  -5  -3 -12    3.31    0.43 
  -5  -3 -12    3.25    0.46 
  -6  -3 -12    0.46    0.21 
  -6  -3 -12    0.97    0.29 
  -7  -3 -12    0.06    0.21 
  -7  -3 -12    0.60    0.23 
  -8  -3 -12    1.07    0.27 
  -8  -3 -12    1.39    0.37 
  -9  -3 -12    1.88    0.43 
 -10  -3 -12    0.70    0.31 
 -10   4  12    0.68    0.29 
  -9   4  12    1.16    0.34 
  -8   4  12    2.85    0.46 
  -7   4  12   -0.16    0.20 
   6  -4 -12    0.05    0.17 
  -6   4  12    0.37    0.25 
   5  -4 -12    1.91    0.39 
  -5   4  12    1.47    0.36 
   4  -4 -12    0.37    0.20 
  -4   4  12    0.31    0.26 
   3  -4 -12    0.50    0.23 
  -3   4  12    1.12    0.33 
   2  -4 -12    0.91    0.27 
  -2   4  12    0.87    0.32 
   1  -4 -12    4.48    0.57 
  -1   4  12    4.06    0.56 
   0  -4 -12    2.39    0.43 
   0   4  12    2.64    0.47 
  -1  -4 -12    0.38    0.23 
   1   4  12    0.34    0.28 
  -2  -4 -12    1.52    0.34 
  -2  -4 -12    1.34    0.33 
  -3  -4 -12    0.30    0.19 
  -3  -4 -12    0.19    0.21 
  -4  -4 -12    0.46    0.23 
  -4  -4 -12    0.43    0.23 
  -5  -4 -12    0.66    0.29 
  -5  -4 -12    0.67    0.28 
  -6  -4 -12    0.83    0.28 
  -6  -4 -12    0.57    0.31 
  -7  -4 -12    2.41    0.48 
  -7  -4 -12    1.99    0.42 
  -8  -4 -12    1.59    0.41 
  -9  -4 -12    1.64    0.42 
  -8   5  12    1.02    0.35 
  -7   5  12    0.28    0.28 
  -6   5  12    0.41    0.29 
  -5   5  12    1.79    0.43 
  -4   5  12    3.01    0.53 
   3  -5 -12    2.26    0.46 
  -3   5  12    2.18    0.48 
   2  -5 -12    0.25    0.21 
  -2   5  12    0.30    0.28 
   1  -5 -12    0.27    0.23 
  -1   5  12    0.02    0.22 
   0  -5 -12    0.57    0.25 
   0   5  12    0.41    0.29 
  -1  -5 -12    0.25    0.22 
   1   5  12    0.40    0.26 
  -2  -5 -12    1.70    0.40 
  -2  -5 -12    1.32    0.37 
  -3  -5 -12    1.21    0.34 
  -3  -5 -12    1.31    0.35 
  -4  -5 -12    0.52    0.27 
  -4  -5 -12    0.50    0.29 
  -5  -5 -12    0.89    0.33 
  -5  -5 -12    0.81    0.36 
  -6  -5 -12    0.11    0.29 
   6   5 -13    0.14    0.26 
   5   5 -13    0.20    0.23 
   4   5 -13    1.30    0.42 
   3   5 -13    0.56    0.32 
   2   5 -13    1.12    0.40 
   1   5 -13    0.54    0.19 
   0   5 -13    0.48    0.20 
  -1   5 -13    0.02    0.15 
  -2   5 -13    0.00    0.15 
  -3   5 -13    1.80    0.34 
  -4   5 -13    0.26    0.18 
  -5   5 -13    0.03    0.17 
  10   4 -13    0.31    0.29 
   9   4 -13    1.07    0.36 
   8   4 -13    2.19    0.54 
   7   4 -13    1.42    0.44 
   6   4 -13    1.09    0.38 
   5   4 -13    2.53    0.55 
   4   4 -13    3.99    0.67 
   3   4 -13    0.96    0.34 
   3   4 -13    0.47    0.16 
   2   4 -13    0.16    0.13 
   1   4 -13    1.86    0.27 
   0   4 -13    1.41    0.25 
  -1   4 -13    0.03    0.12 
  -2   4 -13    0.79    0.21 
  -3   4 -13    2.64    0.36 
  -4   4 -13    0.52    0.18 
  -5   4 -13    0.45    0.19 
  -6   4 -13    0.95    0.25 
  -7   4 -13    0.35    0.18 
  -8   4 -13    0.67    0.23 
  11   3 -13    0.57    0.29 
  10   3 -13    6.44    0.85 
   9   3 -13    2.66    0.53 
   8   3 -13    0.48    0.27 
   7   3 -13    0.26    0.23 
   6   3 -13    1.31    0.37 
   5   3 -13    1.10    0.36 
   4   3 -13    0.84    0.17 
   4   3 -13    0.57    0.31 
   3   3 -13    2.36    0.50 
   3   3 -13    2.42    0.27 
   2   3 -13    1.80    0.25 
   1   3 -13    0.53    0.16 
   0   3 -13    7.18    0.46 
  -1   3 -13    3.12    0.34 
  -2   3 -13    5.36    0.41 
  -3   3 -13    1.27    0.24 
  -4   3 -13    1.69    0.28 
  -5   3 -13    1.80    0.30 
  -6   3 -13    3.88    0.44 
  -7   3 -13    0.14    0.16 
  -8   3 -13    2.10    0.35 
  -9   3 -13    1.04    0.27 
 -10   3 -13    0.09    0.18 
  12   2 -13    1.51    0.45 
  11   2 -13    2.02    0.46 
  10   2 -13    0.59    0.28 
   9   2 -13    1.27    0.38 
   8   2 -13    2.41    0.47 
   7   2 -13    1.63    0.38 
   6   2 -13    3.22    0.54 
   5   2 -13    1.18    0.20 
   5   2 -13    0.79    0.28 
   4   2 -13    6.22    0.40 
   4   2 -13    6.69    0.72 
   3   2 -13    1.41    0.21 
   3   2 -13    1.48    0.37 
   2   2 -13    1.66    0.38 
   2   2 -13    1.50    0.22 
   1   2 -13    0.47    0.14 
   0   2 -13    3.74    0.34 
  -1   2 -13    5.72    0.41 
  -2   2 -13   19.41    0.88 
  -3   2 -13    7.55    0.49 
  -4   2 -13    3.89    0.39 
  -5   2 -13    3.11    0.36 
  -6   2 -13    2.64    0.35 
  -7   2 -13    1.64    0.30 
  -8   2 -13    3.37    0.40 
  -9   2 -13    1.03    0.25 
 -10   2 -13    1.36    0.30 
 -11   2 -13    1.46    0.29 
  13   1 -13    0.62    0.31 
  12   1 -13    0.93    0.37 
  11   1 -13    1.53    0.43 
  10   1 -13    2.13    0.48 
   9   1 -13    3.38    0.55 
   8   1 -13    4.19    0.59 
   7   1 -13   11.39    0.83 
   6   1 -13    2.59    0.30 
   6   1 -13    3.33    0.51 
   5   1 -13    0.11    0.16 
   5   1 -13   -0.11    0.09 
   4   1 -13   11.25    0.81 
   4   1 -13   11.42    0.58 
   3   1 -13    9.80    0.52 
   3   1 -13    9.47    0.72 
   2   1 -13    1.13    0.20 
   2   1 -13    0.87    0.27 
   1   1 -13   19.70    0.86 
   0   1 -13   15.79    0.73 
  -1   1 -13    9.20    0.52 
  -2   1 -13    8.00    0.48 
  -3   1 -13    0.89    0.19 
  -4   1 -13    0.42    0.14 
  -5   1 -13    4.05    0.39 
  -6   1 -13    2.90    0.35 
  -7   1 -13    4.39    0.43 
  -8   1 -13    3.53    0.40 
  -9   1 -13    0.48    0.18 
 -10   1 -13    1.31    0.28 
 -11   1 -13    0.18    0.18 
 -12   1 -13    1.96    0.33 
  13   0 -13    0.18    0.26 
  12   0 -13    1.46    0.42 
  11   0 -13    0.40    0.28 
  10   0 -13   -0.02    0.22 
   9   0 -13    1.58    0.40 
   8   0 -13    0.51    0.23 
   7   0 -13    0.24    0.15 
   7   0 -13    0.17    0.20 
   6   0 -13   16.94    0.98 
   6   0 -13   16.97    0.82 
   5   0 -13    4.18    0.49 
   5   0 -13    3.70    0.36 
   4   0 -13    0.25    0.18 
   4   0 -13    0.32    0.13 
   3   0 -13    0.47    0.14 
   3   0 -13    0.39    0.21 
   2   0 -13    0.84    0.19 
   2   0 -13    0.60    0.23 
   1   0 -13   14.84    0.87 
   1   0 -13   15.21    0.72 
   0   0 -13   13.80    0.68 
  -1   0 -13   12.72    0.65 
  -2   0 -13    8.57    0.51 
  -3   0 -13    1.67    0.27 
  -4   0 -13    2.71    0.33 
  -5   0 -13    2.07    0.30 
  -6   0 -13    1.30    0.24 
  -7   0 -13    0.17    0.14 
  -8   0 -13    3.00    0.37 
  -9   0 -13    1.58    0.29 
 -10   0 -13   11.39    0.69 
 -11   0 -13    1.35    0.30 
  13  -1 -13    0.76    0.34 
 -13   1  13    0.59    0.26 
  12  -1 -13    0.76    0.31 
 -12   1  13    0.13    0.19 
  11  -1 -13    2.95    0.52 
 -11   1  13    1.17    0.26 
  10  -1 -13    2.80    0.52 
 -10   1  13    2.98    0.33 
   9  -1 -13    3.50    0.45 
   9  -1 -13    3.33    0.51 
  -9   1  13    3.44    0.33 
   8  -1 -13    4.82    0.50 
   8  -1 -13    5.05    0.57 
  -8   1  13    5.05    0.37 
   7  -1 -13   10.29    0.74 
   7  -1 -13   11.53    0.71 
  -7   1  13   12.01    0.58 
   6  -1 -13    1.68    0.30 
   6  -1 -13    1.98    0.34 
  -6   1  13    1.69    0.22 
   5  -1 -13    0.12    0.12 
   5  -1 -13   -0.09    0.13 
  -5   1  13    0.02    0.07 
   4  -1 -13   12.16    0.70 
   4  -1 -13   11.24    0.66 
  -4   1  13   11.05    0.56 
   3  -1 -13    9.60    0.58 
  -3   1  13   10.34    0.53 
   2  -1 -13    0.85    0.19 
   2  -1 -13    0.68    0.22 
   1  -1 -13   16.91    0.83 
   1  -1 -13   17.86    0.88 
   0  -1 -13   16.03    0.79 
  -1  -1 -13    9.33    0.56 
  -2  -1 -13    8.99    0.55 
  -3  -1 -13    0.70    0.19 
  -4  -1 -13    0.35    0.14 
  -5  -1 -13    4.03    0.39 
  -6  -1 -13    2.83    0.35 
  -7  -1 -13    4.03    0.41 
  -8  -1 -13    2.65    0.35 
  -9  -1 -13    0.35    0.19 
 -10  -1 -13    0.48    0.21 
 -13   2  13    0.84    0.27 
 -12   2  13    2.06    0.34 
 -11   2  13    2.63    0.37 
 -10   2  13    0.43    0.22 
   9  -2 -13    1.34    0.34 
  -9   2  13    1.08    0.26 
   8  -2 -13    2.37    0.41 
  -8   2  13    2.30    0.33 
   7  -2 -13    1.40    0.32 
  -7   2  13    1.69    0.30 
   6  -2 -13    3.38    0.44 
  -6   2  13    2.87    0.35 
   5  -2 -13    0.76    0.23 
  -5   2  13    1.07    0.25 
   4  -2 -13    5.23    0.51 
  -4   2  13    5.41    0.44 
   3  -2 -13    1.31    0.27 
  -3   2  13    1.89    0.32 
   2  -2 -13    1.19    0.27 
  -2   2  13    2.02    0.30 
   1  -2 -13    0.51    0.16 
  -1   2  13    0.38    0.18 
   0  -2 -13    3.57    0.40 
   0   2  13    4.20    0.41 
  -1  -2 -13    4.54    0.45 
   1   2  13    5.20    0.47 
  -2  -2 -13   15.64    0.80 
  -2  -2 -13   15.98    0.82 
  -3  -2 -13    5.66    0.45 
  -3  -2 -13    5.78    0.45 
  -4  -2 -13    4.44    0.44 
  -4  -2 -13    3.43    0.40 
  -5  -2 -13    3.01    0.38 
  -5  -2 -13    2.75    0.38 
  -6  -2 -13    2.98    0.39 
  -6  -2 -13    2.39    0.36 
  -7  -2 -13    1.29    0.28 
  -7  -2 -13    1.32    0.29 
  -8  -2 -13    3.19    0.41 
  -9  -2 -13    1.33    0.30 
 -11   3  13    0.87    0.26 
 -10   3  13   10.55    0.73 
  -9   3  13    1.90    0.34 
   8  -3 -13    1.19    0.34 
  -8   3  13    0.64    0.25 
   7  -3 -13    0.25    0.20 
  -7   3  13    0.51    0.23 
   6  -3 -13    1.59    0.36 
  -6   3  13    1.61    0.34 
   5  -3 -13    1.41    0.32 
  -5   3  13    1.30    0.32 
   4  -3 -13    1.30    0.30 
  -4   3  13    0.65    0.26 
   3  -3 -13    2.22    0.40 
  -3   3  13    2.69    0.42 
   2  -3 -13    1.36    0.30 
  -2   3  13    1.50    0.32 
   1  -3 -13    0.20    0.17 
  -1   3  13    0.24    0.21 
   0  -3 -13    6.99    0.61 
   0   3  13    6.69    0.61 
  -1  -3 -13    2.88    0.40 
   1   3  13    2.72    0.44 
  -2  -3 -13    5.11    0.52 
  -2  -3 -13    5.85    0.55 
  -3  -3 -13    0.91    0.24 
  -3  -3 -13    1.34    0.31 
  -4  -3 -13    1.76    0.35 
  -4  -3 -13    2.47    0.39 
  -5  -3 -13    2.72    0.44 
  -5  -3 -13    2.15    0.38 
  -6  -3 -13    3.75    0.51 
  -6  -3 -13    3.72    0.47 
  -7  -3 -13    0.14    0.24 
  -7  -3 -13    0.29    0.20 
  -8  -3 -13    2.30    0.47 
  -8  -3 -13    1.87    0.37 
  -9  -3 -13    1.08    0.40 
 -10  -3 -13    0.28    0.29 
 -10   4  13    0.20    0.24 
  -9   4  13    1.70    0.40 
  -8   4  13    1.47    0.37 
  -7   4  13    1.46    0.38 
   6  -4 -13    1.48    0.39 
  -6   4  13    1.06    0.32 
   5  -4 -13    1.99    0.40 
  -5   4  13    2.49    0.45 
   4  -4 -13    3.49    0.53 
  -4   4  13    3.76    0.53 
   3  -4 -13    0.35    0.19 
  -3   4  13    0.07    0.22 
   2  -4 -13   -0.04    0.15 
  -2   4  13    0.41    0.26 
   1  -4 -13    1.91    0.39 
  -1   4  13    2.25    0.43 
   0  -4 -13    1.47    0.36 
   0   4  13    1.58    0.40 
  -1  -4 -13    0.26    0.19 
   1   4  13   -0.10    0.24 
  -2  -4 -13    1.21    0.32 
  -2  -4 -13    0.96    0.29 
  -3  -4 -13    3.19    0.49 
  -3  -4 -13    2.83    0.47 
  -4  -4 -13    0.60    0.24 
  -4  -4 -13    0.12    0.24 
  -5  -4 -13    1.22    0.33 
  -5  -4 -13    0.56    0.29 
  -6  -4 -13    1.08    0.30 
  -6  -4 -13    0.64    0.31 
  -7  -4 -13    0.47    0.31 
  -7  -4 -13    0.28    0.27 
  -8  -4 -13    0.30    0.33 
  -6   5  13   -0.24    0.21 
  -5   5  13    0.19    0.27 
   4  -5 -13    0.76    0.31 
  -4   5  13    0.98    0.36 
   3  -5 -13    0.67    0.27 
  -3   5  13    0.69    0.33 
   2  -5 -13    1.27    0.36 
  -2   5  13    1.31    0.39 
   1  -5 -13    0.31    0.21 
  -1   5  13    0.00    0.26 
   0  -5 -13    0.53    0.29 
   0   5  13    0.50    0.28 
  -1  -5 -13    0.12    0.21 
   1   5  13   -0.19    0.25 
  -2  -5 -13   -0.12    0.20 
   2   5  13   -0.25    0.23 
  -3  -5 -13    1.59    0.39 
  -3  -5 -13    1.81    0.42 
  -4  -5 -13    0.32    0.24 
  -4  -5 -13    0.34    0.27 
  -5  -5 -13    0.00    0.25 
  -5  -5 -13    0.43    0.28 
   5   5 -14    1.07    0.40 
   4   5 -14    0.66    0.34 
   3   5 -14    0.63    0.37 
   2   5 -14    0.59    0.31 
   1   5 -14    1.02    0.24 
   0   5 -14   -0.01    0.14 
  -1   5 -14    0.45    0.18 
  -2   5 -14    0.49    0.20 
  -3   5 -14    0.85    0.25 
   9   4 -14    1.25    0.40 
   8   4 -14    0.99    0.41 
   7   4 -14    0.28    0.26 
   6   4 -14    0.19    0.23 
   5   4 -14    0.73    0.31 
   4   4 -14    3.17    0.62 
   3   4 -14    1.87    0.49 
   2   4 -14    0.43    0.32 
   2   4 -14    0.49    0.16 
   1   4 -14    0.35    0.16 
   0   4 -14    0.64    0.18 
  -1   4 -14    0.57    0.19 
  -2   4 -14    0.55    0.18 
  -3   4 -14    0.15    0.13 
  -4   4 -14    0.82    0.23 
  -5   4 -14    0.58    0.19 
  -6   4 -14    0.33    0.17 
  -7   4 -14    2.31    0.37 
  11   3 -14    0.79    0.36 
  10   3 -14    0.77    0.32 
   9   3 -14    1.23    0.39 
   8   3 -14    0.82    0.35 
   7   3 -14    2.56    0.53 
   6   3 -14    0.86    0.34 
   5   3 -14    6.34    0.78 
   4   3 -14    1.84    0.25 
   4   3 -14    1.22    0.41 
   3   3 -14    0.20    0.11 
   3   3 -14    0.23    0.23 
   2   3 -14    0.92    0.19 
   2   3 -14    0.61    0.31 
   1   3 -14    0.82    0.19 
   0   3 -14    3.95    0.38 
  -1   3 -14    6.19    0.45 
  -2   3 -14    2.06    0.31 
  -3   3 -14    7.82    0.53 
  -4   3 -14    2.19    0.33 
  -5   3 -14    0.82    0.21 
  -6   3 -14    0.47    0.18 
  -7   3 -14    2.20    0.34 
  -8   3 -14    0.36    0.18 
  -9   3 -14    2.46    0.37 
  12   2 -14    0.15    0.28 
  11   2 -14    2.39    0.51 
  10   2 -14    3.74    0.64 
   9   2 -14    2.77    0.52 
   8   2 -14    1.76    0.41 
   7   2 -14    1.01    0.33 
   6   2 -14    2.37    0.48 
   5   2 -14    1.33    0.37 
   5   2 -14    1.38    0.22 
   4   2 -14    1.51    0.39 
   4   2 -14    1.57    0.23 
   3   2 -14    1.96    0.26 
   3   2 -14    1.96    0.44 
   2   2 -14    4.33    0.61 
   2   2 -14    4.51    0.34 
   1   2 -14    5.79    0.39 
   0   2 -14    1.98    0.27 
  -1   2 -14    4.51    0.37 
  -2   2 -14    2.34    0.31 
  -3   2 -14    1.97    0.30 
  -4   2 -14    1.84    0.30 
  -5   2 -14    4.12    0.43 
  -6   2 -14    4.77    0.47 
  -7   2 -14    1.41    0.28 
  -8   2 -14    0.54    0.20 
  -9   2 -14    0.16    0.17 
 -10   2 -14    1.66    0.31 
  12   1 -14    1.45    0.43 
  11   1 -14    0.83    0.32 
  10   1 -14   -0.07    0.24 
   9   1 -14    2.45    0.49 
   8   1 -14    3.00    0.53 
   7   1 -14   12.47    0.90 
   6   1 -14   12.01    0.64 
   6   1 -14   11.29    0.85 
   5   1 -14    6.73    0.70 
   5   1 -14    7.26    0.46 
   4   1 -14    0.58    0.26 
   4   1 -14    0.68    0.18 
   3   1 -14   10.13    0.55 
   3   1 -14    9.29    0.73 
   2   1 -14    9.99    0.54 
   2   1 -14    8.42    0.69 
   1   1 -14    2.83    0.32 
   1   1 -14    3.38    0.49 
   0   1 -14   11.51    0.62 
  -1   1 -14    1.09    0.20 
  -2   1 -14    0.28    0.12 
  -3   1 -14    2.05    0.29 
  -4   1 -14    0.95    0.21 
  -5   1 -14    3.40    0.37 
  -6   1 -14    0.28    0.15 
  -7   1 -14    0.46    0.18 
  -8   1 -14    1.70    0.30 
  -9   1 -14    4.02    0.44 
 -10   1 -14    1.14    0.26 
 -11   1 -14    4.04    0.45 
  13   0 -14   -0.07    0.20 
  12   0 -14    1.41    0.42 
  11   0 -14    3.63    0.62 
  10   0 -14    1.50    0.42 
   9   0 -14    8.74    0.76 
   8   0 -14    6.59    0.67 
   7   0 -14    5.47    0.61 
   7   0 -14    7.71    0.53 
   6   0 -14    4.12    0.52 
   6   0 -14    4.18    0.42 
   5   0 -14   20.89    0.96 
   5   0 -14   20.72    1.12 
   4   0 -14   18.48    0.89 
   4   0 -14   20.37    1.09 
   3   0 -14    2.36    0.30 
   3   0 -14    2.28    0.38 
   2   0 -14    6.58    0.54 
   2   0 -14    5.91    0.43 
   1   0 -14    0.81    0.19 
   1   0 -14    0.87    0.26 
   0   0 -14    2.18    0.37 
   0   0 -14    1.47    0.24 
  -1   0 -14    0.06    0.09 
  -2   0 -14    0.01    0.07 
  -3   0 -14    1.84    0.27 
  -4   0 -14    3.58    0.38 
  -5   0 -14    0.86    0.21 
  -6   0 -14    0.82    0.23 
  -7   0 -14    3.36    0.40 
  -8   0 -14    3.89    0.44 
  -9   0 -14    1.78    0.32 
 -10   0 -14    0.07    0.16 
 -11   0 -14    1.35    0.30 
  12  -1 -14    1.01    0.37 
  11  -1 -14    0.42    0.32 
  10  -1 -14    0.08    0.27 
   9  -1 -14    3.02    0.52 
   8  -1 -14    2.95    0.42 
   8  -1 -14    2.94    0.47 
   7  -1 -14   11.66    0.73 
   7  -1 -14   11.47    0.78 
   6  -1 -14   10.10    0.66 
   5  -1 -14    7.47    0.56 
   5  -1 -14    7.08    0.53 
   4  -1 -14    0.62    0.19 
   4  -1 -14    0.52    0.22 
   3  -1 -14    4.19    0.42 
   2  -1 -14    8.85    0.56 
   1  -1 -14    3.25    0.37 
   0  -1 -14    8.61    0.55 
  -1  -1 -14    0.89    0.20 
  -2  -1 -14    0.29    0.12 
  -3  -1 -14    1.97    0.31 
  -4  -1 -14    0.96    0.23 
  -5  -1 -14    3.83    0.41 
  -6  -1 -14    0.26    0.15 
  -7  -1 -14    0.75    0.22 
  -8  -1 -14    1.94    0.32 
  -9  -1 -14    4.54    0.47 
 -10  -1 -14    1.25    0.28 
 -12   2  14    0.34    0.22 
 -11   2  14    2.09    0.34 
 -10   2  14    4.03    0.43 
   9  -2 -14    3.13    0.49 
  -9   2  14    3.31    0.39 
   8  -2 -14    2.22    0.42 
  -8   2  14    1.84    0.30 
   7  -2 -14    0.27    0.21 
  -7   2  14    0.45    0.21 
   6  -2 -14    3.34    0.46 
  -6   2  14    2.64    0.35 
   5  -2 -14    0.72    0.23 
  -5   2  14    1.44    0.28 
   4  -2 -14    1.27    0.27 
  -4   2  14    1.76    0.31 
   3  -2 -14    1.45    0.30 
  -3   2  14    2.09    0.33 
   2  -2 -14    4.00    0.45 
  -2   2  14    4.94    0.47 
   1  -2 -14    6.42    0.50 
  -1   2  14    5.81    0.51 
   0  -2 -14    2.33    0.35 
   0   2  14    1.16    0.30 
  -1  -2 -14    4.80    0.47 
  -2  -2 -14    1.80    0.32 
  -3  -2 -14    1.86    0.31 
  -4  -2 -14    1.27    0.28 
  -5  -2 -14    5.36    0.51 
  -6  -2 -14    3.96    0.46 
  -7  -2 -14    1.01    0.26 
  -8  -2 -14    0.28    0.20 
  -9  -2 -14    0.19    0.19 
 -11   3  14    0.33    0.23 
 -10   3  14    1.16    0.32 
   9  -3 -14    2.25    0.47 
  -9   3  14    0.87    0.28 
   8  -3 -14    1.01    0.31 
  -8   3  14    0.82    0.29 
   7  -3 -14    2.72    0.49 
  -7   3  14    2.94    0.42 
   6  -3 -14    0.62    0.26 
  -6   3  14    1.00    0.30 
   5  -3 -14    5.54    0.63 
  -5   3  14    6.68    0.60 
   4  -3 -14    1.31    0.32 
  -4   3  14    1.68    0.35 
   3  -3 -14    0.04    0.14 
  -3   3  14    0.49    0.23 
   2  -3 -14    0.49    0.22 
  -2   3  14    0.48    0.25 
   1  -3 -14    0.60    0.25 
  -1   3  14    0.76    0.27 
   0  -3 -14    3.47    0.47 
   0   3  14    4.07    0.50 
  -1  -3 -14    6.08    0.58 
   1   3  14    5.80    0.59 
  -2  -3 -14    1.95    0.34 
  -2  -3 -14    1.28    0.30 
  -3  -3 -14    6.75    0.63 
  -3  -3 -14    7.63    0.58 
  -4  -3 -14    2.18    0.39 
  -4  -3 -14    1.84    0.36 
  -5  -3 -14    0.73    0.27 
  -5  -3 -14    0.87    0.30 
  -6  -3 -14    0.45    0.24 
  -6  -3 -14    0.64    0.30 
  -7  -3 -14    2.05    0.38 
  -8  -3 -14    0.25    0.24 
  -9   4  14    1.21    0.37 
  -8   4  14    0.87    0.32 
   7  -4 -14    0.48    0.28 
  -7   4  14    0.46    0.28 
   6  -4 -14    0.07    0.21 
  -6   4  14    0.33    0.28 
   5  -4 -14    0.44    0.24 
  -5   4  14    0.16    0.28 
   4  -4 -14    3.04    0.51 
  -4   4  14    3.10    0.51 
   3  -4 -14    1.36    0.35 
  -3   4  14    1.58    0.39 
   2  -4 -14    0.78    0.28 
  -2   4  14    0.53    0.29 
   1  -4 -14    0.70    0.26 
  -1   4  14    0.36    0.27 
   0  -4 -14    1.17    0.31 
   0   4  14    0.86    0.33 
  -1  -4 -14    0.58    0.25 
   1   4  14    0.67    0.32 
  -2  -4 -14    0.27    0.21 
   2   4  14    0.21    0.29 
  -3  -4 -14    0.68    0.27 
  -3  -4 -14    0.32    0.23 
  -4  -4 -14    1.17    0.34 
  -4  -4 -14    1.32    0.35 
  -5  -4 -14    0.78    0.26 
  -5  -4 -14    0.31    0.26 
  -6  -4 -14    0.72    0.28 
  -6  -4 -14    0.58    0.31 
  -7  -4 -14    2.04    0.44 
  -7  -4 -14    1.48    0.43 
  -5   5  14    0.97    0.37 
   4  -5 -14    0.29    0.22 
  -4   5  14   -0.01    0.27 
   3  -5 -14    0.66    0.34 
  -3   5  14    0.15    0.30 
   2  -5 -14    0.45    0.23 
  -2   5  14    0.66    0.33 
   1  -5 -14    0.94    0.30 
  -1   5  14    0.76    0.36 
   0  -5 -14    0.19    0.20 
   0   5  14   -0.04    0.23 
  -1  -5 -14    0.82    0.31 
   1   5  14    0.10    0.23 
  -2  -5 -14    0.49    0.27 
   2   5  14    0.67    0.34 
  -3  -5 -14    0.29    0.29 
  -3  -5 -14    0.63    0.30 
   1   5 -15   -0.13    0.16 
   7   4 -15    0.73    0.33 
   6   4 -15    0.54    0.33 
   5   4 -15    0.75    0.35 
   4   4 -15    0.31    0.30 
   3   4 -15    0.02    0.23 
   2   4 -15    0.52    0.17 
   2   4 -15   -0.20    0.22 
   1   4 -15    0.16    0.15 
   0   4 -15    0.49    0.18 
  -1   4 -15    0.23    0.14 
  -2   4 -15    1.50    0.28 
  -3   4 -15    0.90    0.22 
  -4   4 -15    0.74    0.23 
  -5   4 -15    0.39    0.21 
  10   3 -15    0.66    0.32 
   9   3 -15    1.57    0.42 
   8   3 -15    0.19    0.25 
   7   3 -15    0.26    0.26 
   6   3 -15    0.37    0.25 
   5   3 -15   -0.05    0.18 
   4   3 -15    3.57    0.62 
   3   3 -15    4.67    0.69 
   3   3 -15    4.54    0.36 
   2   3 -15    1.91    0.28 
   2   3 -15    1.38    0.42 
   1   3 -15    0.43    0.15 
   0   3 -15    0.17    0.15 
  -1   3 -15    2.20    0.32 
  -2   3 -15    1.96    0.30 
  -3   3 -15    0.26    0.15 
  -4   3 -15    1.79    0.30 
  -5   3 -15    4.01    0.44 
  -6   3 -15    2.10    0.34 
  -7   3 -15    1.68    0.31 
  -8   3 -15    0.44    0.23 
  11   2 -15    0.78    0.34 
  10   2 -15    0.18    0.26 
   9   2 -15    0.49    0.28 
   8   2 -15    0.68    0.31 
   7   2 -15    5.59    0.74 
   6   2 -15    5.87    0.75 
   5   2 -15    0.05    0.23 
   5   2 -15    0.29    0.15 
   4   2 -15    2.14    0.48 
   4   2 -15    2.50    0.30 
   3   2 -15    1.88    0.43 
   3   2 -15    1.82    0.26 
   2   2 -15    1.49    0.23 
   2   2 -15    1.05    0.34 
   1   2 -15    3.59    0.36 
   0   2 -15   10.15    0.59 
  -1   2 -15    1.65    0.26 
  -2   2 -15   13.65    0.73 
  -3   2 -15    0.80    0.21 
  -4   2 -15    0.81    0.23 
  -5   2 -15    0.26    0.15 
  -6   2 -15    3.52    0.43 
  -7   2 -15    2.89    0.40 
  -8   2 -15    4.65    0.50 
  -9   2 -15    2.25    0.36 
  12   1 -15    1.02    0.38 
  11   1 -15    1.43    0.45 
  10   1 -15    1.77    0.46 
   9   1 -15    2.99    0.52 
   8   1 -15    1.14    0.35 
   7   1 -15    0.28    0.23 
   6   1 -15    4.99    0.64 
   6   1 -15    4.47    0.41 
   5   1 -15    1.38    0.25 
   5   1 -15    1.45    0.37 
   4   1 -15    8.05    0.69 
   4   1 -15    7.32    0.49 
   3   1 -15    4.46    0.36 
   3   1 -15    5.64    0.63 
   2   1 -15    4.33    0.38 
   2   1 -15    4.28    0.57 
   1   1 -15    7.91    0.67 
   1   1 -15    6.82    0.46 
   0   1 -15    0.61    0.17 
  -1   1 -15    0.80    0.20 
  -2   1 -15    0.40    0.16 
  -3   1 -15    1.94    0.29 
  -4   1 -15    0.82    0.21 
  -5   1 -15    1.20    0.24 
  -6   1 -15    2.53    0.34 
  -7   1 -15    0.94    0.24 
  -8   1 -15    0.43    0.18 
  -9   1 -15    1.83    0.34 
 -10   1 -15    1.38    0.29 
  12   0 -15    0.60    0.36 
  11   0 -15    0.48    0.29 
  10   0 -15    3.31    0.59 
   9   0 -15    0.86    0.34 
   8   0 -15   14.83    0.99 
   7   0 -15    0.65    0.26 
   7   0 -15    0.65    0.23 
   6   0 -15    0.43    0.23 
   6   0 -15    0.56    0.18 
   5   0 -15    3.91    0.50 
   5   0 -15    2.64    0.34 
   4   0 -15    3.37    0.37 
   4   0 -15    4.31    0.52 
   3   0 -15    1.48    0.34 
   3   0 -15    1.36    0.25 
   2   0 -15   17.21    0.97 
   2   0 -15   16.39    0.83 
   1   0 -15    2.95    0.35 
   1   0 -15    3.40    0.44 
   0   0 -15    7.04    0.48 
   0   0 -15    7.35    0.60 
  -1   0 -15    0.35    0.14 
  -2   0 -15    1.05    0.21 
  -3   0 -15    0.24    0.13 
  -4   0 -15    3.47    0.39 
  -5   0 -15    0.12    0.14 
  -6   0 -15    0.28    0.16 
  -7   0 -15    2.03    0.34 
  -8   0 -15    3.55    0.43 
  -9   0 -15    0.88    0.24 
 -10   0 -15    1.30    0.28 
  12  -1 -15    1.65    0.44 
  11  -1 -15    1.76    0.48 
  10  -1 -15    3.17    0.57 
   9  -1 -15    2.79    0.53 
   8  -1 -15    1.69    0.38 
   8  -1 -15    0.94    0.26 
   7  -1 -15    0.26    0.20 
   7  -1 -15    0.28    0.25 
   6  -1 -15    4.03    0.46 
   5  -1 -15    0.76    0.22 
   4  -1 -15    7.42    0.54 
   3  -1 -15    5.27    0.49 
   2  -1 -15    4.27    0.43 
   1  -1 -15    7.49    0.52 
   0  -1 -15    0.20    0.13 
  -1  -1 -15    0.81    0.21 
  -2  -1 -15    0.31    0.15 
  -3  -1 -15    2.88    0.37 
  -4  -1 -15    1.47    0.29 
  -5  -1 -15    1.16    0.28 
  -6  -1 -15    4.20    0.45 
  -7  -1 -15    1.13    0.26 
  -8  -1 -15    0.41    0.19 
  -9  -1 -15    1.34    0.28 
 -10  -1 -15    2.13    0.35 
   9  -2 -15    0.19    0.24 
   8  -2 -15    1.36    0.35 
   7  -2 -15    4.79    0.58 
   6  -2 -15    6.15    0.62 
   5  -2 -15   -0.04    0.13 
   4  -2 -15    2.18    0.38 
   3  -2 -15    1.67    0.33 
   2  -2 -15    1.59    0.32 
   1  -2 -15    3.03    0.42 
   0  -2 -15    9.55    0.64 
  -1  -2 -15    1.74    0.32 
  -2  -2 -15   10.39    0.68 
  -3  -2 -15    0.67    0.21 
  -4  -2 -15    1.25    0.28 
  -5  -2 -15    0.26    0.16 
  -6  -2 -15    1.96    0.35 
  -7  -2 -15    2.80    0.41 
  -8  -2 -15    3.50    0.47 
  -9  -2 -15    1.62    0.34 
 -10   3  15    0.85    0.30 
   9  -3 -15    3.03    0.53 
  -9   3  15    1.75    0.36 
   8  -3 -15    0.49    0.28 
  -8   3  15    0.11    0.23 
   7  -3 -15    0.44    0.24 
  -7   3  15    0.18    0.22 
   6  -3 -15    0.73    0.28 
  -6   3  15    0.72    0.28 
   5  -3 -15    0.50    0.23 
  -5   3  15   -0.13    0.20 
   4  -3 -15    4.34    0.57 
  -4   3  15    4.43    0.53 
   3  -3 -15    4.45    0.55 
  -3   3  15    3.55    0.48 
   2  -3 -15    1.99    0.37 
  -2   3  15    2.29    0.41 
   1  -3 -15    0.43    0.22 
  -1   3  15    0.55    0.29 
   0  -3 -15    0.15    0.17 
   0   3  15   -0.21    0.20 
  -1  -3 -15    1.96    0.37 
  -2  -3 -15    2.38    0.41 
  -3  -3 -15    0.44    0.22 
  -4  -3 -15    2.35    0.41 
  -5  -3 -15    4.21    0.54 
  -6  -3 -15    2.64    0.45 
  -7  -3 -15    1.80    0.38 
  -8  -3 -15   -0.07    0.20 
   7  -4 -15    1.48    0.40 
  -7   4  15    1.00    0.33 
   6  -4 -15    0.47    0.28 
  -6   4  15    0.35    0.27 
   5  -4 -15    0.51    0.28 
  -5   4  15    0.56    0.31 
   4  -4 -15   -0.07    0.18 
  -4   4  15   -0.11    0.25 
   3  -4 -15    0.71    0.30 
  -3   4  15    1.36    0.36 
   2  -4 -15    0.31    0.22 
  -2   4  15    0.23    0.27 
   1  -4 -15   -0.21    0.15 
  -1   4  15    0.15    0.27 
   0  -4 -15    0.29    0.21 
   0   4  15    0.11    0.25 
  -1  -4 -15    0.04    0.20 
   1   4  15    0.16    0.26 
  -2  -4 -15    1.70    0.40 
   2   4  15    1.50    0.42 
  -3  -4 -15    0.98    0.33 
  -3  -4 -15    0.82    0.28 
  -4  -4 -15    0.61    0.34 
  -4  -4 -15    1.09    0.33 
  -5  -4 -15    0.08    0.28 
  -5  -4 -15    0.30    0.24 
  -2   5  15    0.02    0.28 
  -1   5  15    0.28    0.31 
   0   5  15    0.28    0.31 
   6   4 -16    0.67    0.33 
   5   4 -16    0.49    0.29 
   4   4 -16    0.35    0.27 
   3   4 -16    1.46    0.46 
   2   4 -16    0.99    0.24 
   2   4 -16    0.85    0.34 
   1   4 -16    0.59    0.20 
   0   4 -16    0.26    0.17 
  -1   4 -16    1.12    0.25 
  -2   4 -16    0.11    0.17 
  -3   4 -16    1.01    0.24 
  -4   4 -16    1.26    0.29 
   9   3 -16    0.90    0.42 
   8   3 -16    2.35    0.51 
   7   3 -16    3.18    0.61 
   6   3 -16    0.30    0.27 
   5   3 -16    1.12    0.40 
   4   3 -16    0.45    0.28 
   3   3 -16    0.22    0.24 
   3   3 -16    0.11    0.13 
   2   3 -16   -0.02    0.21 
   2   3 -16    0.15    0.14 
   1   3 -16    1.32    0.24 
   0   3 -16    0.84    0.22 
  -1   3 -16    3.98    0.43 
  -2   3 -16    4.34    0.45 
  -3   3 -16    0.35    0.16 
  -4   3 -16    0.38    0.17 
  -5   3 -16    1.26    0.27 
  -6   3 -16    2.16    0.38 
  -7   3 -16    0.74    0.25 
  10   2 -16    1.74    0.45 
   9   2 -16    0.98    0.36 
   8   2 -16    0.58    0.28 
   7   2 -16    2.12    0.47 
   6   2 -16    3.53    0.61 
   5   2 -16    3.51    0.61 
   4   2 -16    0.98    0.34 
   4   2 -16    0.94    0.21 
   3   2 -16    3.03    0.35 
   3   2 -16    3.93    0.62 
   2   2 -16    2.76    0.34 
   2   2 -16    2.84    0.53 
   1   2 -16    2.65    0.52 
   1   2 -16    2.74    0.34 
   0   2 -16    2.11    0.31 
  -1   2 -16    0.65    0.19 
  -2   2 -16    2.04    0.30 
  -3   2 -16    4.91    0.46 
  -4   2 -16    2.31    0.34 
  -5   2 -16    5.11    0.50 
  -6   2 -16    1.54    0.31 
  -7   2 -16    0.62    0.22 
  -8   2 -16    0.40    0.22 
  11   1 -16    0.86    0.33 
  10   1 -16    0.79    0.36 
   9   1 -16    2.51    0.51 
   8   1 -16    0.86    0.32 
   7   1 -16    0.49    0.26 
   6   1 -16    2.71    0.35 
   6   1 -16    3.53    0.55 
   5   1 -16    3.56    0.57 
   5   1 -16    3.72    0.40 
   4   1 -16    0.71    0.20 
   4   1 -16    0.77    0.29 
   3   1 -16    1.07    0.22 
   3   1 -16    1.24    0.33 
   2   1 -16    0.33    0.15 
   2   1 -16    0.68    0.26 
   1   1 -16    2.96    0.35 
   1   1 -16    4.41    0.57 
   0   1 -16    4.51    0.42 
  -1   1 -16    6.84    0.50 
  -2   1 -16    3.47    0.40 
  -3   1 -16    3.20    0.38 
  -4   1 -16   -0.03    0.11 
  -5   1 -16    0.19    0.14 
  -6   1 -16    1.06    0.25 
  -7   1 -16    3.57    0.43 
  -8   1 -16    1.51    0.30 
  -9   1 -16    3.32    0.44 
  11   0 -16    2.15    0.47 
  10   0 -16    1.19    0.42 
   9   0 -16    1.33    0.40 
   8   0 -16    0.15    0.23 
   7   0 -16    6.67    0.54 
   7   0 -16    7.09    0.72 
   6   0 -16    4.40    0.47 
   6   0 -16    4.16    0.55 
   5   0 -16    2.91    0.40 
   5   0 -16    2.71    0.44 
   4   0 -16    0.74    0.22 
   4   0 -16    1.07    0.31 
   3   0 -16    1.14    0.30 
   3   0 -16    0.93    0.22 
   2   0 -16    4.47    0.43 
   2   0 -16    4.02    0.50 
   1   0 -16    2.31    0.40 
   1   0 -16    1.69    0.29 
   0   0 -16    2.80    0.35 
   0   0 -16    2.61    0.45 
  -1   0 -16    0.14    0.12 
  -2   0 -16    0.22    0.14 
  -3   0 -16    0.26    0.16 
  -4   0 -16    0.19    0.12 
  -5   0 -16    4.67    0.46 
  -6   0 -16    1.54    0.29 
  -7   0 -16    0.27    0.16 
  -8   0 -16    0.17    0.16 
  -9   0 -16    0.74    0.25 
   8  -1 -16    0.44    0.24 
   7  -1 -16    0.58    0.23 
   6  -1 -16    2.29    0.38 
   5  -1 -16    3.61    0.46 
   4  -1 -16    0.87    0.23 
   3  -1 -16    1.16    0.26 
   2  -1 -16    0.68    0.21 
   1  -1 -16    3.88    0.44 
   0  -1 -16    4.49    0.47 
  -1  -1 -16    6.44    0.51 
  -2  -1 -16    3.40    0.42 
  -3  -1 -16    2.95    0.40 
  -4  -1 -16    0.17    0.15 
  -5  -1 -16    0.05    0.15 
  -6  -1 -16    1.49    0.30 
  -7  -1 -16    2.77    0.41 
  -8  -1 -16    1.65    0.34 
  -9  -1 -16    3.16    0.44 
   9  -2 -16    2.04    0.45 
   8  -2 -16    0.09    0.23 
   7  -2 -16    2.54    0.46 
   6  -2 -16    2.90    0.45 
   5  -2 -16    3.85    0.51 
   4  -2 -16    0.71    0.23 
   3  -2 -16    3.61    0.47 
   2  -2 -16    3.06    0.44 
   1  -2 -16    2.29    0.38 
   0  -2 -16    1.67    0.31 
  -1  -2 -16    0.69    0.22 
  -2  -2 -16    1.81    0.33 
  -3  -2 -16    4.58    0.51 
  -4  -2 -16    2.70    0.41 
  -5  -2 -16    4.27    0.50 
  -6  -2 -16    2.07    0.37 
  -7  -2 -16    0.27    0.19 
  -8  -2 -16    0.32    0.18 
   9  -3 -16    0.33    0.30 
   8  -3 -16    2.79    0.53 
   7  -3 -16    3.35    0.54 
   6  -3 -16    0.32    0.24 
   5  -3 -16    0.57    0.25 
   4  -3 -16    0.66    0.29 
   3  -3 -16    0.11    0.15 
   2  -3 -16    0.47    0.20 
   1  -3 -16    0.94    0.26 
   0  -3 -16    0.75    0.25 
  -1  -3 -16    3.50    0.49 
  -2  -3 -16    3.99    0.53 
  -3  -3 -16    0.39    0.22 
  -4  -3 -16   -0.13    0.15 
  -5  -3 -16    1.15    0.32 
  -6  -3 -16    1.88    0.40 
   6  -4 -16    0.29    0.24 
  -6   4  16    0.00    0.32 
   5  -4 -16    0.22    0.26 
  -5   4  16    0.30    0.31 
   4  -4 -16    0.19    0.23 
  -4   4  16    0.35    0.34 
   3  -4 -16    1.52    0.37 
  -3   4  16    1.31    0.42 
   2  -4 -16    0.85    0.32 
   1  -4 -16    0.75    0.32 
   0  -4 -16   -0.07    0.19 
  -1  -4 -16    1.67    0.41 
  -2  -4 -16    0.21    0.22 
  -3  -4 -16    1.40    0.36 
  -4  -4 -16    1.69    0.38 
   3   4 -17    0.44    0.40 
   2   4 -17    0.30    0.35 
   1   4 -17    1.19    0.27 
   1   4 -17    1.45    0.42 
   0   4 -17    2.07    0.35 
  -1   4 -17    0.05    0.16 
   7   3 -17    1.56    0.47 
   6   3 -17    2.92    0.58 
   5   3 -17   -0.08    0.22 
   4   3 -17    0.34    0.28 
   3   3 -17    1.02    0.24 
   3   3 -17    0.73    0.32 
   2   3 -17    2.46    0.55 
   2   3 -17    1.88    0.29 
   1   3 -17    0.32    0.16 
   1   3 -17    1.34    0.38 
   0   3 -17    0.51    0.18 
  -1   3 -17    1.39    0.28 
  -2   3 -17    2.45    0.36 
  -3   3 -17    3.23    0.43 
  -4   3 -17    2.67    0.39 
  -5   3 -17    0.41    0.21 
   9   2 -17    2.15    0.53 
   8   2 -17    1.05    0.36 
   7   2 -17    1.01    0.35 
   6   2 -17    0.39    0.29 
   5   2 -17    1.61    0.43 
   4   2 -17    0.52    0.18 
   4   2 -17    0.47    0.29 
   3   2 -17    0.23    0.22 
   3   2 -17    0.03    0.13 
   2   2 -17    1.31    0.25 
   2   2 -17    0.45    0.28 
   1   2 -17    1.89    0.44 
   1   2 -17    2.31    0.33 
   0   2 -17    2.38    0.33 
  -1   2 -17    6.15    0.48 
  -2   2 -17    3.35    0.40 
  -3   2 -17    0.05    0.13 
  -4   2 -17    0.63    0.21 
  -5   2 -17    3.60    0.44 
  -6   2 -17    3.24    0.42 
  -7   2 -17    0.19    0.17 
  10   1 -17    0.21    0.34 
   9   1 -17    0.25    0.26 
   8   1 -17    4.70    0.68 
   7   1 -17    0.13    0.22 
   6   1 -17    0.86    0.32 
   5   1 -17    0.89    0.34 
   5   1 -17    0.86    0.24 
   4   1 -17    2.41    0.34 
   4   1 -17    2.75    0.50 
   3   1 -17    0.57    0.19 
   3   1 -17    0.66    0.28 
   2   1 -17    1.18    0.25 
   2   1 -17    1.84    0.43 
   1   1 -17    1.60    0.28 
   1   1 -17    2.29    0.44 
   0   1 -17    0.72    0.27 
   0   1 -17    0.68    0.20 
  -1   1 -17    0.00    0.13 
  -2   1 -17    4.58    0.47 
  -3   1 -17    2.08    0.33 
  -4   1 -17    1.94    0.32 
  -5   1 -17    0.85    0.23 
  -6   1 -17    0.22    0.16 
  -7   1 -17    1.16    0.27 
  -8   1 -17    0.48    0.21 
  10   0 -17    0.39    0.32 
   9   0 -17    0.12    0.28 
   8   0 -17    0.59    0.33 
   7   0 -17    4.34    0.61 
   6   0 -17    0.17    0.17 
   6   0 -17    0.27    0.23 
   5   0 -17    0.87    0.28 
   5   0 -17    1.12    0.29 
   4   0 -17    0.50    0.25 
   4   0 -17    0.59    0.20 
   3   0 -17    4.26    0.46 
   3   0 -17    4.90    0.58 
   2   0 -17    0.15    0.16 
   1   0 -17    2.85    0.38 
   0   0 -17    3.00    0.40 
  -1   0 -17    2.46    0.35 
  -2   0 -17    0.90    0.23 
  -3   0 -17    0.22    0.14 
  -4   0 -17    1.15    0.26 
  -5   0 -17    0.16    0.14 
  -6   0 -17    0.22    0.15 
  -7   0 -17    0.67    0.21 
  -8   0 -17    2.62    0.39 
   7  -1 -17   -0.06    0.17 
   6  -1 -17    0.75    0.26 
   5  -1 -17    0.64    0.25 
   4  -1 -17    1.90    0.35 
   3  -1 -17    0.71    0.23 
   2  -1 -17    1.80    0.33 
   1  -1 -17    1.90    0.34 
   0  -1 -17    0.89    0.25 
  -1  -1 -17    0.23    0.16 
  -2  -1 -17    4.46    0.50 
  -3  -1 -17    2.45    0.39 
  -4  -1 -17    1.76    0.33 
  -5  -1 -17    0.62    0.22 
  -6  -1 -17    0.49    0.20 
  -7  -1 -17    1.27    0.29 
  -8  -1 -17    0.56    0.23 
   8  -2 -17    1.45    0.38 
   7  -2 -17    1.25    0.36 
   6  -2 -17    0.54    0.25 
   5  -2 -17    0.90    0.26 
   4  -2 -17    0.28    0.17 
   3  -2 -17    0.14    0.16 
   2  -2 -17    0.55    0.21 
   1  -2 -17    2.46    0.40 
   0  -2 -17    2.79    0.42 
  -1  -2 -17    6.56    0.60 
  -2  -2 -17    2.81    0.42 
  -3  -2 -17    0.39    0.19 
  -4  -2 -17    1.20    0.29 
  -5  -2 -17    3.51    0.48 
  -6  -2 -17    2.56    0.43 
  -7  -2 -17    0.14    0.17 
   7  -3 -17    1.80    0.42 
   6  -3 -17    3.67    0.57 
   5  -3 -17    0.31    0.23 
   4  -3 -17    0.11    0.21 
   3  -3 -17    0.43    0.21 
   2  -3 -17    2.05    0.40 
   1  -3 -17    0.37    0.20 
   0  -3 -17    1.02    0.29 
  -1  -3 -17    1.54    0.35 
  -2  -3 -17    1.83    0.39 
  -3  -3 -17    2.55    0.45 
  -4  -3 -17    3.21    0.51 
  -5  -3 -17    0.89    0.29 
   3  -4 -17    0.68    0.26 
   2  -4 -17   -0.13    0.17 
   1  -4 -17    1.13    0.35 
   0  -4 -17    2.13    0.46 
  -1  -4 -17    0.28    0.23 
   5   3 -18    0.54    0.34 
   4   3 -18    0.34    0.27 
   3   3 -18    0.62    0.32 
   2   3 -18    1.06    0.38 
   2   3 -18    1.44    0.29 
   1   3 -18    3.14    0.39 
   1   3 -18    2.93    0.59 
   0   3 -18    2.07    0.33 
  -1   3 -18    0.38    0.18 
  -2   3 -18    0.55    0.20 
  -3   3 -18    0.05    0.17 
   8   2 -18    0.51    0.29 
   7   2 -18    1.16    0.39 
   6   2 -18    0.76    0.35 
   5   2 -18    1.08    0.39 
   4   2 -18    0.97    0.25 
   4   2 -18    1.33    0.39 
   3   2 -18    1.31    0.40 
   3   2 -18    1.76    0.29 
   2   2 -18    0.67    0.20 
   2   2 -18    0.31    0.28 
   1   2 -18    1.33    0.27 
   1   2 -18    0.87    0.34 
   0   2 -18    0.47    0.31 
   0   2 -18    0.29    0.18 
  -1   2 -18    2.86    0.39 
  -2   2 -18    3.87    0.45 
  -3   2 -18    1.79    0.33 
  -4   2 -18    0.98    0.25 
  -5   2 -18    1.98    0.35 
   9   1 -18    1.80    0.47 
   8   1 -18    2.99    0.59 
   7   1 -18    1.46    0.41 
   6   1 -18    1.13    0.35 
   5   1 -18    2.35    0.49 
   5   1 -18    2.20    0.36 
   4   1 -18    1.55    0.28 
   4   1 -18    1.15    0.37 
   3   1 -18    1.62    0.30 
   3   1 -18    1.20    0.35 
   2   1 -18    1.56    0.28 
   2   1 -18    1.85    0.44 
   1   1 -18    6.03    0.70 
   1   1 -18    5.46    0.50 
   0   1 -18    5.76    0.68 
   0   1 -18    5.41    0.50 
  -1   1 -18    4.18    0.45 
  -2   1 -18    0.68    0.21 
  -3   1 -18    1.31    0.28 
  -4   1 -18    1.40    0.30 
  -5   1 -18    1.50    0.31 
  -6   1 -18    3.00    0.42 
   9   0 -18    0.34    0.34 
   8   0 -18    0.98    0.41 
   7   0 -18   -0.14    0.26 
   6   0 -18    0.47    0.23 
   5   0 -18    1.86    0.35 
   4   0 -18    5.54    0.53 
   3   0 -18    0.19    0.15 
   2   0 -18    0.26    0.18 
   1   0 -18    0.29    0.17 
   0   0 -18    0.64    0.21 
  -1   0 -18    1.93    0.33 
  -2   0 -18    4.06    0.46 
  -3   0 -18    2.94    0.40 
  -4   0 -18    0.26    0.16 
  -5   0 -18    0.22    0.16 
  -6   0 -18    0.26    0.18 
  -7   0 -18    0.17    0.17 
   7  -1 -18    1.82    0.37 
   6  -1 -18    0.63    0.25 
   5  -1 -18    1.91    0.37 
   4  -1 -18    1.67    0.35 
   3  -1 -18    1.81    0.35 
   2  -1 -18    1.32    0.29 
   1  -1 -18    5.28    0.54 
   0  -1 -18    5.46    0.55 
  -1  -1 -18    3.74    0.47 
  -2  -1 -18    1.05    0.27 
  -3  -1 -18    0.83    0.26 
  -4  -1 -18    1.27    0.29 
  -5  -1 -18    1.70    0.32 
  -6  -1 -18    2.66    0.42 
   7  -2 -18    2.02    0.44 
   6  -2 -18    1.08    0.31 
   5  -2 -18    1.06    0.29 
   4  -2 -18    1.27    0.31 
   3  -2 -18    2.02    0.40 
   2  -2 -18    0.41    0.19 
   1  -2 -18    1.06    0.30 
   0  -2 -18    0.22    0.16 
  -1  -2 -18    2.11    0.37 
  -2  -2 -18    3.59    0.49 
  -3  -2 -18    1.49    0.32 
  -4  -2 -18    0.20    0.20 
  -5  -2 -18    1.64    0.37 
   5  -3 -18    0.34    0.26 
   4  -3 -18    0.35    0.25 
   3  -3 -18    0.93    0.32 
   2  -3 -18    1.14    0.30 
   1  -3 -18    3.25    0.50 
   0  -3 -18    1.83    0.40 
  -1  -3 -18    0.55    0.26 
  -2  -3 -18    0.40    0.25 
  -3  -3 -18    0.37    0.23 
   6   2 -19    0.26    0.29 
   5   2 -19    0.88    0.35 
   4   2 -19    0.56    0.28 
   3   2 -19    1.37    0.29 
   3   2 -19    1.29    0.38 
   2   2 -19    4.91    0.71 
   2   2 -19    4.63    0.48 
   1   2 -19    3.36    0.62 
   1   2 -19    3.86    0.44 
   0   2 -19    0.36    0.27 
   0   2 -19    0.39    0.21 
  -1   2 -19    0.99    0.27 
  -2   2 -19    1.29    0.29 
  -3   2 -19    0.49    0.22 
   7   1 -19    0.64    0.31 
   6   1 -19    0.68    0.29 
   5   1 -19    1.18    0.38 
   5   1 -19    1.26    0.29 
   4   1 -19    3.29    0.44 
   4   1 -19    2.96    0.54 
   3   1 -19    0.56    0.32 
   3   1 -19    0.48    0.21 
   2   1 -19    0.44    0.29 
   2   1 -19   -0.09    0.14 
   1   1 -19    1.11    0.26 
   0   1 -19    2.55    0.37 
  -1   1 -19    0.05    0.15 
  -2   1 -19    3.13    0.43 
  -3   1 -19    0.92    0.24 
  -4   1 -19    0.52    0.23 
  -5   1 -19    0.89    0.26 
   6   0 -19    0.29    0.23 
   5   0 -19   -0.08    0.15 
   4   0 -19    0.84    0.25 
   3   0 -19    4.59    0.51 
   2   0 -19    0.53    0.20 
   1   0 -19    3.08    0.43 
   0   0 -19    0.79    0.24 
  -1   0 -19    0.21    0.15 
  -2   0 -19    1.07    0.27 
  -3   0 -19    0.25    0.16 
  -4   0 -19    2.91    0.44 
  -5   0 -19    2.41    0.39 
   7  -1 -19    0.88    0.29 
   6  -1 -19    0.78    0.29 
   5  -1 -19    0.94    0.29 
   4  -1 -19    3.09    0.49 
   3  -1 -19    0.67    0.25 
   2  -1 -19   -0.07    0.14 
   1  -1 -19    1.28    0.31 
   0  -1 -19    2.96    0.45 
  -1  -1 -19    0.01    0.15 
  -2  -1 -19    2.70    0.43 
  -3  -1 -19    1.48    0.32 
  -4  -1 -19    0.37    0.23 
   5  -2 -19    0.74    0.29 
   4  -2 -19    0.20    0.21 
   3  -2 -19    1.09    0.32 
   2  -2 -19    4.38    0.57 
   1  -2 -19    2.90    0.47 
   0  -2 -19    0.30    0.17 
  -1  -2 -19    0.44    0.22 
  -2  -2 -19    0.33    0.19 
  -3  -2 -19    0.70    0.25 
   4   1 -20    1.40    0.32 
   3   1 -20    4.15    0.49 
   2   1 -20    3.31    0.45 
   1   1 -20    0.68    0.22 
   0   1 -20    0.67    0.22 
  -1   1 -20    1.03    0.27 
  -2   1 -20    0.05    0.14 
   5   0 -20    2.35    0.43 
   4   0 -20    1.10    0.30 
   3   0 -20    0.24    0.18 
   2   0 -20    1.69    0.34 
   1   0 -20    1.37    0.32 
   0   0 -20    3.18    0.44 
  -1   0 -20    2.36    0.38 
  -2   0 -20    0.36    0.21 
  -3   0 -20    0.69    0.23 
   4  -1 -20    1.48    0.36 
   3  -1 -20    2.97    0.46 
   2  -1 -20    3.94    0.52 
   1  -1 -20    0.75    0.26 
   0  -1 -20    0.41    0.23 
  -1  -1 -20    0.73    0.26 
  -2  -1 -20    0.32    0.20 
   0   0   0    0.00    0.00 
;
_shelx_hkl_checksum              90211
loop_
_space_group_symop_operation_xyz
'x, y, z'
'-x, y+1/2, -z'
loop_
_atom_site_label
_atom_site_type_symbol
_atom_site_fract_x
_atom_site_fract_y
_atom_site_fract_z
_atom_site_U_iso_or_equiv
_atom_site_adp_type
_atom_site_occupancy
_atom_site_site_symmetry_order
_atom_site_calc_flag
_atom_site_refinement_flags_posn
_atom_site_refinement_flags_adp
S1 S 0.43466(6) 0.01830(18) 0.70398(5) 0.0449(3) Uani 1 1 d . .
N1 N 0.3702(2) 0.2137(7) 0.75805(19) 0.0442(7) Uani 1 1 d . .
O1 O 0.1851(2) 0.4046(7) 0.65584(17) 0.0693(8) Uani 1 1 d . .
O2 O 0.1100(2) 0.0504(7) 0.68890(16) 0.0689(8) Uani 1 1 d . .
O3 O 0.4106(2) -0.2169(5) 0.73731(16) 0.0579(7) Uani 1 1 d . .
O4 O 0.54130(19) 0.1036(6) 0.70771(15) 0.0621(9) Uani 1 1 d . .
C1 C 0.2602(2) 0.1719(7) 0.77715(19) 0.0402(8) Uani 1 1 d . .
H1 H 0.2525 -0.0009 0.7932 0.048 Uiso 1 1 calc R U
C2 C 0.2356(2) 0.3317(7) 0.85434(19) 0.0393(8) Uani 1 1 d . .
H2 H 0.2570 0.4998 0.8412 0.047 Uiso 1 1 calc R U
C3 C 0.1159(3) 0.3372(7) 0.86484(19) 0.0382(7) Uani 1 1 d . .
C4 C 0.0544(3) 0.5325(8) 0.8323(2) 0.0494(8) Uani 1 1 d . .
H4 H 0.0864 0.6610 0.8043 0.059 Uiso 1 1 calc R U
C5 C -0.0539(3) 0.5364(9) 0.8412(2) 0.0572(10) Uani 1 1 d . .
H5 H -0.0949 0.6675 0.8190 0.069 Uiso 1 1 calc R U
C6 C -0.1015(3) 0.3497(9) 0.8825(2) 0.0596(11) Uani 1 1 d . .
H6 H -0.1747 0.3530 0.8884 0.071 Uiso 1 1 calc R U
C7 C -0.0404(3) 0.1567(9) 0.9153(2) 0.0556(10) Uani 1 1 d . .
H7 H -0.0723 0.0290 0.9436 0.067 Uiso 1 1 calc R U
C8 C 0.0675(3) 0.1519(7) 0.9064(2) 0.0448(8) Uani 1 1 d . .
H8 H 0.1082 0.0208 0.9290 0.054 Uiso 1 1 calc R U
C9 C 0.2981(2) 0.2584(7) 0.9386(2) 0.0386(8) Uani 1 1 d . .
C10 C 0.2928(3) 0.4160(8) 1.0081(2) 0.0485(9) Uani 1 1 d . .
H10 H 0.2552 0.5627 1.0008 0.058 Uiso 1 1 calc R U
C11 C 0.3427(3) 0.3582(9) 1.0884(2) 0.0585(11) Uani 1 1 d . .
H11 H 0.3376 0.4654 1.1346 0.070 Uiso 1 1 calc R U
C12 C 0.3991(3) 0.1454(9) 1.1002(2) 0.0595(11) Uani 1 1 d . .
H12 H 0.4320 0.1060 1.1543 0.071 Uiso 1 1 calc R U
C13 C 0.4068(3) -0.0107(9) 1.0311(2) 0.0543(10) Uani 1 1 d . .
H13 H 0.4465 -0.1545 1.0384 0.065 Uiso 1 1 calc R U
C14 C 0.3560(3) 0.0448(8) 0.9509(2) 0.0472(8) Uani 1 1 d . .
H14 H 0.3611 -0.0633 0.9050 0.057 Uiso 1 1 calc R U
C15 C 0.1821(3) 0.2259(8) 0.6998(2) 0.0476(9) Uani 1 1 d . .
C16 C 0.0283(4) 0.0882(16) 0.6196(4) 0.130(3) Uani 1 1 d . .
H16A H 0.0604 0.1453 0.5692 0.195 Uiso 1 1 calc R U
H16B H -0.0219 0.2082 0.6369 0.195 Uiso 1 1 calc R U
H16C H -0.0083 -0.0639 0.6066 0.195 Uiso 1 1 calc R U
C17 C 0.3830(2) 0.0279(8) 0.59546(18) 0.0437(8) Uani 1 1 d . .
C18 C 0.4118(3) 0.2179(8) 0.5439(2) 0.0542(10) Uani 1 1 d . .
H18 H 0.4591 0.3383 0.5658 0.065 Uiso 1 1 calc R U
C19 C 0.3698(3) 0.2274(10) 0.4592(2) 0.0659(12) Uani 1 1 d . .
H19 H 0.3880 0.3575 0.4244 0.079 Uiso 1 1 calc R U
C20 C 0.3021(3) 0.0507(11) 0.4252(2) 0.0668(13) Uani 1 1 d . .
C21 C 0.2745(3) -0.1353(10) 0.4781(3) 0.0710(13) Uani 1 1 d . .
H21 H 0.2277 -0.2559 0.4557 0.085 Uiso 1 1 calc R U
C22 C 0.3136(3) -0.1506(9) 0.5636(2) 0.0563(10) Uani 1 1 d . .
H22 H 0.2935 -0.2784 0.5987 0.068 Uiso 1 1 calc R U
C23 C 0.2601(4) 0.0586(17) 0.3311(3) 0.106(2) Uani 1 1 d . .
H23A H 0.3130 -0.0064 0.2960 0.158 Uiso 1 1 calc R U
H23B H 0.2443 0.2254 0.3145 0.158 Uiso 1 1 calc R U
H23C H 0.1961 -0.0383 0.3231 0.158 Uiso 1 1 calc R U
H1A H 0.381(2) 0.343(7) 0.748(2) 0.019(9) Uiso 1 1 d . .
loop_
_atom_site_aniso_label
_atom_site_aniso_U_11
_atom_site_aniso_U_22
_atom_site_aniso_U_33
_atom_site_aniso_U_23
_atom_site_aniso_U_13
_atom_site_aniso_U_12
S1 0.0430(4) 0.0563(6) 0.0356(4) 0.0006(4) 0.0032(3) 0.0050(4)
N1 0.0474(18) 0.044(2) 0.0424(17) 0.0019(15) 0.0102(12) -0.0072(16)
O1 0.0700(18) 0.082(2) 0.0550(16) 0.0244(16) 0.0004(13) -0.0035(16)
O2 0.0583(15) 0.082(2) 0.0638(15) -0.0052(17) -0.0084(12) -0.0186(17)
O3 0.0765(19) 0.0536(18) 0.0434(13) 0.0054(12) 0.0041(12) 0.0127(14)
O4 0.0411(13) 0.093(3) 0.0521(13) -0.0067(14) 0.0035(10) 0.0033(13)
C1 0.0401(17) 0.044(2) 0.0375(16) 0.0030(15) 0.0080(13) -0.0057(15)
C2 0.0421(17) 0.038(2) 0.0383(16) 0.0026(14) 0.0061(13) -0.0057(15)
C3 0.0407(17) 0.039(2) 0.0351(15) -0.0012(15) 0.0036(13) -0.0010(15)
C4 0.0526(19) 0.047(2) 0.0478(17) 0.0051(19) -0.0007(14) 0.001(2)
C5 0.049(2) 0.061(3) 0.060(2) -0.003(2) -0.0112(16) 0.012(2)
C6 0.040(2) 0.080(3) 0.059(2) -0.011(2) 0.0035(16) 0.000(2)
C7 0.050(2) 0.063(3) 0.055(2) 0.003(2) 0.0137(16) -0.006(2)
C8 0.0423(19) 0.047(2) 0.0461(18) 0.0023(17) 0.0087(14) 0.0020(16)
C9 0.0336(16) 0.044(2) 0.0390(16) -0.0017(14) 0.0060(13) -0.0065(15)
C10 0.0417(18) 0.055(2) 0.049(2) -0.0078(17) 0.0058(15) 0.0008(17)
C11 0.054(2) 0.076(3) 0.046(2) -0.016(2) 0.0031(17) -0.004(2)
C12 0.051(2) 0.084(3) 0.0416(19) 0.004(2) -0.0054(16) -0.006(2)
C13 0.0446(18) 0.062(3) 0.055(2) 0.009(2) -0.0017(15) 0.000(2)
C14 0.0490(18) 0.052(2) 0.0410(16) -0.0033(18) 0.0039(13) -0.003(2)
C15 0.045(2) 0.062(3) 0.0366(17) -0.0035(18) 0.0086(14) -0.0039(19)
C16 0.084(4) 0.181(8) 0.115(4) -0.002(5) -0.053(3) -0.025(4)
C17 0.0384(15) 0.057(2) 0.0364(15) -0.0014(19) 0.0070(12) 0.006(2)
C18 0.051(2) 0.065(3) 0.0476(19) 0.008(2) 0.0073(16) -0.007(2)
C19 0.064(3) 0.086(3) 0.050(2) 0.021(2) 0.0133(18) 0.001(3)
C20 0.058(2) 0.100(4) 0.0423(18) 0.009(3) 0.0021(16) 0.011(3)
C21 0.065(3) 0.084(4) 0.062(3) -0.008(2) -0.009(2) -0.009(3)
C22 0.063(2) 0.062(3) 0.044(2) 0.0038(19) 0.0022(17) -0.007(2)
C23 0.100(4) 0.164(6) 0.049(2) 0.009(3) -0.013(2) 0.007(4)
loop_
_atom_type_symbol
_atom_type_description
_atom_type_scat_dispersion_real
_atom_type_scat_dispersion_imag
_atom_type_scat_source
C C 0.0033 0.0016 'International Tables Vol C Tables 4.2.6.8 and 6.1.1.4'
H H 0.0000 0.0000 'International Tables Vol C Tables 4.2.6.8 and 6.1.1.4'
N N 0.0061 0.0033 'International Tables Vol C Tables 4.2.6.8 and 6.1.1.4'
O O 0.0106 0.0060 'International Tables Vol C Tables 4.2.6.8 and 6.1.1.4'
S S 0.1246 0.1234 'International Tables Vol C Tables 4.2.6.8 and 6.1.1.4'
loop_
_geom_angle_atom_site_label_1
_geom_angle_atom_site_label_2
_geom_angle_atom_site_label_3
_geom_angle
O4 S1 O3 120.57(18)
O4 S1 N1 105.91(18)
O3 S1 N1 106.01(18)
O4 S1 C17 107.79(15)
O3 S1 C17 107.61(19)
N1 S1 C17 108.49(17)
C1 N1 S1 121.8(3)
C1 N1 H1A 113(3)
S1 N1 H1A 114(3)
C15 O2 C16 115.7(4)
N1 C1 C15 111.9(3)
N1 C1 C2 108.9(3)
C15 C1 C2 110.5(3)
N1 C1 H1 108.5
C15 C1 H1 108.5
C2 C1 H1 108.5
C9 C2 C3 111.0(2)
C9 C2 C1 113.6(3)
C3 C2 C1 110.9(3)
C9 C2 H2 107.0
C3 C2 H2 107.0
C1 C2 H2 107.0
C8 C3 C4 119.0(3)
C8 C3 C2 121.0(3)
C4 C3 C2 120.0(3)
C5 C4 C3 120.0(4)
C5 C4 H4 120.0
C3 C4 H4 120.0
C6 C5 C4 120.6(4)
C6 C5 H5 119.7
C4 C5 H5 119.7
C5 C6 C7 119.4(4)
C5 C6 H6 120.3
C7 C6 H6 120.3
C8 C7 C6 120.2(4)
C8 C7 H7 119.9
C6 C7 H7 119.9
C3 C8 C7 120.8(4)
C3 C8 H8 119.6
C7 C8 H8 119.6
C14 C9 C10 118.2(3)
C14 C9 C2 124.8(3)
C10 C9 C2 116.9(3)
C9 C10 C11 120.9(4)
C9 C10 H10 119.6
C11 C10 H10 119.6
C12 C11 C10 120.5(4)
C12 C11 H11 119.8
C10 C11 H11 119.8
C11 C12 C13 119.2(4)
C11 C12 H12 120.4
C13 C12 H12 120.4
C12 C13 C14 120.6(4)
C12 C13 H13 119.7
C14 C13 H13 119.7
C9 C14 C13 120.6(4)
C9 C14 H14 119.7
C13 C14 H14 119.7
O1 C15 O2 124.9(3)
O1 C15 C1 124.3(3)
O2 C15 C1 110.8(3)
O2 C16 H16A 109.5
O2 C16 H16B 109.5
H16A C16 H16B 109.5
O2 C16 H16C 109.5
H16A C16 H16C 109.5
H16B C16 H16C 109.5
C22 C17 C18 120.9(3)
C22 C17 S1 120.0(3)
C18 C17 S1 119.1(3)
C17 C18 C19 119.1(4)
C17 C18 H18 120.5
C19 C18 H18 120.5
C20 C19 C18 121.5(4)
C20 C19 H19 119.3
C18 C19 H19 119.3
C19 C20 C21 118.2(4)
C19 C20 C23 120.8(5)
C21 C20 C23 121.0(5)
C20 C21 C22 122.3(4)
C20 C21 H21 118.8
C22 C21 H21 118.8
C17 C22 C21 118.1(4)
C17 C22 H22 121.0
C21 C22 H22 121.0
C20 C23 H23A 109.5
C20 C23 H23B 109.5
H23A C23 H23B 109.5
C20 C23 H23C 109.5
H23A C23 H23C 109.5
H23B C23 H23C 109.5
loop_
_geom_bond_atom_site_label_1
_geom_bond_atom_site_label_2
_geom_bond_distance
S1 O4 1.413(3)
S1 O3 1.422(3)
S1 N1 1.612(4)
S1 C17 1.755(3)
N1 C1 1.452(4)
N1 H1A 0.73(4)
O1 C15 1.190(5)
O2 C15 1.317(5)
O2 C16 1.440(5)
C1 C15 1.515(5)
C1 C2 1.531(5)
C1 H1 0.9800
C2 C9 1.522(4)
C2 C3 1.524(4)
C2 H2 0.9800
C3 C8 1.365(5)
C3 C4 1.385(5)
C4 C5 1.377(5)
C4 H4 0.9300
C5 C6 1.364(6)
C5 H5 0.9300
C6 C7 1.374(6)
C6 H6 0.9300
C7 C8 1.372(5)
C7 H7 0.9300
C8 H8 0.9300
C9 C14 1.377(5)
C9 C10 1.384(5)
C10 C11 1.384(5)
C10 H10 0.9300
C11 C12 1.363(6)
C11 H11 0.9300
C12 C13 1.377(6)
C12 H12 0.9300
C13 C14 1.385(5)
C13 H13 0.9300
C14 H14 0.9300
C16 H16A 0.9600
C16 H16B 0.9600
C16 H16C 0.9600
C17 C22 1.370(5)
C17 C18 1.374(5)
C18 C19 1.377(5)
C18 H18 0.9300
C19 C20 1.361(7)
C19 H19 0.9300
C20 C21 1.365(7)
C20 C23 1.512(5)
C21 C22 1.380(5)
C21 H21 0.9300
C22 H22 0.9300
C23 H23A 0.9600
C23 H23B 0.9600
C23 H23C 0.9600
loop_
_geom_hbond_atom_site_label_D
_geom_hbond_atom_site_label_H
_geom_hbond_atom_site_label_A
_geom_hbond_distance_DH
_geom_hbond_distance_HA
_geom_hbond_distance_DA
_geom_hbond_angle_DHA
_geom_hbond_site_symmetry_A
N1 H1A O3 0.73(4) 2.44(4) 3.162(5) 172(3) 1_565
C22 H22 O1 0.93 2.41 3.298(5) 159.8 1_545
C22 H22 O1 0.93 2.41 3.298(5) 159.8 1_545
N1 H1A O3 0.73(4) 2.44(4) 3.162(5) 172(3) 1_565
loop_
_geom_torsion_atom_site_label_1
_geom_torsion_atom_site_label_2
_geom_torsion_atom_site_label_3
_geom_torsion_atom_site_label_4
_geom_torsion
O4 S1 N1 C1 -172.7(3)
O3 S1 N1 C1 -43.5(3)
C17 S1 N1 C1 71.9(3)
S1 N1 C1 C15 -78.2(4)
S1 N1 C1 C2 159.3(2)
N1 C1 C2 C9 -66.4(4)
C15 C1 C2 C9 170.2(3)
N1 C1 C2 C3 167.8(3)
C15 C1 C2 C3 44.4(4)
C9 C2 C3 C8 -45.1(4)
C1 C2 C3 C8 82.2(4)
C9 C2 C3 C4 134.7(3)
C1 C2 C3 C4 -98.1(4)
C8 C3 C4 C5 -0.7(5)
C2 C3 C4 C5 179.5(3)
C3 C4 C5 C6 0.4(5)
C4 C5 C6 C7 0.0(6)
C5 C6 C7 C8 -0.1(6)
C4 C3 C8 C7 0.6(5)
C2 C3 C8 C7 -179.6(3)
C6 C7 C8 C3 -0.2(5)
C3 C2 C9 C14 113.9(4)
C1 C2 C9 C14 -11.8(4)
C3 C2 C9 C10 -63.8(4)
C1 C2 C9 C10 170.4(3)
C14 C9 C10 C11 -1.2(5)
C2 C9 C10 C11 176.7(3)
C9 C10 C11 C12 0.7(5)
C10 C11 C12 C13 0.6(6)
C11 C12 C13 C14 -1.4(6)
C10 C9 C14 C13 0.4(5)
C2 C9 C14 C13 -177.3(3)
C12 C13 C14 C9 0.9(5)
C16 O2 C15 O1 -2.0(6)
C16 O2 C15 C1 177.0(4)
N1 C1 C15 O1 -46.3(5)
C2 C1 C15 O1 75.3(4)
N1 C1 C15 O2 134.6(3)
C2 C1 C15 O2 -103.8(4)
O4 S1 C17 C22 144.0(3)
O3 S1 C17 C22 12.6(3)
N1 S1 C17 C22 -101.7(3)
O4 S1 C17 C18 -37.0(3)
O3 S1 C17 C18 -168.4(3)
N1 S1 C17 C18 77.3(3)
C22 C17 C18 C19 0.1(6)
S1 C17 C18 C19 -178.9(3)
C17 C18 C19 C20 -1.3(6)
C18 C19 C20 C21 1.5(7)
C18 C19 C20 C23 -177.6(4)
C19 C20 C21 C22 -0.7(7)
C23 C20 C21 C22 178.4(4)
C18 C17 C22 C21 0.6(6)
S1 C17 C22 C21 179.7(3)
C20 C21 C22 C17 -0.3(6)
