#------------------------------------------------------------------------------
#$Date: 2017-03-11 09:14:27 +0200 (Sat, 11 Mar 2017) $
#$Revision: 194189 $
#$URL: file:///home/coder/svn-repositories/cod/cif/1/54/55/1545557.cif $
#------------------------------------------------------------------------------
#
# This file is available in the Crystallography Open Database (COD),
# http://www.crystallography.net/. The original data for this entry
# were provided by IUCr Journals, http://journals.iucr.org/.
#
# The file may be used within the scientific community so long as
# proper attribution is given to the journal article from which the
# data were obtained.
#
data_1545557
loop_
_publ_author_name
'Shakuntala, K.'
'Naveen, S.'
'Lokanath, N. K.'
'Suchetan, P. A.'
_publ_section_title
;
 3,5-Dichloro-<i>N</i>-(4-methylphenyl)benzenesulfonamide
;
_journal_issue                   3
_journal_name_full               IUCrData
_journal_page_first              x170375
_journal_paper_doi               10.1107/S2414314617003753
_journal_volume                  2
_journal_year                    2017
_chemical_formula_iupac          'C13 H11 Cl2 N O2 S'
_chemical_formula_moiety         'C13 H11 Cl2 N O2 S'
_chemical_formula_sum            'C13 H11 Cl2 N O2 S'
_chemical_formula_weight         316.19
_chemical_name_systematic
;
3,5-Dichloro-<i>N</i>-(4-methylphenyl)benzenesulfonamide
;
_space_group_crystal_system      orthorhombic
_space_group_IT_number           19
_space_group_name_Hall           'P 2ac 2ab'
_space_group_name_H-M_alt        'P 21 21 21'
_symmetry_space_group_name_Hall  'P 2ac 2ab'
_symmetry_space_group_name_H-M   'P 21 21 21'
_atom_sites_solution_hydrogens   mixed
_atom_sites_solution_primary     direct
_atom_sites_solution_secondary   difmap
_audit_creation_method           SHELXL-2016/4
_cell_angle_alpha                90
_cell_angle_beta                 90
_cell_angle_gamma                90
_cell_formula_units_Z            4
_cell_length_a                   6.1673(3)
_cell_length_b                   13.0059(7)
_cell_length_c                   17.6433(9)
_cell_measurement_reflns_used    143
_cell_measurement_temperature    100(2)
_cell_measurement_theta_max      64.2
_cell_measurement_theta_min      6.1
_cell_volume                     1415.19(13)
_computing_cell_refinement
;
SAINT-Plus (Bruker, 2009)
;
_computing_data_collection
;
APEX2 (Bruker, 2009)
;
_computing_data_reduction
;
SAINT-Plus and XPREP (Bruker, 2009)
;
_computing_molecular_graphics
;
Mercury (Macrae <i>et al.</i>,  2008)
;
_computing_publication_material
;
SHELXL2016 (Sheldrick, 2015b) and PLATON (Spek, 2009)
;
_computing_structure_refinement
;
SHELXL2016 (Sheldrick, 2015b)
;
_computing_structure_solution
;
SHELXT2016 (Sheldrick, 2015a)
;
_diffrn_ambient_temperature      100(2)
_diffrn_measured_fraction_theta_full 0.985
_diffrn_measured_fraction_theta_max 0.985
_diffrn_measurement_device_type  'Bruker APEXII CCD'
_diffrn_measurement_method       '\w and \f scans'
_diffrn_radiation_type           CuK\a
_diffrn_radiation_wavelength     1.54178
_diffrn_reflns_av_R_equivalents  0.0602
_diffrn_reflns_limit_h_max       7
_diffrn_reflns_limit_h_min       -7
_diffrn_reflns_limit_k_max       14
_diffrn_reflns_limit_k_min       -14
_diffrn_reflns_limit_l_max       20
_diffrn_reflns_limit_l_min       -18
_diffrn_reflns_number            7822
_diffrn_reflns_theta_full        64.221
_diffrn_reflns_theta_max         64.221
_diffrn_reflns_theta_min         6.061
_exptl_absorpt_coefficient_mu    5.485
_exptl_absorpt_correction_T_max  0.299
_exptl_absorpt_correction_T_min  0.258
_exptl_absorpt_correction_type   multi-scan
_exptl_absorpt_process_details
;
(SADABS; Bruker, 2009)
;
_exptl_crystal_colour            Colourless
_exptl_crystal_density_diffrn    1.484
_exptl_crystal_description       Prism
_exptl_crystal_F_000             648
_exptl_crystal_size_max          0.29
_exptl_crystal_size_mid          0.24
_exptl_crystal_size_min          0.22
_refine_diff_density_max         0.424
_refine_diff_density_min         -0.589
_refine_ls_abs_structure_details
;
Flack <i>x</i>
determined using 855 quotients
[(<i>I</i>^+^)-(<i>I</i>^-^)]/[(<i>I</i>^+^)+(<i>I</i>^-^)]
(Parsons <i>et al.</i>,  2013)
;
_refine_ls_abs_structure_Flack   0.101(13)
_refine_ls_extinction_method     none
_refine_ls_goodness_of_fit_ref   0.992
_refine_ls_hydrogen_treatment    mixed
_refine_ls_matrix_type           full
_refine_ls_number_parameters     177
_refine_ls_number_reflns         2292
_refine_ls_number_restraints     1
_refine_ls_restrained_S_all      0.992
_refine_ls_R_factor_all          0.0526
_refine_ls_R_factor_gt           0.0515
_refine_ls_shift/su_max          0.000
_refine_ls_shift/su_mean         0.000
_refine_ls_structure_factor_coef Fsqd
_refine_ls_weighting_details
'w=1/[\s^2^(Fo^2^)+(0.1150P)^2^] where P=(Fo^2^+2Fc^2^)/3'
_refine_ls_weighting_scheme      calc
_refine_ls_wR_factor_gt          0.1367
_refine_ls_wR_factor_ref         0.1379
_reflns_number_gt                2210
_reflns_number_total             2292
_reflns_threshold_expression     'I > 2\s(I)'
_cod_data_source_file            su4140sup1.cif
_cod_data_source_block           I
_cod_database_code               1545557
_shelx_space_group_comment
;
The symmetry employed for this shelxl refinement is uniquely defined
by the following loop, which should always be used as a source of
symmetry information in preference to the above space-group names.
They are only intended as comments.
;
_shelx_hkl_file
;
   1   0   0    0.03    0.12
  -1   0   0    0.01    0.10
   2   0   0   15.10    1.75
   3   0   0   -0.02    0.34
  -3   0   0    0.09    0.34
  -4   0   0   19.14    1.88
   4   0   0   20.07    1.83
   5   0   0   -0.18    0.67
  -5   0   0    0.06    0.22
   5   0   0   -0.02    0.20
   6   0   0   58.53    4.80
   6   0   0   63.08    5.34
  -6   0   0   53.98    4.79
  -7   0   0   -0.01    0.17
   7   0   0    0.05    0.33
   0   1   0    0.00    0.02
   0  -1   0    0.00    0.02
   0   1   0    0.00    0.02
   0  -1   0    0.00    0.02
   1  -1   0    0.26    0.15
   1  -1   0    0.03    0.13
  -1  -1   0    0.09    0.15
  -1   1   0    0.04    0.06
   2   1   0   33.86    3.16
   3   1   0   15.68    2.05
  -3   1   0   18.03    1.95
  -3  -1   0   15.89    2.09
  -4  -1   0   49.00    4.14
   4   1   0   47.17    4.09
   4  -1   0   59.47    5.29
   4  -1   0   44.48    4.10
  -4   1   0   50.89    4.23
   5   1   0   44.22    4.34
   5   1   0   39.84    3.38
  -5  -1   0   40.98    3.42
   5  -1   0   38.66    3.39
  -5   1   0   33.69    3.41
  -6  -1   0    4.52    0.66
   6   1   0    4.86    0.67
  -6   1   0    4.17    0.67
   6   1   0    3.11    0.90
   6  -1   0    4.86    0.69
   7   1   0    8.16    1.13
   7  -1   0    7.20    1.06
  -7   1   0    5.39    0.69
   0   2   0    2.51    0.34
  -1   2   0   22.02    1.76
   1  -2   0   18.29    1.92
   2   2   0    1.82    0.56
   2  -2   0    1.15    0.55
   3   2   0    5.06    1.05
  -3  -2   0    5.73    1.28
  -3   2   0    5.62    0.93
  -4  -2   0    0.18    0.22
   4   2   0    0.45    0.21
   4  -2   0    1.24    0.89
   4   2   0    0.89    0.64
   4  -2   0    0.40    0.27
  -4   2   0    0.09    0.27
  -5  -2   0    8.23    0.97
   5  -2   0    7.99    1.00
   5   2   0    8.87    0.97
   5   2   0    7.05    1.21
  -6   2   0    0.98    0.38
  -6  -2   0    0.97    0.34
   6   2   0    1.37    0.39
   6   2   0    1.69    0.67
  -7   2   0    2.24    0.40
   7  -2   0    2.22    0.66
   7   2   0    2.27    0.66
   0   3   0    0.02    0.09
   0  -3   0    0.03    0.09
   1  -3   0   31.75    2.69
  -1   3   0   27.36    2.48
   2  -3   0    9.16    1.49
   2   3   0   13.60    1.36
   3   3   0    6.82    0.79
   3  -3   0    5.23    1.27
   3   3   0    8.17    1.21
  -3   3   0    7.72    1.10
  -3   3   0    6.97    0.92
  -3  -3   0    7.64    1.55
  -4  -3   0   63.65    5.54
   4   3   0   71.19    5.61
   4  -3   0   65.96    5.66
   4  -3   0   82.00    7.00
   4   3   0   67.45    5.92
  -5  -3   0    9.25    0.99
   5  -3   0    9.01    1.08
   5   3   0    9.21    1.10
  -5   3   0    6.28    1.04
   5   3   0    8.30    1.28
   6   3   0   92.20    7.30
   6   3   0   89.15    7.75
  -6   3   0   92.94    7.39
  -7   3   0    1.55    0.36
   7  -3   0    2.12    0.64
   7   3   0    2.00    0.62
   0  -4   0   77.44    6.53
   0  -4   0   85.76    6.31
  -1   4   0    8.97    0.97
   1  -4   0    8.82    1.02
   2   4   0   21.41    2.00
  -2   4   0   24.99    2.15
  -2  -4   0   19.44    2.69
  -3  -4   0  141.17   11.54
  -3   4   0  125.80   10.53
  -3   4   0  124.41   10.30
   3   4   0  129.76   10.43
   4  -4   0    9.57    1.86
  -4   4   0    6.39    1.04
   4  -4   0    6.49    0.98
   4   4   0    7.72    1.14
   4   4   0    8.03    0.90
   5   4   0    8.94    1.33
  -5   4   0    6.16    1.07
   5   4   0   10.37    1.14
  -6   4   0    9.27    1.07
   6   4   0    7.64    1.31
   0   5   0    0.05    0.17
   0  -5   0    0.10    0.08
  -1   5   0    5.93    0.84
   1  -5   0    6.71    0.83
  -2  -5   0   37.28    4.59
   2  -5   0   47.55    4.15
  -2   5   0   45.81    3.87
  -3   5   0    5.19    0.65
  -3   5   0    5.50    0.84
   3   5   0    5.49    0.69
   3  -5   0    3.80    1.19
   3   5   0    4.52    0.90
  -4   5   0    1.95    0.62
   4  -5   0    2.13    1.10
   4   5   0    2.07    0.69
   4   5   0    1.17    0.37
   5   5   0   64.30    5.08
  -5   5   0   60.00    5.17
   5   5   0   56.88    5.41
  -6   5   0    1.23    0.41
   6   5   0    1.11    0.59
   6   5   0    1.91    0.48
   0   6   0   11.08    1.36
   1  -6   0   99.37    7.33
  -1   6   0   83.20    7.47
  -2   6   0   59.01    6.01
   2  -6   0   76.93    5.78
  -2   6   0   70.03    5.64
  -2   6   0   67.65    5.26
   2   6   0   62.05    5.62
  -2  -6   0   54.44    6.47
   3  -6   0   13.51    1.93
  -3   6   0    9.76    1.15
   3   6   0   14.65    1.70
  -3   6   0   10.62    1.34
   4   6   0   28.46    2.68
  -4   6   0   30.06    2.84
   4   6   0   29.56    3.04
   5   6   0   17.26    1.75
  -5   6   0   16.85    1.84
   5   6   0   17.19    2.09
   6   6   0    0.74    0.31
  -6   6   0    0.50    0.30
   6   6   0    0.26    0.46
   0   7   0    0.03    0.16
  -1   7   0    0.46    0.56
  -1   7   0    0.46    0.24
  -1   7   0    0.26    0.34
   1   7   0    0.31    0.44
   1   7   0    0.19    0.20
   2   7   0   13.56    1.47
   2   7   0   17.52    1.98
   2   7   0   13.69    1.62
  -2   7   0   12.67    1.41
   2  -7   0   17.46    1.78
  -3   7   0    4.01    0.63
   3   7   0    3.49    1.03
   3   7   0    4.32    0.69
   3  -7   0    3.15    1.03
  -3   7   0    3.43    0.79
   4   7   0   -0.07    0.34
  -4   7   0    0.01    0.33
  -4   7   0    0.12    0.36
   4   7   0    0.01    0.23
   5   7   0    7.60    1.00
  -5   7   0    7.05    1.02
   6   7   0    0.85    0.31
  -6   7   0    1.08    0.33
   6   7   0    0.41    0.45
   0   8   0  101.83    8.93
   0   8   0  126.67    9.72
   1   8   0  162.95   13.01
   1   8   0  155.79   12.32
   1   8   0  142.86   12.31
  -1   8   0  162.66   13.27
  -1   8   0  167.22   12.38
   2   8   0   22.79    2.11
  -2   8   0   21.63    3.07
   2   8   0   25.88    2.26
   2   8   0   23.78    2.78
  -2   8   0   26.61    2.25
   3   8   0    6.87    1.47
   3   8   0    9.05    1.09
  -3   8   0   10.22    1.10
  -4   8   0   24.98    2.47
  -4   8   0   24.49    2.35
   4   8   0   27.27    2.95
  -5   8   0    2.14    0.54
   5   8   0    1.07    0.65
   5   8   0    2.16    0.52
   6   8   0    9.73    1.21
   0   9   0    0.04    0.51
   0   9   0    0.07    0.22
   1   9   0    0.45    0.28
  -1   9   0    0.13    0.20
  -1   9   0    0.17    0.63
   1   9   0    0.19    0.53
   1   9   0   -0.06    0.24
  -2   9   0   25.56    2.37
   2   9   0   25.87    2.38
   2   9   0   24.95    2.27
   3   9   0    3.23    0.74
  -3   9   0    5.30    0.80
   3   9   0    7.22    1.52
   4   9   0   67.15    5.94
   4   9   0   77.54    6.60
   5   9   0   10.28    1.07
   5   9   0    7.66    1.39
   0  10   0    0.95    0.38
   0  10   0    1.65    0.94
   1  10   0    3.86    0.63
   1  10   0    2.90    0.58
  -1  10   0    2.03    0.55
   2  10   0  193.88   14.59
   2  10   0  172.64   14.21
   2  10   0  193.21   15.41
  -2  10   0  166.92   15.59
  -3  10   0   14.20    1.48
   3  10   0   14.33    2.28
   3  10   0   11.40    1.37
  -4  10   0    3.83    0.75
   4  10   0    3.85    0.65
   4  10   0    4.38    1.20
   5  10   0    0.27    0.58
   5  10   0    0.11    0.20
   0  11   0    0.03    0.73
   0  11   0   -0.04    0.22
   1  11   0   17.01    1.88
   1  11   0   21.62    3.03
  -1  11   0   23.08    3.30
   2  11   0    9.18    2.18
   2  11   0    8.87    1.09
  -3  11   0   21.48    2.05
   3  11   0   20.02    1.97
  -4  11   0   21.34    2.07
   4  11   0   22.87    2.03
   0  12   0    7.12    1.00
   1  12   0    5.95    1.85
  -1  12   0    4.78    0.82
  -1  12   0    4.99    1.81
   2  12   0    1.12    0.41
  -2  12   0    1.30    0.49
   2  12   0    1.38    1.06
   3  12   0    6.02    1.56
  -3  12   0    4.04    0.72
   3  12   0    3.86    0.64
   4  12   0    0.41    0.24
   0  13   0    0.15    1.02
   0  13   0    0.22    0.30
  -1  13   0    1.99    1.30
   1  13   0    1.78    1.30
   1  13   0    2.68    0.60
  -1  13   0    2.91    0.66
  -2  13   0    0.29    0.31
   2  13   0    0.89    1.00
   3  13   0    1.34    1.21
  -3  13   0    2.72    0.57
   3  13   0    1.96    0.42
   0  14   0    2.99    0.63
   0  14   0    1.64    1.32
  -1  14   0   18.08    1.70
   1  14   0   14.89    1.57
  -2  14   0   15.22    1.53
   0   0   1    0.00    0.02
  -1   0  -1   -0.16    0.19
   1   0   1   -0.24    0.18
   1   0  -1   -0.37    0.18
  -2   0   1   31.94    3.26
   2   0   1   37.74    3.46
  -2   0  -1   40.33    3.38
  -3   0   1    6.51    1.13
   3   0   1    5.57    1.13
  -3   0  -1    6.72    1.16
   4   0  -1   20.06    2.70
   4   0  -1   18.16    1.73
   4   0   1   18.92    1.79
  -4   0  -1   18.16    1.83
  -4   0   1   18.80    1.79
  -5   0  -1    0.12    0.27
   5   0  -1    0.36    0.25
   5   0   1    0.19    0.22
   5   0   1    0.96    0.86
  -5   0   1    0.00    0.20
  -6   0   1   10.49    1.12
   6   0   1   10.00    1.11
  -6   0  -1    9.22    1.10
   6   0  -1   10.05    1.47
   6   0  -1   10.53    1.12
   7   0  -1    0.16    0.34
  -7   0   1    0.06    0.16
  -7   0  -1    0.03    0.19
  -7   0   1   -0.15    0.21
   7   0   1    0.11    0.31
   0  -1   1    0.00    0.02
   0  -1  -1    0.00    0.02
   0  -1  -1    0.00    0.02
  -1  -1  -1   90.08    8.00
  -1   1  -1  109.98    7.81
  -2   1   1   40.61    3.24
  -2  -1  -1   34.41    3.48
  -2  -1   1   35.14    3.50
  -3  -1  -1   76.01    6.67
  -3   1   1   75.52    6.36
   3   1   1   82.15    6.58
  -3   1  -1   69.26    6.34
  -3  -1   1   69.17    6.56
  -4  -1  -1   40.08    3.39
   4  -1   1   37.65    3.36
   4   1  -1   39.28    3.30
   4   1  -1   42.00    4.32
  -4   1   1   42.07    3.43
   4  -1  -1   38.49    3.31
   4   1   1   37.63    3.32
  -4  -1   1   37.17    3.31
   4  -1  -1   41.27    4.44
  -4   1  -1   38.52    3.45
   5   1  -1   61.76    4.62
  -5   1   1   47.07    4.61
   5  -1   1   62.85    4.69
  -5  -1  -1   63.51    4.71
  -5   1  -1   48.59    4.66
  -5  -1   1   54.17    4.60
   5  -1  -1   53.00    4.58
   5   1   1   53.62    5.32
   5   1   1   54.46    4.61
   6  -1   1   32.00    2.63
  -6   1   1   29.89    2.63
   6   1  -1   34.94    3.15
  -6  -1  -1   31.66    2.61
   6   1  -1   29.95    2.59
   6   1   1   23.44    2.91
  -6  -1   1   26.77    2.55
   6   1   1   27.79    2.58
  -7   1   1   14.56    1.34
  -7   1   1   15.90    1.38
   7  -1   1   15.06    1.69
   7   1  -1   13.19    1.64
  -7  -1   1   16.34    1.37
   7  -1  -1   14.56    1.66
   7   1   1   14.43    1.71
  -7   1  -1   14.68    1.35
   0   2  -1  157.98   11.97
   0   2   1  151.88   11.92
   1  -2   1  575.92   44.32
   1   2   1  585.27   44.23
   1  -2  -1  580.67   44.31
  -2  -2  -1  115.91   10.26
  -2   2   1  133.32    9.84
  -2  -2   1  118.47   10.31
  -2   2  -1  140.35    9.88
   2   2   1  112.89    9.89
  -3   2   1  100.20    8.29
  -3  -2  -1  108.92    8.86
  -3  -2   1  108.29    8.85
   3   2   1   95.43    7.91
  -3   2  -1   92.58    8.28
   4  -2   1   40.74    3.64
  -4  -2  -1   44.61    3.63
   4   2  -1   42.27    3.57
  -4   2   1   46.43    3.76
   4   2  -1   48.23    4.56
  -4   2  -1   43.18    3.78
   4  -2  -1   46.88    4.86
   4  -2  -1   38.09    3.58
   4   2   1   44.69    3.62
  -4  -2   1   37.82    3.54
  -5  -2  -1    0.97    0.39
  -5   2   1    1.02    0.43
   5   2  -1    1.08    0.35
   5  -2   1    0.94    0.37
   5   2  -1    0.83    0.47
   5   2   1    1.51    0.62
  -5   2  -1    1.40    0.50
   5  -2  -1    2.27    0.53
   6   2  -1    8.56    1.28
  -6  -2  -1    7.00    0.88
  -6   2   1    6.94    0.93
   6   2  -1    8.30    0.93
   6  -2   1    7.87    0.94
  -6   2  -1    7.35    0.95
  -6  -2   1    7.69    0.89
   6   2   1    7.32    1.24
   6   2   1    7.51    0.91
   7  -2   1    6.97    1.01
  -7   2   1    5.02    0.63
   7   2  -1    5.82    1.00
  -7   2   1    5.86    0.69
   7   2   1    6.77    1.05
  -7  -2   1    4.78    0.65
   7  -2  -1    6.00    0.96
  -7   2  -1    4.99    0.64
   0  -3   1   76.32    5.95
   0  -3  -1   73.43    5.91
   1  -3   1    5.26    0.64
  -1   3   1    4.18    0.55
  -2  -3  -1   94.04    8.86
  -2   3   1  108.53    8.36
  -2   3  -1  108.44    8.38
   2   3   1  110.53    8.33
  -2  -3   1  100.20    8.97
  -3   3   1   58.14    5.58
   3   3  -1   69.15    5.52
  -3  -3  -1   68.06    6.49
  -3   3   1   65.09    5.83
  -3   3  -1   72.91    5.68
  -3   3  -1   72.01    5.94
   3   3   1   77.09    5.56
   3   3   1   69.36    5.76
   4   3  -1   24.96    2.06
   4   3  -1   23.13    2.33
   4  -3   1   27.71    3.11
   4  -3   1   21.61    2.09
  -4  -3  -1   20.47    1.99
   4   3   1   22.82    2.35
  -4   3  -1   20.95    2.23
   4  -3  -1   25.79    3.30
   4   3   1   22.93    2.05
  -4  -3   1   18.78    1.96
   5   3  -1    5.92    0.76
   5  -3   1    5.08    0.83
  -5  -3  -1    4.58    0.81
   5   3  -1    6.09    1.06
  -5  -3   1    6.51    0.77
  -5   3  -1    3.62    0.84
   5   3   1    6.73    0.89
  -6   3   1    6.66    0.90
   6   3  -1    7.48    1.23
   6   3   1    6.72    1.19
  -6   3  -1    6.57    0.91
  -6  -3   1    6.95    0.87
   6   3   1    6.40    0.82
  -7   3   1    0.31    0.21
   7  -3   1    0.33    0.38
  -7   3  -1    0.07    0.21
   7  -3  -1    0.18    0.33
   7   3   1    0.47    0.43
   0   4   1   61.54    5.48
   0  -4  -1   67.24    5.48
   0  -4   1   66.96    5.30
   0  -4  -1   76.20    5.27
  -1   4   1  170.56   14.02
   1  -4   1  189.91   14.08
  -1   4  -1  181.41   14.07
  -2   4   1   97.94    8.07
   2  -4   1   96.89    8.34
   2   4   1  110.42    7.89
  -2   4  -1  106.25    8.13
  -2  -4   1   89.51    8.80
   3  -4   1   75.92    6.65
  -3  -4  -1   88.57    7.99
   3   4  -1   81.30    6.97
   3  -4   1   72.87    7.46
  -3   4   1   78.50    6.84
  -3   4   1   80.21    7.05
   3   4  -1   96.02    6.78
  -3   4   1   70.40    6.64
   3   4   1   95.86    6.77
   3   4   1   86.56    7.02
  -3   4  -1   87.01    7.15
  -3  -4   1   99.24    8.18
  -3   4  -1   94.18    6.93
   4  -4   1    2.27    1.04
   4   4  -1    2.63    0.48
   4   4  -1    2.44    0.72
  -4   4   1    2.34    0.61
   4  -4   1    2.11    0.52
   4   4   1    3.58    0.53
   4   4   1    2.92    0.73
   4  -4  -1    3.65    1.39
   4   4   1    4.07    0.64
  -4   4  -1    3.34    0.78
   5   4  -1   18.32    2.07
  -5   4   1   13.72    1.76
   5   4  -1   16.40    1.67
   5  -4   1   17.49    1.79
   5   4  -1   19.93    1.83
   5   4   1   18.69    1.78
   6   4  -1    4.18    0.99
  -6   4   1    3.84    0.72
  -6   4  -1    4.81    0.74
   6   4   1    3.93    0.98
   0  -5   1    0.68    0.18
   0   5  -1    0.68    0.36
   0  -5  -1    0.78    0.13
   0   5   1    0.63    0.31
  -1   5   1   19.70    1.78
   1  -5   1   17.16    1.67
   1  -5  -1   17.47    1.77
  -1   5  -1   17.24    1.77
  -2  -5  -1   11.05    2.09
  -2   5   1   13.41    1.51
   2  -5   1   17.11    1.74
  -2  -5   1   12.17    2.23
  -2   5  -1   16.71    1.62
   2  -5  -1   12.70    1.81
   3   5  -1   10.07    1.07
   3  -5   1    9.01    1.58
   3   5  -1    8.00    1.30
   3  -5   1    9.35    1.00
  -3   5   1    9.64    1.01
  -3   5   1   10.68    1.23
   3  -5  -1    7.88    1.69
  -3   5  -1   12.10    1.27
   3   5   1   10.45    1.40
   3   5   1   12.25    1.11
  -3   5  -1   10.23    1.00
   4  -5   1    8.66    1.08
   4  -5   1    6.62    1.64
   4   5  -1    9.21    1.35
  -4   5   1   11.39    1.28
   4   5  -1   10.60    1.06
   4   5   1    8.99    1.34
   4   5   1    7.39    0.96
   4  -5  -1    7.99    1.93
   4   5   1   10.57    1.14
  -4   5  -1    9.22    1.27
   5   5  -1   11.19    1.26
  -5   5   1   12.44    1.36
   5   5  -1    8.89    1.46
   5   5   1   12.23    1.26
   5   5   1    8.69    1.45
  -5   5  -1    8.84    1.29
   6   5  -1   17.12    2.09
   6   5  -1   18.85    1.82
  -6   5   1   20.42    1.86
   6   5   1   18.75    2.18
  -6   5  -1   21.11    1.91
   0   6  -1  120.22    9.79
   1  -6   1   48.81    3.87
  -1   6   1   44.26    4.01
   1  -6  -1   48.56    3.90
  -1   6  -1   42.16    4.04
  -2   6   1   81.05    6.62
   2   6  -1   66.42    6.50
  -2   6   1   71.67    5.95
   2  -6   1   78.78    6.01
  -2   6   1   68.72    5.61
  -2   6  -1   69.89    5.97
  -2  -6   1   57.32    6.82
   2   6   1   64.32    5.64
  -2   6  -1   73.49    6.52
   2  -6  -1   76.77    6.21
  -2   6  -1   63.78    5.57
   2   6   1   69.09    6.01
  -3   6   1   10.35    1.29
   3  -6   1   10.52    1.09
   3  -6   1   10.59    1.66
   3   6  -1   10.99    1.53
  -3   6   1   10.20    1.12
  -3   6  -1   11.70    1.36
  -3   6  -1   10.65    1.12
   3  -6  -1    9.56    1.79
   3   6   1   11.02    1.21
   3   6   1   11.99    1.19
   3   6   1   11.59    1.54
  -4   6   1    9.67    1.23
   4   6  -1    9.61    1.41
   4  -6   1    5.80    1.61
  -4   6   1    7.89    1.00
   4   6   1   10.66    1.46
   4   6   1    6.94    0.95
   4  -6  -1    7.16    1.95
   4   6   1   11.68    1.18
  -4   6  -1   10.79    1.33
   5   6  -1   11.20    1.58
   5   6  -1   11.86    1.31
  -5   6   1   12.22    1.36
   5   6   1    9.88    1.54
   5   6   1   11.09    1.30
  -5   6  -1   11.42    1.42
  -6   6   1    8.80    0.97
   6   6  -1    7.79    0.94
   6   6   1    7.42    0.93
  -6   6  -1    9.05    1.02
   0   7  -1  231.87   17.37
   0   7  -1  203.16   17.82
   0   7   1  240.18   17.39
  -1   7   1  103.02    8.67
   1   7  -1   96.37    8.24
  -1   7   1  107.28    8.30
   1   7   1   92.37    8.26
  -1   7  -1  103.29    8.28
  -1   7  -1  112.14    8.81
   1   7   1  116.84    8.83
  -1   7  -1  125.55    9.18
   1   7   1   93.93    8.22
  -2   7   1   21.31    1.89
  -2   7   1   22.40    2.47
   2   7  -1   17.68    1.76
   2   7  -1   18.87    2.30
  -2   7   1   20.96    2.72
   2  -7   1   21.75    2.16
   2  -7   1   17.15    1.74
  -2   7  -1   20.82    2.72
   2   7   1   20.16    2.32
   2   7   1   19.75    1.89
   2  -7  -1   22.31    2.24
  -2   7  -1   21.41    1.86
   3  -7   1   27.20    3.00
  -3   7   1   26.80    2.57
   3   7  -1   28.23    2.98
  -3   7   1   30.32    2.49
   3  -7  -1   25.68    3.12
  -3   7  -1   25.58    2.60
   3   7   1   27.74    2.97
  -3   7  -1   26.88    2.43
  -4   7   1    1.27    0.49
   4   7  -1    0.50    0.52
  -4   7   1    1.12    0.43
   4   7  -1    0.47    0.32
   4   7   1    0.99    0.40
   4   7   1    0.56    0.48
  -4   7  -1    1.38    0.54
   5   7  -1   18.45    1.82
  -5   7   1   18.55    1.84
  -5   7  -1   19.37    1.91
   5   7   1   13.50    2.05
   5   7   1   21.46    1.87
   6   7  -1   14.04    1.34
  -6   7   1   14.29    1.34
  -6   7  -1   13.40    1.36
   6   7   1   13.02    1.31
   0   8   1   51.15    4.45
   0   8   1   38.93    3.68
   0   8  -1   51.33    4.46
   0   8  -1   39.72    3.68
  -1   8   1   14.26    1.58
   1   8  -1   14.43    1.55
   1   8  -1   20.81    2.29
   1   8   1   18.42    1.62
  -1   8  -1   18.71    1.64
   1   8   1   16.84    1.61
   2   8  -1   64.64    5.87
   2   8  -1   81.60    6.75
  -2   8   1   69.70    5.99
  -2   8  -1   68.45    5.95
   2   8   1   80.89    6.71
   2   8   1   67.63    5.99
  -2   8  -1   89.97    7.35
   3   8  -1   25.81    2.98
  -3   8   1   29.90    2.42
   3   8   1   24.42    2.37
  -3   8  -1   21.17    2.43
  -3   8  -1   26.00    2.37
   3   8   1   25.07    2.95
  -4   8   1   15.87    1.70
   4   8  -1   17.14    2.19
  -4   8   1   15.14    1.63
  -4   8  -1   15.04    1.75
   4   8   1   16.83    2.15
   5   8  -1    1.04    0.39
   5   8  -1    1.78    0.74
  -5   8   1    0.93    0.41
  -5   8  -1    1.93    0.54
   5   8   1    2.43    0.83
   5   8   1    1.70    0.45
   6   8   1    1.61    0.61
   0   9  -1   47.32    4.39
   0   9  -1   35.12    3.42
   0   9   1   48.74    4.39
   0   9   1   35.16    3.43
  -1   9   1    7.51    1.57
  -1   9   1    4.43    0.69
   1   9  -1    4.12    0.68
   1   9  -1    7.20    1.48
   1   9  -1    5.08    0.71
   1   9   1    3.81    0.65
   1   9   1    5.46    1.29
  -1   9  -1    4.73    0.71
   1   9   1    3.28    0.65
  -1   9  -1    7.00    1.79
  -2   9   1   17.09    1.70
   2   9  -1   17.69    2.49
   2   9  -1   17.34    1.61
  -2   9   1   14.39    2.58
   2   9  -1   17.39    1.69
   2   9   1   16.78    1.70
   2   9   1   14.66    2.30
  -2   9  -1   14.39    2.56
  -2   9  -1   19.13    1.72
  -3   9   1   16.52    1.81
   3   9  -1   18.06    2.52
  -3   9  -1   18.33    1.84
   3   9   1   20.56    2.58
   4   9  -1   17.96    1.95
   4   9  -1   21.01    2.54
   4   9   1   21.76    2.57
   4   9   1   20.45    1.98
   5   9  -1    1.19    0.38
   5   9  -1    0.37    0.57
   5   9   1    0.58    0.52
   5   9   1    0.77    0.32
  -5   9  -1    1.06    0.54
   0  10   1   23.48    2.95
   0  10  -1   21.60    2.07
   0  10  -1   19.43    2.88
  -1  10   1   58.77    6.01
   1  10  -1   59.39    4.76
   1  10  -1   55.71    5.69
  -1  10  -1   56.66    5.97
   1  10   1   57.20    5.68
   1  10   1   51.48    4.65
   1  10   1   58.93    4.74
   2  10  -1   64.84    6.22
  -2  10   1   56.54    6.39
   2  10  -1   62.00    5.14
   2  10  -1   61.16    5.06
   2  10   1   60.09    5.13
   2  10   1   66.10    6.22
   3  10  -1    8.59    1.92
  -3  10   1   10.24    1.21
   3  10  -1   10.79    1.20
   3  10   1    9.41    1.89
  -3  10  -1   11.13    1.24
   3  10   1    8.58    1.13
  -4  10   1   32.07    2.87
   4  10  -1   27.81    3.36
   4  10  -1   34.29    2.85
   4  10   1   28.94    3.40
   4  10   1   34.03    2.84
  -4  10  -1   32.45    2.92
   5  10  -1    2.02    0.42
   5  10   1    0.89    0.63
   5  10   1    1.58    0.39
   0  11  -1    4.02    1.55
   0  11   1    3.35    1.35
   0  11  -1    2.28    0.59
   0  11   1    2.32    0.59
   1  11  -1    3.59    0.70
   1  11  -1    3.62    1.50
  -1  11   1    2.96    1.39
  -1  11   1    2.12    0.60
   1  11   1    3.59    0.68
  -1  11  -1    1.99    0.57
   1  11   1    3.43    0.85
   1  11   1    4.21    1.45
  -1  11  -1    4.34    1.63
   2  11  -1   33.54    2.92
   2  11  -1   30.86    2.93
  -2  11   1   31.97    4.31
   2  11  -1   36.99    4.18
   2  11   1   36.30    4.15
   2  11   1   32.29    2.96
   3  11  -1   36.47    3.25
  -3  11   1   37.99    3.34
   3  11  -1   38.27    4.20
   3  11   1   39.85    4.25
  -3  11  -1   37.88    3.33
   3  11   1   36.51    3.26
  -4  11   1    4.84    0.75
   4  11  -1    4.20    0.67
   4  11   1    5.40    0.72
   4  11   1    4.56    1.23
   0  12  -1   68.36    4.97
   0  12  -1   48.79    6.15
   0  12   1   53.62    6.12
  -1  12   1   10.14    1.40
   1  12  -1   11.59    2.63
  -1  12   1   13.71    2.69
   1  12  -1   14.56    1.46
  -1  12  -1   12.88    2.78
   1  12   1   14.50    2.64
   1  12   1   14.72    1.46
  -2  12   1    3.47    0.71
   2  12  -1    3.09    0.63
  -2  12  -1    4.04    0.72
   2  12   1    3.50    0.64
   2  12   1    2.02    1.15
  -3  12   1    1.14    0.42
   3  12  -1    0.87    0.34
   3  12  -1    2.34    1.20
   3  12   1    1.28    0.90
  -3  12  -1    0.44    0.33
   3  12   1    0.75    0.31
   4  12  -1    3.28    0.52
   4  12   1    3.21    0.50
   0  13  -1    2.01    0.56
   0  13   1    0.46    1.09
   0  13   1    1.65    0.51
   0  13  -1    1.19    1.37
  -1  13   1    1.36    0.50
   1  13  -1    1.81    1.32
   1  13  -1    1.75    0.48
  -1  13   1    0.90    1.12
  -1  13  -1    1.63    0.50
   1  13   1    0.32    1.05
   1  13   1    1.31    0.42
  -2  13   1    4.02    0.72
  -2  13  -1    4.40    0.73
   2  13   1    4.27    1.44
   3  13  -1    2.92    0.52
  -3  13   1    3.53    0.62
  -3  13  -1    3.52    0.61
   3  13   1    3.02    0.52
   3  13   1    2.40    1.03
   0  14   1    0.94    0.37
   0  14  -1    1.06    0.40
   0  14   1    0.08    0.96
  -1  14   1   13.83    1.44
   1  14  -1   12.19    1.31
  -1  14  -1   13.75    1.45
  -2  14   1    2.38    0.55
   2  14   1    2.30    1.10
  -2  14  -1    1.74    0.48
   1   0   2  103.06    7.69
  -1   0  -2   91.89    7.64
   2   0   2  340.83   31.29
  -2   0   2  461.52   31.46
  -2   0  -2  458.03   31.47
   2   0   2  364.27   31.41
  -3   0  -2   24.93    2.90
   3   0   2   31.78    3.02
  -3   0   2   28.36    2.93
   4   0  -2   48.96    4.00
  -4   0   2   51.29    4.06
   4   0   2   48.55    4.08
   4   0  -2   44.16    5.06
  -4   0  -2   48.95    4.15
  -5   0  -2   11.16    1.27
  -5   0   2    9.14    1.14
   5   0   2   11.65    1.23
   5   0  -2   10.40    1.14
  -6   0  -2   21.84    1.89
  -6   0   2   16.90    1.78
   6   0   2   15.34    2.13
   6   0  -2   22.34    2.29
   6   0   2   21.14    1.86
   7   0  -2    6.27    0.98
  -7   0   2    6.71    0.72
   7   0   2    7.88    1.11
   0  -1   2    7.10    0.68
   0   1  -2    8.55    0.72
  -1  -1  -2  224.77   17.46
  -2  -1  -2   44.48    4.73
   2  -1   2   60.73    4.80
  -2   1   2   54.27    4.50
   2   1   2   52.22    4.57
  -2   1  -2   62.24    4.58
  -2  -1   2   50.83    4.81
  -3   1   2  103.66    8.45
  -3  -1  -2   98.21    8.73
  -3   1  -2   99.58    8.49
  -3  -1   2  106.79    8.77
   4   1  -2    5.23    0.67
   4  -1   2    4.31    0.71
   4  -1   2    5.29    1.19
  -4   1   2    5.50    0.75
   4   1  -2    4.58    1.49
  -4  -1  -2    5.45    0.79
  -4  -1   2    4.90    0.68
   4  -1  -2    4.84    1.55
   4   1   2    6.81    1.19
   4  -1  -2    5.09    0.68
  -4   1  -2    4.34    0.78
   4   1   2    5.58    0.73
   5  -1   2    7.62    0.95
  -5  -1  -2    7.36    0.96
   5   1  -2    8.04    0.89
   5  -1  -2    7.42    0.90
  -5  -1   2    6.94    0.88
   5   1   2    5.65    0.85
  -5   1  -2    5.99    0.95
  -6   1   2   19.39    2.01
   6   1  -2   22.83    2.44
   6  -1   2   23.06    2.07
   6   1  -2   21.24    2.01
  -6  -1  -2   22.69    2.04
  -6  -1   2   22.37    2.02
   6   1   2   22.87    2.05
  -6   1  -2   22.60    2.08
   7  -1   2    6.71    1.02
  -7   1   2    6.51    0.68
   7   1  -2    5.23    0.97
   7   1   2    6.07    1.03
  -7  -1   2    6.90    0.72
  -7   1  -2    5.47    0.69
   7  -1  -2    6.15    0.96
   0  -2   2    0.38    0.12
   0  -2  -2    0.19    0.09
   0   2  -2    0.36    0.15
   0  -2   2    0.25    0.12
   1  -2   2  358.81   26.20
   1   2   2  367.50   26.08
  -1  -2   2  299.18   26.36
   1  -2  -2  340.69   26.18
  -2  -2  -2   56.16    5.50
  -2   2   2   63.02    5.10
  -2   2  -2   66.35    5.15
   2   2   2   64.65    5.13
  -2  -2   2   60.92    5.61
  -3   2   2    8.46    0.97
  -3  -2  -2    8.94    1.57
  -3   2   2    9.06    1.20
  -3   2  -2    8.76    1.01
   3   2   2    8.18    0.92
  -3   2  -2    8.85    1.24
  -3  -2   2    8.79    1.55
   4  -2   2   41.88    3.84
   4   2  -2   39.54    4.63
  -4  -2  -2   45.85    3.85
   4  -2   2   50.18    4.72
   4   2  -2   44.00    3.76
  -4   2   2   49.57    3.93
   4   2   2   52.11    3.88
   4   2   2   44.96    3.80
   4   2   2   46.91    4.12
   4  -2  -2   44.95    5.09
  -4  -2   2   43.62    3.75
  -4   2  -2   44.14    3.98
   5  -2   2   28.46    2.54
   5   2  -2   27.85    2.43
   5   2  -2   26.88    2.77
  -5  -2  -2   25.85    2.44
  -5  -2   2   26.61    2.41
   6   2  -2    7.97    1.25
  -6  -2  -2    6.66    1.09
  -6   2   2    7.17    0.95
   6  -2   2    8.38    0.99
  -6  -2   2    9.13    0.95
   6   2   2    7.69    1.27
  -6   2  -2    8.01    1.01
   6   2   2    8.75    0.97
  -7   2   2    2.62    0.46
  -7   2   2    2.59    0.42
   7  -2   2    2.92    0.70
  -7   2  -2    2.85    0.46
   7  -2  -2    3.15    0.73
   7   2   2    3.15    0.77
   0  -3   2  109.78    8.05
   0  -3  -2  107.05    8.10
   0  -3   2   94.04    8.12
   1  -3   2  117.49    9.76
  -1   3   2  133.49    9.71
  -1  -3   2  132.77   10.05
   1   3   2  115.52    9.53
  -2   3   2  164.14   11.48
  -2  -3  -2  130.53   11.94
  -2   3  -2  152.79   11.50
   2   3   2  148.86   11.33
  -2  -3   2  128.59   12.03
   3   3  -2   50.07    3.84
  -3  -3  -2   47.50    4.77
  -3   3   2   44.98    3.89
  -3   3   2   37.85    3.96
   3  -3   2   45.12    3.76
  -3   3   2   45.87    4.12
  -3   3  -2   52.21    3.98
  -3   3  -2   45.28    4.19
  -3  -3   2   49.04    4.82
   3   3   2   45.59    4.05
   3   3   2   48.05    3.83
   4   3  -2   25.55    2.29
   4   3  -2   22.26    2.51
  -4   3   2   29.93    2.49
   4  -3   2   25.30    2.36
   4  -3   2   21.24    2.95
   4   3   2   29.64    2.38
  -4   3  -2   26.97    2.54
   4   3   2   25.96    2.62
   4   3   2   29.23    2.38
   4  -3  -2   25.01    3.50
  -4  -3   2   26.15    2.26
   5  -3   2   27.25    2.54
   5   3  -2   28.07    2.44
   5   3  -2   27.25    2.79
  -5  -3   2   26.34    2.39
   6  -3   2   42.99    3.89
   6   3  -2   40.91    4.21
  -6   3   2   47.92    3.96
   6   3   2   48.29    4.42
   6   3   2   47.89    3.90
  -6   3  -2   50.17    4.03
  -6  -3   2   48.64    3.84
   7  -3   2   13.93    1.57
   7   3   2   13.20    1.58
   0  -4   2   81.47    6.49
   0  -4  -2   84.73    6.62
  -1   4   2    7.00    0.86
  -1  -4  -2    7.39    1.29
   1  -4   2    9.09    0.94
  -1   4  -2    9.56    0.98
   2  -4   2   15.29    1.80
  -2  -4  -2   16.14    2.28
  -2  -4   2   18.14    2.43
  -2   4  -2   18.72    1.77
   3  -4   2   33.04    2.92
  -3   4   2   33.68    3.27
   3  -4   2   32.28    3.59
   3   4  -2   38.98    3.03
  -3   4   2   31.58    2.93
  -3  -4  -2   37.83    4.15
  -3   4   2   37.04    3.11
   3   4  -2   30.54    3.17
  -3   4  -2   38.62    3.16
   3   4   2   39.00    3.01
   3   4   2   36.68    3.04
   3   4   2   37.48    3.30
   4  -4   2    5.61    1.39
   4   4  -2    6.48    1.04
   4  -4   2    6.47    0.84
  -4   4   2    7.12    0.95
   4   4  -2    6.69    0.80
   4   4   2    6.23    1.06
   4   4   2    7.27    0.89
  -4  -4   2    5.65    0.72
  -4   4  -2    7.22    1.05
   4   4   2    6.59    0.81
   4  -4  -2    5.78    1.81
   5   4  -2    5.91    1.04
  -5   4   2    4.73    0.79
   5  -4   2    4.89    0.79
  -5  -4   2    4.56    0.62
   5   4   2    2.82    0.85
   5   4   2    3.05    0.58
   5   4   2    5.19    0.79
   6   4  -2    3.89    0.67
   6   4  -2    4.28    1.00
   6   4   2    2.57    0.55
  -6   4  -2    2.74    0.65
   6   4   2    3.14    0.94
   0  -5  -2   18.41    1.41
   0  -5   2   16.49    1.50
   0   5  -2   17.33    1.83
   1  -5   2  127.94    9.30
  -1   5   2  113.05    9.31
  -1   5  -2  111.09    9.38
  -2  -5  -2    5.14    1.49
   2  -5   2    7.86    1.01
  -2   5   2    6.07    0.86
  -2   5   2    5.48    0.70
   2  -5  -2    4.23    1.11
  -2  -5   2    5.68    1.63
  -2   5  -2    7.28    0.96
   3  -5   2   44.97    4.07
  -3   5   2   50.70    4.26
  -3   5   2   46.48    4.10
   3  -5   2   48.68    4.78
   3   5  -2   52.28    4.54
  -3   5  -2   52.53    4.32
   3   5   2   53.67    4.16
   3   5   2   51.20    4.20
   3   5   2   53.49    4.57
  -4   5   2   20.94    1.93
  -4   5   2   16.90    1.70
   4  -5   2   16.44    1.75
   4   5  -2   18.82    2.11
   4   5   2   19.24    1.82
   4  -5  -2   17.64    2.95
   4   5   2   18.33    2.12
  -4   5  -2   18.13    1.99
   5   5  -2   20.07    2.15
   5  -5   2   19.10    1.83
  -5   5  -2   16.63    1.88
   5   5   2   14.50    2.02
   5   5   2   15.37    1.63
  -6   5   2    6.23    0.83
   6   5  -2    6.16    1.08
   6   5  -2    6.71    0.84
  -6   5   2    5.52    0.77
  -6   5  -2    6.56    0.89
   6   5   2    6.29    1.15
   0   6  -2   66.41    5.50
   0  -6   2   59.74    4.96
  -1   6   2   67.44    5.46
  -1   6   2   58.78    5.17
   1  -6  -2   73.94    5.47
  -1   6  -2   56.67    5.17
  -1   6  -2   67.87    5.58
   2  -6   2   50.51    4.32
  -2   6   2   58.71    4.74
   2   6  -2   50.44    4.33
  -2   6   2   55.72    4.43
   2  -6  -2   51.16    5.01
   2   6   2   56.38    4.84
   2   6   2   51.81    4.43
   2   6   2   57.53    4.44
  -2   6  -2   52.36    4.37
  -2   6  -2   57.19    4.81
   3   6  -2   40.68    3.61
  -3   6   2   36.74    3.22
  -3   6   2   36.09    3.11
   3  -6   2   38.95    3.77
   3  -6   2   32.65    3.05
   3   6   2   39.58    3.62
   3   6   2   37.89    3.14
   3   6   2   39.30    3.20
  -3   6  -2   32.51    3.04
  -3   6  -2   37.47    3.31
   3  -6  -2   31.40    4.03
  -4   6   2   42.11    3.48
   4   6  -2   38.35    3.73
  -4   6   2   35.68    3.26
   4  -6   2   33.60    3.31
   4  -6  -2   36.39    4.62
  -4   6  -2   41.43    3.62
   4   6   2   38.00    3.76
   4   6   2   44.28    3.44
  -5   6   2    6.58    0.90
   5   6  -2    4.73    1.05
   5   6  -2    5.27    0.85
  -5   6  -2    7.38    1.07
   5   6   2    5.84    1.12
   6   6  -2    2.11    0.72
  -6   6   2    2.82    0.54
   6   6  -2    2.57    0.53
  -6   6  -2    2.44    0.54
   6   6   2    3.49    0.90
   0   7  -2    7.83    1.33
   0   7  -2    9.47    0.96
   0   7   2   11.28    1.49
   0   7   2    8.49    0.96
  -1   7   2   15.48    1.72
   1   7  -2   15.95    1.38
  -1   7   2   16.63    1.42
   1   7   2   11.53    1.33
  -1   7  -2   18.69    2.40
   1   7   2   11.38    1.31
  -1   7  -2   13.84    1.36
   1   7   2   14.82    1.80
  -1   7  -2   14.24    1.79
  -2   7   2    4.04    1.28
   2  -7   2    6.06    0.69
  -2   7   2    6.47    0.79
   2   7  -2    6.19    0.71
   2   7  -2    5.68    1.16
  -2   7  -2    6.09    0.85
  -2   7  -2    6.03    0.74
   2   7   2    6.35    0.80
   2  -7  -2    5.29    1.06
  -2   7  -2    3.58    1.32
   2   7   2    5.14    1.08
   3   7  -2   20.55    2.38
   3  -7   2   18.06    2.29
   3  -7   2   16.42    1.75
  -3   7   2   18.86    1.84
   3   7   2   21.91    1.93
   3   7   2   20.60    2.36
  -3   7  -2   18.59    1.80
   3  -7  -2   20.05    2.66
   4   7  -2    2.48    0.87
  -4   7   2    1.79    0.50
  -4   7   2    2.02    0.57
  -4   7  -2    2.30    0.73
   4   7   2    0.96    0.60
   4   7   2    1.55    0.50
   5   7  -2    1.79    0.74
   5   7  -2    2.74    0.60
  -5   7   2    3.57    0.68
  -5   7  -2    2.85    0.68
   5   7   2    1.59    0.70
   5   7   2    3.31    0.63
  -6   7   2    4.13    0.63
   6   7  -2    4.87    0.68
  -6   7  -2    6.31    0.75
   6   7   2    5.00    0.68
   0   8   2    4.78    0.66
   0   8   2    3.76    0.58
   0   8  -2    5.87    0.68
  -1   8   2   93.76    7.13
  -1   8   2   91.20    7.98
   1   8  -2   86.05    7.06
   1   8  -2   84.74    7.68
   1   8   2   85.55    7.06
   1   8   2   84.03    7.05
  -1   8  -2   95.26    7.11
  -1   8  -2   89.00    8.00
   1   8   2   90.68    7.74
   2  -8   2   86.72    7.23
   2   8  -2   89.01    7.25
   2   8  -2   91.46    8.01
   2   8  -2   86.11    7.33
  -2   8   2   96.09    8.56
  -2   8   2  101.44    7.42
   2   8   2   92.36    7.37
   2   8   2   90.18    7.97
  -2   8  -2   91.13    7.31
   3   8  -2   84.37    7.52
   3   8  -2   89.93    6.94
  -3   8   2   93.83    6.95
  -3   8  -2   84.17    6.86
   3   8   2   80.50    7.53
  -3   8  -2   76.33    6.98
   4   8  -2    8.15    1.05
   4   8  -2    9.37    1.59
   4   8   2    6.87    1.00
   4   8   2    8.00    1.44
   5   8  -2    0.38    0.29
   5   8  -2    0.78    0.55
  -5   8   2    0.74    0.35
   5   8   2    0.33    0.28
   5   8   2    0.76    0.55
  -5   8  -2    0.63    0.40
   0   9  -2    0.58    0.65
   0   9   2    0.21    0.25
   0   9   2    0.06    0.46
   0   9  -2    0.13    0.21
  -1   9   2    4.46    0.71
   1   9  -2    4.90    0.68
  -1   9   2    4.52    1.44
   1   9  -2    2.66    1.10
   1   9  -2    2.96    0.63
   1   9   2    5.20    0.69
  -1   9  -2    3.72    1.42
   1   9   2    4.38    1.30
  -1   9  -2    4.35    0.66
   1   9   2    4.77    0.68
   2   9  -2   50.45    5.12
  -2   9   2   49.49    5.47
   2  -9   2   44.76    4.14
   2   9  -2   48.05    4.25
   2   9  -2   49.89    4.18
  -2   9  -2   54.36    4.29
   2   9   2   54.08    4.30
   2   9   2   55.29    5.18
   3   9  -2   22.84    2.15
  -3   9   2   21.89    2.17
   3   9  -2   26.18    3.02
   3   9   2   23.33    2.85
  -3   9  -2   19.20    2.11
   4   9  -2    8.60    1.09
   4   9   2    9.63    1.11
   5   9  -2    3.57    0.60
  -5   9  -2    3.09    0.63
   5   9   2    2.90    0.93
   5   9   2    3.63    0.59
   0  10   2   60.10    4.99
   0  10  -2   66.83    6.13
   0  10  -2   49.69    4.93
   0  10   2   65.68    6.04
   1 -10   2   23.26    2.20
  -1  10   2   26.50    3.44
   1  10  -2   29.02    2.37
   1  10  -2   27.24    3.32
   1  10   2   25.66    2.29
   1  10   2   22.71    3.07
  -1  10  -2   23.08    3.38
   1  10   2   22.49    2.23
   2  10  -2    6.16    0.81
   2  10  -2    8.54    1.94
  -2  10   2    3.05    1.38
  -2  10   2    4.05    0.80
   2  10  -2    6.20    0.88
  -2  10  -2    4.40    0.78
   2  10   2    8.77    1.73
   2  10   2    7.02    0.89
   3  10  -2    8.54    1.05
  -3  10   2    8.39    1.09
   3  10  -2    7.41    1.78
  -3  10  -2    8.50    1.07
   3  10   2    6.76    1.66
  -4  10   2    7.44    0.99
   4  10  -2    6.89    0.96
   4  10   2    7.73    0.97
   4  10   2    9.93    1.65
   5  10  -2    1.56    0.40
   5  10   2    1.73    0.72
   5  10   2    2.06    0.44
   0  11  -2    8.61    1.09
   0  11  -2   11.40    2.38
   0  11   2    5.67    1.72
   1  11  -2    5.19    0.80
   1  11  -2    5.98    1.80
   1  11   2    6.54    0.87
  -1  11  -2    3.92    0.83
   1  11   2    5.94    1.68
  -1  11  -2    4.22    1.66
   1  11   2    5.38    0.76
  -2  11   2    7.59    1.09
   2  11  -2   10.62    1.12
   2  11  -2    7.54    1.98
   2  11   2    9.05    1.98
  -3  11   2   39.28    3.33
   3  11  -2   34.75    3.19
  -3  11  -2   37.58    3.28
   4  11  -2    3.03    0.54
  -4  11   2    2.64    0.58
   4  11   2    2.05    0.88
   4  11   2    3.24    0.55
   0  12  -2    4.55    0.78
   0  12  -2    4.88    1.88
   0  12   2    4.50    1.66
  -1  12   2    3.32    0.74
  -1  12   2    2.40    1.37
   1  12  -2    2.27    1.48
   1  12  -2    4.08    0.68
  -1  12  -2    2.35    1.44
   1  12   2    3.18    1.41
   1  12   2    3.49    0.70
  -1  12  -2    2.34    0.61
   2  12  -2    6.01    0.87
  -2  12   2    6.73    0.97
   2  12   2    6.09    0.86
  -2  12  -2    7.17    0.96
   2  12   2   10.18    2.00
   3  12  -2    8.41    1.04
  -3  12   2    9.99    1.18
   3  12   2   10.02    1.09
  -3  12  -2   10.75    1.17
   3  12   2   11.23    1.97
   4  12  -2    6.50    0.75
   4  12   2    6.41    0.73
   4  12   2    5.17    1.25
   0  13   2    0.65    1.07
   0  13  -2    2.01    0.53
   0  13   2    2.33    0.62
  -1  13   2    9.10    2.30
   1  13  -2   11.28    1.22
  -1  13   2   12.21    1.34
   1  13   2    9.96    1.23
   1  13   2   10.33    2.44
  -1  13  -2   11.62    1.32
  -2  13   2    7.52    1.01
  -2  13  -2    8.70    1.05
   2  13   2    6.99    0.90
   2  13   2    9.05    1.99
  -3  13   2    5.94    0.80
  -3  13  -2    5.39    0.77
   3  13   2    5.60    0.69
   3  13   2    3.94    1.25
   0  14   2    5.94    1.87
   0  14   2    6.56    0.91
   0  14  -2    7.37    0.93
  -1  14   2    9.14    1.07
   1  14  -2    7.62    0.98
  -1  14  -2    8.77    1.07
  -2  14   2    2.03    0.50
  -2  14  -2    2.41    0.53
   0   0  -3    0.11    0.10
   0   0  -3    0.07    0.04
   0   0   3    0.12    0.08
  -1   0  -3  188.43   13.73
   1   0  -3  166.62   13.93
  -2   0  -3   27.50    2.62
  -2   0   3   28.03    2.60
   2   0   3   27.52    2.54
   3   0   3    9.42    0.98
  -3   0   3    9.79    1.40
  -3   0  -3    8.05    1.39
   3   0   3    9.27    1.31
   4   0   3    5.70    1.15
   4   0  -3    6.30    0.74
   4   0  -3    4.36    1.64
  -4   0   3    7.24    0.81
  -4   0  -3    6.14    0.89
   4   0   3    6.82    0.86
  -5   0  -3   69.91    5.78
   5   0  -3   69.42    5.62
   5   0   3   68.94    5.73
  -6   0   3    2.46    0.52
   6   0  -3    2.68    0.76
   6   0   3    2.12    0.74
  -6   0  -3    2.45    0.54
   6   0   3    3.00    0.55
  -7   0   3    0.44    0.20
   7   0  -3    0.16    0.42
  -7   0   3    0.48    0.25
   7   0   3    0.20    0.32
   0  -1   3   65.78    4.91
   0   1   3   58.87    4.85
   0  -1   3   61.92    4.82
  -1   1   3   74.51    5.72
   1  -1   3   82.68    5.86
  -1  -1   3   61.96    5.87
  -2  -1  -3   76.58    6.67
  -2  -1   3   74.91    6.66
  -2   1  -3   81.61    6.38
   2   1   3   79.32    6.36
  -3   1   3   64.22    5.40
   3  -1   3   64.07    5.01
  -3   1   3   65.05    5.04
  -3  -1  -3   54.41    5.61
   3   1   3   57.38    5.02
  -3   1  -3   61.76    5.47
   3   1   3   61.84    5.38
  -3  -1   3   69.15    5.76
   4  -1   3   40.22    3.49
  -4   1   3   40.70    3.44
  -4  -1  -3   39.04    3.51
   4  -1   3   45.45    4.18
   4   1  -3   37.52    3.35
  -4  -1   3   39.47    3.38
  -4   1  -3   37.72    3.53
   4   1   3   44.21    3.51
   5   1  -3  101.55    8.28
  -5  -1  -3  111.09    8.44
   5  -1   3   99.23    8.40
  -5   1  -3  104.96    8.49
  -5  -1   3  106.42    8.32
   6  -1   3    9.09    1.02
   6  -1   3    7.24    1.25
  -6  -1  -3    8.70    0.99
   6   1  -3    8.62    1.31
  -6   1   3    8.68    0.99
  -6   1  -3    8.28    1.02
   6   1   3    8.53    0.99
  -6  -1   3    7.67    0.94
  -7   1   3    1.78    0.37
   7  -1   3    1.88    0.61
  -7   1   3    1.66    0.32
  -7  -1   3    1.24    0.33
   7   1   3    1.20    0.54
   7  -1  -3    0.79    0.55
   0  -2   3  768.23   55.84
   0  -2   3  697.61   55.82
  -1   2   3  696.45   55.34
   1  -2   3  725.01   55.49
   1  -2   3  778.58   55.46
   1  -2  -3  724.07   55.43
  -1  -2   3  673.64   55.60
   1   2   3  763.00   55.35
  -2  -2  -3   84.48    7.97
  -2   2   3  100.46    7.59
  -2   2  -3  104.46    7.66
  -2  -2   3   85.88    8.06
   2   2   3   98.49    7.58
  -3  -2  -3    1.12    0.75
  -3   2   3    1.69    0.56
   3   2  -3    1.47    0.57
   3  -2   3    1.55    0.35
  -3   2   3    1.60    0.42
  -3   2  -3    2.73    0.75
   3   2   3    2.22    0.55
  -3   2  -3    2.19    0.48
  -3  -2   3    2.04    0.42
   3   2   3    2.21    0.45
  -3  -2   3    2.24    0.89
   4   2  -3    4.80    1.56
   4   2  -3    6.79    0.74
   4  -2   3    6.08    0.79
  -4   2   3    6.62    0.80
  -4  -2  -3    5.56    0.82
   4   2   3    4.68    0.88
   4   2   3    4.59    0.70
  -4   2  -3    4.61    0.91
  -4  -2   3    3.83    0.62
   4  -2  -3    4.51    1.73
   4   2   3    6.94    1.10
   5   2  -3   22.07    1.99
  -5  -2  -3   21.54    2.04
   5  -2   3   20.09    2.07
   5   2  -3   22.24    2.35
  -5  -2   3   21.14    1.97
   6   2  -3   33.63    3.40
  -6   2   3   35.93    3.13
   6  -2   3   37.38    3.16
   6   2   3   38.21    3.60
   6   2   3   35.90    3.10
  -6   2  -3   36.51    3.19
  -6  -2   3   35.62    3.05
  -7   2   3   11.63    1.12
   7  -2   3   12.43    1.44
   7   2   3   11.64    1.49
   0   3  -3    8.70    1.04
   0  -3   3   11.04    1.04
   0  -3   3   10.39    0.96
   1  -3   3  170.91   12.12
  -1   3  -3  140.68   12.04
   1   3   3  153.24   11.88
  -2  -3  -3    7.49    1.23
   2  -3   3    4.73    0.77
  -2  -3   3    4.30    1.25
  -2   3  -3    4.72    0.72
  -3   3   3    6.28    0.76
   3  -3   3    7.57    0.78
  -3   3   3    6.39    1.01
  -3  -3  -3    6.80    1.54
   3   3  -3    7.43    0.83
  -3   3   3    6.68    0.85
   3  -3   3    5.20    1.11
  -3   3  -3    7.70    1.14
   3   3   3    7.49    0.81
  -3  -3   3    6.76    0.76
   3   3   3    7.03    0.94
  -3  -3   3    7.72    1.58
   3   3   3    6.97    1.01
  -3   3  -3    8.56    0.96
   4   3  -3    7.24    1.09
  -4   3   3    8.75    0.98
   4   3  -3    5.99    2.13
   4  -3   3    5.34    1.29
   4   3  -3    8.00    0.87
   4  -3   3    7.65    0.92
   4  -3  -3    6.24    1.98
   4   3   3    7.13    0.87
   4   3   3    7.01    1.09
  -4  -3   3    7.11    0.81
   4   3   3    6.97    0.90
  -4   3  -3    6.57    1.02
   5  -3   3   10.10    1.17
   5   3  -3   10.72    1.37
  -5   3   3    6.70    1.02
   5   3   3    8.61    1.33
  -5   3  -3    6.63    1.11
   5   3   3    8.86    1.02
   6  -3   3   11.18    1.23
   6   3  -3    8.98    1.45
  -6   3   3   10.99    1.21
   6   3   3   11.63    1.19
   6   3   3   11.11    1.60
  -6   3  -3   11.80    1.29
  -6  -3   3   11.55    1.14
   0  -4   3   44.12    3.45
   0   4  -3   41.75    3.67
   0  -4  -3   41.43    3.50
  -1  -4  -3   35.46    3.66
   1  -4   3   48.61    3.61
  -1   4   3   39.57    3.47
  -1   4  -3   45.08    3.61
  -2   4   3   45.38    3.68
  -2  -4   3   37.36    4.38
  -2   4  -3   44.97    3.77
  -3   4   3   56.58    4.69
  -3   4   3   58.35    4.79
   3   4  -3   53.39    4.93
   3  -4   3   60.13    4.69
   3  -4   3   57.03    5.34
  -3  -4  -3   62.80    5.94
  -3   4  -3   65.46    4.90
   3   4   3   57.17    4.75
  -3  -4   3   50.80    4.62
   3   4   3   60.40    5.05
   3   4   3   59.11    4.72
  -4   4   3   15.19    1.54
   4   4  -3   10.97    1.58
   4  -4   3   13.53    1.45
   4   4   3   13.92    1.72
   4   4   3   15.83    1.45
   4   4   3   18.05    1.55
   4  -4  -3   13.51    2.65
  -4  -4   3   14.33    1.36
  -5   4   3   16.28    1.59
   5   4  -3   14.75    1.81
   5  -4   3   15.63    1.63
  -5  -4   3   14.46    1.40
   5   4   3   14.99    1.51
  -5   4  -3   10.35    1.56
  -6   4   3    5.76    0.71
   6  -4   3    4.85    0.73
   6   4  -3    3.63    0.94
  -6   4   3    5.60    0.73
   6   4  -3    5.73    0.75
  -6   4  -3    4.28    0.75
   6   4   3    3.62    1.03
  -6  -4   3    3.32    0.60
   6   4   3    3.63    0.60
   0   5  -3   38.94    3.47
   0  -5   3   37.14    3.11
   1  -5   3   29.73    2.49
  -1   5   3   25.68    2.44
   2  -5   3   44.92    3.62
  -2   5   3   41.55    3.51
  -2   5   3   34.12    3.27
  -2  -5   3   36.83    4.45
  -2   5  -3   43.09    3.64
  -3   5   3   13.80    1.42
  -3   5   3   13.71    1.35
   3  -5   3   12.79    1.81
   3  -5   3   14.85    1.34
   3   5  -3   11.32    1.63
   3   5   3   14.11    1.35
   3   5   3   13.36    1.39
   3   5   3   13.02    1.67
  -3   5  -3   16.40    1.55
   4   5  -3    4.18    0.94
   4  -5   3    4.04    0.65
   4  -5   3    2.43    1.07
  -4   5   3    4.75    0.74
   4   5   3    3.92    0.69
   4  -5  -3    4.93    1.86
   4   5   3    4.54    0.94
  -4   5  -3    3.51    0.83
   4   5   3    3.85    0.60
  -5   5   3    0.04    0.27
   5   5  -3    0.18    0.47
   5  -5   3   -0.03    0.30
  -5   5  -3   -0.08    0.32
   5   5   3   -0.09    0.34
   5   5   3    0.03    0.19
   5   5   3   -0.05    0.25
   6   5  -3    1.37    0.42
   6   5  -3    1.33    0.90
  -6   5   3    1.58    0.41
  -6   5   3    1.73    0.43
   6   5   3    1.72    0.62
  -6   5  -3    1.25    0.44
   0   6  -3  114.07    9.73
   0  -6   3  122.45    9.26
  -1   6   3   24.09    2.18
   1   6  -3   21.97    2.13
  -1   6   3   24.92    2.37
   1  -6   3   27.43    2.34
  -1   6  -3   29.67    2.62
  -1   6  -3   25.71    2.14
   1  -6  -3   22.99    2.44
  -2   6   3   12.39    1.51
   2   6  -3   12.04    1.25
   2  -6   3   15.40    1.61
  -2   6   3   13.69    1.33
   2  -6   3   12.70    1.25
  -2   6   3   17.18    2.21
   2   6   3   13.62    1.32
  -2   6  -3   11.82    1.26
   2   6   3   13.85    1.69
   2   6   3   13.98    1.37
  -3   6   3   30.02    2.86
  -3   6   3   30.11    2.82
   3  -6   3   28.58    2.77
   3   6  -3   32.45    3.25
   3  -6   3   32.90    3.40
   3   6   3   34.23    2.92
   3   6   3   34.93    2.85
  -3   6  -3   37.00    3.06
   3   6   3   36.48    3.35
   4   6  -3   10.21    1.44
   4  -6   3    7.71    1.04
  -4   6   3    9.08    1.05
  -4   6   3    9.28    1.13
   4   6   3    6.90    0.95
   4   6   3   11.30    1.18
  -4   6  -3    9.08    1.29
   5   6  -3    8.90    1.05
   5  -6   3    6.83    1.03
   5   6  -3    6.37    1.20
  -5   6   3    8.69    1.01
   5   6   3    7.64    0.90
  -5   6  -3    8.73    1.17
   5   6   3    5.20    1.13
   6   6  -3    4.83    0.72
  -6   6   3    4.95    0.69
  -6   6  -3    6.72    0.85
   0   7   3    2.17    0.45
   0   7  -3    3.24    0.47
   0   7  -3    2.26    0.82
  -1   7   3    5.90    1.24
   1  -7   3    5.11    0.80
   1   7  -3    4.97    0.69
  -1   7   3    5.26    0.73
   1   7   3    6.74    0.76
   1   7   3    6.19    0.74
   1   7   3    7.89    1.20
  -1   7  -3    7.71    1.43
  -1   7  -3    6.01    0.70
  -2   7   3   77.86    6.53
  -2   7   3   70.69    5.36
   2  -7   3   61.66    5.22
   2  -7   3   65.96    5.59
   2   7  -3   58.00    5.72
   2   7  -3   63.24    5.22
  -2   7  -3   61.37    5.25
   2   7   3   63.31    5.32
   2   7   3   67.53    5.86
   3  -7   3   57.13    4.88
   3  -7   3   54.42    5.42
   3   7  -3   58.35    5.47
  -3   7   3   64.70    5.00
   3   7   3   68.38    5.06
  -3   7  -3   57.92    4.87
   3  -7  -3   52.00    5.86
  -3   7  -3   64.44    5.14
   3   7   3   62.06    5.53
   4  -7   3   59.63    5.62
   4   7  -3   65.17    6.07
  -4   7   3   74.05    5.66
  -4   7   3   77.53    5.71
   4   7   3   63.36    5.66
  -4   7  -3   74.42    5.95
  -5   7   3   25.83    2.31
   5   7  -3   25.25    2.36
  -5   7  -3   24.16    2.48
   5   7   3   25.71    2.34
  -6   7   3    3.75    0.56
   6   7  -3    4.42    0.62
  -6   7  -3    4.59    0.67
   6   7   3    4.09    0.64
   0   8   3    5.93    0.77
   0   8   3    7.16    0.86
   0   8  -3    8.56    1.51
   0   8  -3    7.60    0.86
   0   8   3    8.10    1.39
  -1   8   3   35.85    2.86
  -1   8   3   38.98    3.78
   1   8  -3   32.83    3.55
   1   8  -3   29.22    2.75
  -1   8  -3   28.87    3.53
   1   8   3   31.46    2.76
   1   8   3   29.06    2.73
  -1   8  -3   32.13    2.78
   1   8   3   33.96    3.42
   2  -8   3   28.73    2.87
   2   8  -3   39.30    4.30
   2   8  -3   30.68    2.89
  -2   8   3   40.70    4.25
  -2   8   3   34.15    3.04
  -2   8  -3   36.28    3.11
   2   8   3   31.42    2.98
   2   8   3   37.09    3.67
  -2   8  -3   36.62    2.99
   3   8  -3   48.79    4.97
  -3   8   3   47.81    3.99
  -3   8  -3   43.71    4.06
   3   8   3   47.52    4.63
  -3   8  -3   43.59    3.88
   4   8  -3    1.02    0.44
  -4   8   3    1.29    0.44
   4   8   3    0.67    0.34
   4   8   3    1.32    0.68
  -4   8  -3    1.06    0.53
   5   8  -3   14.35    1.46
  -5   8  -3   12.76    1.51
   5   8   3   14.46    1.43
   5   8   3   12.87    1.83
   6   8   3    3.58    0.89
   0   9  -3    2.99    0.55
   0   9   3    2.74    0.51
   0   9   3    3.77    0.61
   0   9  -3    5.12    1.44
  -1   9   3   57.70    4.90
  -1   9   3   64.66    6.01
   1   9  -3   58.14    4.85
   1   9  -3   62.17    6.25
   1   9   3   65.54    5.76
  -1   9  -3   57.59    4.86
   1   9   3   55.04    4.81
   1   9   3   57.81    4.83
  -1   9  -3   53.51    5.77
   2   9  -3   49.52    4.05
   2  -9   3   44.00    4.01
   2   9  -3   45.94    4.09
   2   9   3   48.16    4.92
  -2   9  -3   52.22    4.12
   2   9   3   52.08    4.15
   3  -9   3   12.59    1.46
   3   9  -3   15.76    1.53
  -3   9  -3   17.50    2.23
   3   9   3   12.36    1.45
   4   9  -3    4.57    0.78
   4   9   3    5.79    0.83
   4   9   3    6.11    1.29
  -4   9  -3    8.73    1.14
   5   9  -3    5.44    0.75
   5   9   3    4.71    1.09
  -5   9  -3    4.25    0.77
   5   9   3    5.22    0.72
   0  10  -3    2.28    0.57
   0  10   3    3.74    0.71
  -1  10   3   50.73    5.00
   1 -10   3   68.09    4.99
  -1  10   3   51.16    6.01
   1  10   3   67.41    5.03
   1  10   3   62.08    4.96
  -1  10  -3   56.88    6.12
   1  10   3   63.72    6.01
   2  10  -3   25.29    2.36
  -2  10   3   19.86    2.35
   2  10  -3   28.32    2.35
   2  10   3   29.23    2.45
  -2  10  -3   25.76    2.39
   3  10  -3    9.36    1.14
  -3  10   3   10.32    1.24
  -3  10  -3    9.85    1.21
   4  10  -3    1.97    0.51
  -4  10   3    1.65    0.50
   4  10   3    2.89    1.00
   4  10   3    1.69    0.48
   5  10  -3    7.54    0.84
   5  10   3    5.62    1.21
   5  10   3    7.47    0.82
   0  11   3    5.77    1.76
   0  11  -3    7.23    0.97
   1 -11   3   38.01    3.12
   1  11  -3   41.08    3.23
  -1  11   3   30.67    3.19
   1  11   3   38.06    3.17
  -1  11  -3   37.65    4.56
   1  11   3   36.28    3.09
   1  11   3   27.99    3.93
   2  11  -3    9.04    1.09
   2  11  -3    9.56    1.07
  -2  11   3    7.65    1.11
   2  11   3   12.04    1.18
   2  11   3    6.14    1.77
  -3  11   3   30.74    2.69
   3  11  -3   26.80    2.54
   3  11   3   27.88    2.57
  -3  11  -3   27.50    2.59
   3  11   3   30.77    3.51
   4  11  -3    7.31    0.85
   4  11   3    6.55    0.83
   4  11   3    6.70    1.40
   0  12  -3    0.34    0.32
   0  12   3    0.32    0.36
   0  12   3    0.04    0.80
   1  12  -3   10.65    1.22
  -1  12   3   10.49    1.29
   1  12   3    9.41    1.21
   1  12   3   11.12    2.25
  -2  12   3   31.20    2.84
   2  12  -3   32.93    2.72
  -2  12  -3   33.89    2.82
   2  12   3   29.89    2.70
   2  12   3   23.94    3.56
   3  12  -3    9.55    1.06
  -3  12   3   11.75    1.23
  -3  12  -3    9.29    1.14
   3  12   3    9.58    1.07
   4  12  -3   15.44    1.47
   4  12   3   16.90    1.49
   0  13  -3   15.54    1.61
   0  13   3   14.52    2.81
   0  13   3   15.30    1.61
  -1  13   3   10.44    2.32
  -1  13   3   13.51    1.42
   1  13  -3   11.43    1.28
   1  13   3   10.61    2.40
  -1  13  -3   12.01    1.37
   2  13  -3    1.65    0.43
  -2  13   3    2.39    0.56
  -2  13  -3    1.88    0.52
   2  13   3    1.51    0.42
   2  13   3    0.61    0.88
  -3  13   3    1.51    0.43
  -3 -13   3    2.32    0.56
  -3  13  -3    1.83    0.46
   3  13   3    0.73    0.76
   3  13   3    1.89    0.40
   0  14   3    1.55    0.46
   0  14  -3    1.40    0.44
   0  14   3    0.72    1.01
  -1  14   3    2.75    0.60
   1  14  -3    2.74    0.54
   1  14   3    0.67    1.04
  -1  14  -3    2.80    0.60
  -2  14   3    1.72    0.48
   2  14   3    0.71    0.84
  -2  14  -3    1.81    0.46
   0   0   4  397.79   29.79
   0   0  -4  381.42   29.65
  -1   0  -4  441.83   32.87
   1   0  -4  403.07   33.20
  -1   0   4  445.73   32.89
   2   0   4   12.95    1.44
  -2   0  -4   14.95    1.55
  -2   0   4   14.30    1.51
  -3   0   4  140.42   10.35
   3   0   4  115.21   10.69
  -3   0  -4  120.56   10.86
   3   0   4  145.27   10.39
  -3   0   4  140.45   10.86
  -4   0   4   20.45    1.81
   4   0   4   19.83    2.33
   4   0   4   19.70    1.90
  -4   0  -4   17.73    1.90
  -5   0   4   64.21    4.90
   5   0   4   54.03    4.93
   6   0  -4    0.22    0.38
   6   0   4    0.17    0.24
  -6   0   4    0.17    0.22
  -6   0  -4    0.19    0.26
   6   0   4    0.13    0.34
   7   0   4    1.42    0.56
   0   1   4   89.19    6.61
   0  -1   4   79.88    6.50
   1  -1   4  182.50   17.21
  -1   1   4  243.26   17.11
   1  -1   4  237.73   17.19
   1   1   4  248.07   17.23
  -1   1  -4  205.17   17.13
   1  -1  -4  239.91   17.34
  -1  -1   4  206.76   17.28
   2  -1   4   17.41    1.97
  -2   1   4   21.31    1.93
  -2  -1  -4   18.39    2.17
   2  -1   4   20.89    2.13
   2   1   4   24.10    2.01
  -2  -1   4   22.65    2.27
  -2   1  -4   21.16    1.97
  -3   1   4   74.02    5.49
   3  -1   4   72.60    5.46
  -3   1   4   71.71    5.82
  -3  -1   4   66.26    5.42
   3   1   4   63.16    5.46
  -3   1  -4   69.84    5.51
   3   1   4   58.92    5.71
  -3  -1   4   72.15    6.13
  -3   1  -4   63.16    5.86
  -4   1   4   46.52    3.73
  -4  -1  -4   42.07    3.80
   4   1  -4   39.21    3.63
   4  -1   4   45.94    4.39
   4  -1   4   43.64    3.79
  -4   1  -4   42.37    3.83
   4   1   4   48.89    3.83
  -4  -1   4   45.51    3.68
  -5   1   4   19.73    2.06
  -5  -1   4   25.73    2.10
   5   1   4   22.04    2.49
  -6  -1  -4    3.90    0.66
   6   1  -4    4.42    0.90
  -6   1   4    4.24    0.61
   6  -1   4    3.96    0.65
   6  -1   4    4.26    0.94
   6   1   4    3.32    0.59
   6   1   4    2.93    0.88
  -6  -1   4    3.67    0.57
  -6   1  -4    2.56    0.59
   7  -1   4    1.32    0.52
  -7   1   4    1.33    0.34
  -7  -1   4    0.99    0.34
   7   1   4    1.42    0.56
   0   2   4   62.68    5.06
   0  -2   4   59.19    5.06
   0  -2   4   66.85    5.13
   0  -2  -4   68.21    4.97
  -1   2   4  123.58    9.03
  -1  -2   4  110.56    9.29
   1   2   4  120.46    9.11
  -1   2  -4  110.27    9.13
   1  -2  -4  120.18    9.19
  -2   2   4   59.59    5.11
  -2  -2   4   59.65    5.66
   2   2   4   68.66    5.18
  -2   2  -4   64.26    5.21
  -3   2   4   16.95    1.88
   3  -2   4   18.52    1.63
   3   2  -4   18.24    1.65
  -3   2   4   17.85    1.68
  -3  -2  -4   16.14    2.31
  -3  -2   4   21.26    2.46
  -3   2  -4   17.57    2.01
   3   2   4   16.98    1.66
  -3  -2   4   17.31    1.60
   3   2   4   19.42    1.91
   3   2   4   15.57    1.80
   3   2   4   17.39    1.60
  -3   2  -4   21.60    1.77
   4  -2   4    6.76    0.90
  -4  -2  -4    5.73    0.91
   4   2  -4    8.11    0.86
   4  -2   4    7.10    1.36
  -4   2   4    6.32    0.85
   4  -2  -4    4.64    1.85
  -4   2  -4    7.24    1.00
  -4  -2   4    7.45    0.82
   4   2   4    7.25    1.20
   4   2   4    7.32    1.12
   4   2   4    7.56    0.90
  -5   2   4    7.33    0.92
   5   2   4    6.10    0.88
   5   2   4    6.35    1.15
  -5  -2   4    8.37    0.89
   6  -2   4    6.49    0.92
   6  -2   4    7.01    1.21
  -6   2   4    7.83    0.92
  -6   2   4    7.04    0.89
   6   2  -4    5.48    1.11
  -6   2  -4    8.52    1.01
  -6  -2   4    8.46    0.92
  -6  -2   4    8.69    0.90
   6   2   4    7.74    1.26
   6   2   4    8.34    0.93
   7   2   4    1.29    0.53
   0  -3   4   42.44    3.39
   0  -3   4   40.00    3.41
   0  -3  -4   40.29    3.30
   0   3  -4   42.40    3.51
   1  -3   4  477.24   35.96
   1  -3   4  410.60   35.95
  -1   3   4  517.88   35.82
   1  -3  -4  459.62   35.91
   1   3   4  465.13   35.79
  -1   3  -4  484.98   35.96
  -2   3   4   66.84    4.80
  -2  -3  -4   51.34    5.23
   2   3   4   56.53    4.70
  -2  -3   4   54.80    5.44
  -2   3  -4   58.65    4.87
   3  -3   4   81.43    7.63
  -3   3   4   89.94    7.14
   3  -3   4   92.27    7.08
  -3   3   4   84.18    7.33
  -3  -3  -4   82.84    7.98
  -3  -3   4   82.88    7.02
  -3  -3   4   96.86    8.17
   3   3   4   94.66    7.29
   3   3   4   90.71    7.37
   3   3   4   97.26    7.07
   3   3   4   91.15    7.11
   3   3   4   92.84    7.13
  -3   3  -4   84.59    7.49
   4  -3   4   16.64    1.58
  -4   3   4   18.78    1.61
   4   3  -4   13.93    1.70
   4   3   4   16.05    1.54
  -4  -3   4   14.18    1.43
   4   3   4   16.06    1.55
   4  -3  -4   11.29    2.54
  -4   3  -4   14.50    1.65
   4   3   4   14.88    1.78
  -5   3   4    0.81    0.35
   5   3  -4    0.46    0.43
   5  -3   4    1.08    0.46
  -5   3  -4    0.52    0.42
   5   3   4    0.35    0.24
   5   3   4    0.37    0.38
  -5  -3   4    1.03    0.33
  -6   3   4   42.37    3.34
   6   3  -4   39.76    3.80
  -6   3   4   43.72    3.40
   6  -3   4   38.23    3.39
   6   3  -4   33.40    3.58
  -6  -3   4   38.44    3.27
   6   3   4   38.61    3.82
  -6   3  -4   40.65    3.47
   6   3   4   38.02    3.33
  -6  -3   4   41.18    3.30
   0   4  -4    6.38    0.92
   0  -4  -4    7.75    0.81
  -1   4   4   51.33    3.94
  -1  -4  -4   42.60    4.12
   1  -4   4   54.52    4.13
  -1   4  -4   45.55    4.07
  -2  -4  -4   25.62    3.27
  -2   4   4   35.10    2.78
  -2   4   4   29.67    2.62
  -2  -4   4   30.25    3.58
  -2   4  -4   33.70    2.90
  -3  -4  -4    5.40    1.59
   3  -4   4    5.98    0.69
  -3   4   4    5.32    0.74
  -3   4   4    3.97    0.85
   3  -4   4    5.00    1.04
  -3   4   4    5.40    0.70
   3   4   4    6.05    0.98
   3   4   4    6.01    0.78
  -3   4  -4    6.99    0.85
   3   4   4    6.03    0.71
  -3  -4   4    4.71    0.63
   4   4  -4    3.69    0.82
  -4   4   4    4.29    0.68
   4  -4   4    2.97    0.63
  -4   4  -4    2.96    0.74
   4  -4  -4    3.16    1.58
   4   4   4    3.66    0.59
   4   4   4    3.65    0.82
   4   4   4    4.01    0.68
  -4  -4   4    3.86    0.54
   5  -4   4    4.18    0.82
   5   4  -4    3.45    0.91
  -5   4   4    4.35    0.68
  -5  -4   4    3.57    0.55
  -5   4  -4    2.19    0.71
   5   4   4    2.77    0.53
   5   4   4    2.07    0.81
  -6   4   4    0.45    0.30
   6   4  -4    0.39    0.32
   6  -4   4    0.24    0.29
  -6   4   4    0.35    0.25
   6   4   4    0.81    0.29
  -6  -4   4    0.28    0.27
  -6   4  -4    0.31    0.32
   6   4   4    0.81    0.53
   0  -5   4  490.80   38.25
   0   5  -4  509.57   38.64
  -1   5   4    2.25    0.46
   1  -5   4    3.09    0.53
  -1   5  -4    2.25    0.55
  -2   5   4   88.76    7.70
  -2   5   4  104.32    7.91
   2   5  -4   87.91    7.65
   2  -5   4  110.60    8.12
   2  -5   4   93.18    7.67
  -2   5   4  106.46    8.60
  -2   5  -4  100.69    8.07
   2   5   4   97.12    7.74
   2   5   4  101.61    7.69
  -2  -5   4   88.76    8.92
   2   5   4   97.88    8.07
   3   5  -4   46.53    3.83
  -3   5   4   43.47    3.92
   3  -5   4   48.79    3.91
   3  -5   4   49.59    4.54
  -3   5   4   47.52    3.93
   3   5   4   45.51    3.96
  -3   5  -4   53.39    4.12
   3   5   4   47.09    4.35
   3   5   4   43.92    3.88
   4  -5   4    2.63    1.07
   4  -5   4    5.89    0.78
  -4   5  -4    3.75    0.84
   4   5   4    4.49    0.64
   4   5   4    6.01    0.79
  -4  -5   4    3.85    0.64
   4  -5  -4    2.71    1.55
   4   5   4    3.56    1.01
  -4  -5   4    4.36    0.61
  -5   5   4   12.60    1.23
   5  -5   4   11.20    1.37
  -5  -5   4    9.90    1.12
   5   5   4   11.15    1.24
   6   5  -4    2.89    0.57
  -6   5   4    2.85    0.54
  -6   5   4    2.25    0.51
   6  -5   4    2.50    0.56
  -6   5  -4    2.63    0.59
   6   5   4    3.64    0.89
   0  -6   4  104.07    8.03
   0   6  -4   97.39    7.96
   0   6  -4  103.56    8.54
  -1   6   4   25.41    2.15
   1   6  -4   23.50    2.11
   1  -6   4   26.87    2.33
   1   6   4   21.79    2.45
  -1   6  -4   23.00    2.08
  -1   6  -4   26.30    2.55
   2  -6   4   17.09    1.89
  -2   6   4   15.24    1.63
   2   6  -4   16.65    1.59
   2  -6   4   15.61    1.58
  -2   6   4   17.69    2.41
   2   6   4   18.62    1.68
  -2   6  -4   19.07    1.63
   2   6   4   20.34    2.11
   2   6   4   19.60    1.66
   3  -6   4   19.24    2.37
   3  -6   4   20.28    1.89
  -3   6   4   18.34    1.89
  -3   6   4   19.93    1.93
   3   6  -4   19.69    1.82
   3   6   4   23.54    1.93
   3   6   4   23.13    2.40
  -4   6   4   12.00    1.26
   4  -6   4   11.32    1.26
   4   6   4    8.18    1.43
   4   6   4   13.23    1.31
  -4   6  -4    8.55    1.34
   4   6   4   11.86    1.20
   5  -6   4   11.95    1.45
  -5   6   4   13.65    1.36
  -5   6  -4   10.60    1.49
   5   6   4   13.87    1.36
   5   6   4   11.27    1.27
   6   6  -4    0.06    0.24
  -6   6   4    0.22    0.22
   6   6   4    0.02    0.39
  -6   6  -4    0.16    0.28
   0   7   4    0.12    0.21
   0   7   4    0.61    0.49
   0   7   4    0.06    0.21
   0   7  -4    0.26    0.19
   0   7  -4    0.24    0.46
   1   7  -4   11.23    1.18
  -1   7   4   12.34    1.23
  -1   7   4   14.44    1.95
   1  -7   4   11.71    1.33
  -1   7  -4   11.01    1.15
   1   7   4   11.51    1.60
   1   7   4   11.22    1.18
   2   7  -4    6.55    0.76
  -2   7   4    6.29    0.82
   2  -7   4    5.87    0.74
   2  -7   4    7.36    1.08
   2   7   4    6.58    1.24
   2   7   4    5.57    0.79
  -2   7  -4    6.12    0.77
  -3   7   4   18.09    1.67
   3  -7   4   16.08    1.55
   3  -7   4   13.72    1.95
   3   7  -4   16.62    1.50
   3   7   4   16.09    1.62
   3   7   4   14.46    2.01
  -3   7  -4   17.55    1.77
   3  -7  -4   12.10    2.54
  -4   7   4   11.81    1.20
   4  -7   4   10.03    1.21
  -4   7  -4   10.83    1.44
   4   7   4    7.51    1.44
   4   7   4   10.53    1.21
   5   7  -4    8.43    1.03
   5  -7   4    6.09    1.02
  -5   7   4    8.16    0.94
   5   7   4    7.65    0.97
  -5   7  -4    7.64    1.13
   5   7   4    7.05    1.31
   6   7  -4    6.34    0.78
   6   7   4    5.85    1.12
  -6   7  -4    6.37    0.82
   0   8   4   80.39    6.40
   0   8   4   68.65    6.26
   0   8   4   91.32    7.21
   1   8  -4   51.83    4.50
  -1   8   4   57.81    4.60
   1   8   4   54.01    4.51
   1   8   4   49.04    4.47
  -1   8  -4   53.67    4.50
   1   8   4   65.60    5.34
   2  -8   4    2.70    0.50
   2   8  -4    3.38    0.54
  -2   8   4    2.17    0.58
   2   8   4    3.99    0.63
  -2   8  -4    3.91    0.61
   3   8  -4   24.23    2.28
   3  -8   4   26.45    2.37
  -3   8  -4   27.07    2.39
  -3   8  -4   27.26    2.59
   4  -8   4   30.07    2.65
  -4   8  -4   30.12    2.83
   4   8   4   25.54    2.55
   5   8  -4   14.31    1.48
  -5   8  -4   13.38    1.57
   5   8   4   14.74    1.46
   0   9  -4    1.54    0.43
   0   9   4    2.15    0.89
   0   9   4    1.83    0.42
   0   9   4    2.14    0.52
  -1   9   4   45.87    4.87
   1   9  -4   44.81    3.80
  -1   9   4   47.81    3.91
  -1   9  -4   48.76    3.84
   1   9   4   39.59    3.75
   1   9   4   45.55    4.60
   1   9   4   42.92    3.76
  -2   9   4   21.35    3.19
   2   9  -4   22.88    2.05
   2  -9   4   20.96    2.04
  -2   9  -4   24.59    2.12
   2   9   4   20.39    2.10
   2   9   4   23.42    2.91
   3   9  -4   32.69    2.96
   3  -9   4   31.55    2.91
   3   9  -4   34.69    2.86
  -3   9   4   27.80    2.96
  -3   9  -4   35.06    3.14
  -3   9  -4   37.19    2.98
   4   9  -4   13.04    1.40
   4   9   4   13.02    1.39
  -4   9  -4   11.60    1.54
   5   9  -4   31.19    2.49
   5   9   4   25.04    2.85
  -5   9  -4   24.42    2.46
   5   9   4   28.95    2.42
   0  10   4    0.24    0.60
   0  10   4    0.13    0.29
   0  10  -4    0.20    0.23
   0  10   4    0.03    0.33
  -1  10   4   29.47    2.72
  -1  10   4   24.73    3.56
   1  10  -4   26.47    2.60
   1  10   4   34.16    2.67
   1  10   4   33.75    2.64
   1  10   4   24.35    3.32
   2  10  -4   21.54    2.07
   2 -10   4   17.53    1.98
   2  10  -4   24.71    2.08
  -2  10  -4   23.73    2.11
   2  10   4   22.85    2.12
   3 -10   4    9.70    1.25
   3  10   4   10.64    1.93
   3  10   4   11.63    1.27
   4  10  -4    1.02    0.37
   4  10   4    2.26    0.88
   4  10   4    0.73    0.33
   5  10  -4    0.64    0.28
   5  10   4    0.74    0.27
   5  10   4    0.00    0.45
   0  11  -4    7.13    0.99
  -1  11   4   18.72    1.89
   1  11  -4   20.35    1.86
   1 -11   4   18.43    1.77
   1  11   4   15.42    1.71
   2  11  -4   19.00    1.67
   2  11  -4   17.11    1.90
  -2  11   4   12.90    1.65
   3  11  -4   11.18    1.30
  -3  11   4   13.24    1.43
   3  11   4   12.59    1.33
  -3  11  -4   12.48    1.36
   4  11  -4   13.10    1.28
   4  11   4   11.69    1.24
   0  12  -4    0.31    0.32
   0  12   4    0.01    0.79
   0  12   4    0.95    0.44
  -1  12   4    2.16    0.61
   1 -12   4    1.60    0.48
  -1  12   4    1.66    1.16
   1  12  -4    2.10    0.53
   1  12   4    3.28    1.35
  -1  12  -4    2.96    0.66
   1  12   4    2.41    0.53
   2  12  -4   11.89    1.27
  -2  12   4   12.59    1.41
   2  12   4   11.99    2.24
  -2  12  -4   12.35    1.35
   2  12   4   11.61    1.29
   3  12  -4    2.17    0.48
  -3  12   4    2.71    0.61
   3  12   4    1.38    0.88
  -3  12  -4    1.54    0.48
   3  12   4    2.19    0.46
   4  12   4    1.68    0.37
   4  12   4    1.18    0.69
   0 -13   4    0.29    0.33
   0  13  -4    0.39    0.33
   0  13   4    0.66    0.95
   0  13   4    0.61    0.37
   1  13  -4   36.29    3.12
  -1  13   4   39.56    3.24
  -1  13  -4   36.95    3.19
   1  13   4   28.49    4.11
  -2  13   4    6.14    0.87
   2  13  -4    5.27    0.74
   2  13   4    5.29    0.71
   2  13   4    3.34    1.34
  -2  13  -4    6.03    0.83
  -3  13   4    0.26    0.26
  -3 -13   4    0.09    0.34
   3  13   4    0.30    0.23
   3  13   4    1.11    0.77
   0  14   4    3.18    1.38
   0  14   4    5.49    0.79
   0  14  -4    5.76    0.80
  -1  14   4   14.26    1.46
   1  14  -4   13.17    1.36
  -1 -14   4   11.97    1.40
  -1  14  -4   16.21    1.49
  -2  14   4    1.05    0.41
   2  14   4    0.23    0.77
   0   0   5    0.00    0.10
   0   0  -5   -0.01    0.07
  -1   0  -5  169.78   13.34
  -1   0   5  187.63   13.36
  -1   0   5  180.84   13.40
   1   0   5  178.37   13.52
   1   0  -5  149.15   13.78
   2   0   5   21.76    2.21
  -2   0  -5   24.14    2.25
  -2   0   5   25.33    2.24
  -3   0   5   62.95    4.48
  -3   0  -5   45.59    4.86
  -3   0   5   57.91    4.89
   3   0   5   48.83    4.78
   3   0   5   57.22    4.48
  -3   0  -5   55.22    4.48
   4   0   5    0.95    0.57
  -4   0  -5    0.46    0.35
   4   0   5    0.00    0.40
  -4   0   5    0.27    0.21
   4   0   5    0.19    0.25
   4   0  -5    0.31    0.78
   5   0   5    0.14    0.34
  -5   0  -5    0.08    0.30
  -5   0   5    0.17    0.19
   5   0   5    0.12    0.25
  -6   0  -5    1.48    0.46
  -6   0   5    1.86    0.43
   6   0   5    1.42    0.61
   6   0   5    1.74    0.46
   6   0  -5    1.52    0.60
  -6   0   5    2.01    0.46
   0   1  -5  975.54   75.20
   0   1   5 1000.00   75.24
  -1   1   5  207.05   15.37
  -1  -1  -5  179.81   15.51
  -1   1   5  213.40   15.34
   1   1   5  217.43   15.56
  -1   1  -5  178.04   15.43
  -1  -1   5  199.99   15.64
   1  -1  -5  206.54   15.70
  -1  -1   5  203.60   15.55
  -2   1   5  108.51    8.99
  -2  -1  -5   95.21    9.22
  -2  -1   5  129.23    9.41
  -2   1  -5  124.51    9.11
  -3   1   5    6.18    0.98
  -3   1   5    7.17    0.77
   3  -1   5    5.17    0.98
   3  -1   5    7.29    0.77
  -3  -1   5    6.33    0.72
   3   1   5    5.11    0.74
  -3   1  -5    5.19    1.03
   3   1   5    5.37    0.67
  -3   1  -5    7.38    0.82
  -3  -1   5    6.35    1.21
  -4   1   5   73.84    6.34
   4  -1   5   70.01    6.94
   4  -1   5   82.52    6.49
   4   1   5   80.71    6.72
   4   1   5   83.63    6.49
   4   1   5   80.80    6.89
  -4   1  -5   74.37    6.48
   4   1   5   85.70    6.34
  -4  -1   5   79.87    6.33
  -5   1   5   12.69    1.24
   5  -1   5   10.30    1.29
   5   1   5   13.88    1.35
  -5  -1   5    8.56    1.11
  -6   1   5    2.32    0.49
   6  -1   5    1.99    0.51
   6  -1   5    2.09    0.75
   6   1  -5    1.25    0.83
  -6   1   5    1.60    0.41
  -6   1  -5    1.22    0.43
   6   1   5    1.49    0.63
  -6  -1   5    1.47    0.38
   6   1   5    1.78    0.45
  -6  -1   5    1.34    0.38
   0   2  -5  170.21   12.06
   0  -2   5  131.53   11.97
   0   2   5  153.23   11.95
   0  -2   5  162.49   11.92
   1  -2   5   23.78    2.31
  -1   2  -5   26.40    2.22
  -1  -2   5   28.48    2.36
   1  -2  -5   25.80    2.29
  -1  -2   5   24.34    2.59
   1   2   5   25.64    2.20
   2  -2   5  223.82   18.04
  -2   2   5  215.61   17.72
  -2  -2   5  242.55   18.40
  -2   2  -5  236.90   17.87
   3  -2   5   37.34    2.84
  -3  -2  -5   29.31    3.51
  -3   2   5   34.93    3.08
  -3   2   5   37.49    2.87
   3  -2   5   32.18    3.29
   3   2   5   30.84    2.84
   3   2   5   33.77    3.09
   3   2   5   32.91    2.76
  -3   2  -5   28.43    3.14
   3   2   5   32.44    3.06
  -3  -2   5   32.80    2.78
  -3  -2   5   34.70    3.57
  -4   2   5   70.18    5.45
   4  -2   5   63.90    5.50
  -4  -2   5   62.32    5.36
   4   2   5   69.02    5.81
   4   2   5   68.08    5.50
   5   2  -5   20.10    2.12
  -5   2   5   15.96    1.76
   5  -2   5   16.18    1.88
   5   2   5   21.66    2.28
  -5   2  -5   20.00    2.02
   6  -2   5   21.90    2.42
  -6   2   5   22.33    2.02
   6  -2   5   22.12    2.09
  -6   2   5   23.90    2.05
   6   2   5   21.15    2.02
  -6   2  -5   21.56    2.11
   6   2   5   21.52    2.45
  -6  -2   5   21.55    1.97
   0  -3   5    1.14    0.31
   0   3  -5    1.66    0.40
   0  -3   5    1.64    0.34
   0  -3  -5    1.82    0.27
  -1   3  -5  138.11   10.77
   1  -3  -5  134.68   10.74
   1   3   5  137.20   10.65
  -1  -3   5  139.12   10.75
  -2   3   5   78.34    5.99
   2   3   5   73.16    6.00
  -2   3  -5   73.51    6.13
  -2  -3   5   72.87    6.75
  -3  -3  -5    9.75    2.02
   3  -3   5   13.20    1.30
  -3   3   5   11.32    1.30
   3  -3   5   11.94    1.70
   3   3   5   15.65    1.63
  -3  -3   5   13.81    1.28
   3   3   5   14.21    1.35
   3   3   5   15.30    1.32
   3   3   5   14.02    1.35
   4  -3   5   21.57    3.00
  -4   3   5   28.57    2.47
   4  -3   5   28.25    2.53
  -4   3  -5   26.46    2.60
   4   3   5   27.65    2.48
   4   3   5   31.35    2.86
  -4  -3   5   27.62    2.38
   4   3   5   26.75    2.44
   5  -3   5   30.03    2.75
  -5   3   5   30.63    2.55
  -5   3   5   28.07    2.58
   5   3   5   22.04    2.84
  -5  -3   5   32.34    2.54
  -5  -3   5   29.64    2.50
   6  -3   5    0.44    0.42
   6  -3   5    0.47    0.30
  -6   3   5    0.16    0.26
  -6   3   5    0.39    0.26
   6   3   5    0.86    0.53
   6   3   5    0.41    0.24
  -6  -3   5    0.16    0.24
  -6  -3   5    0.11    0.22
  -6   3  -5    0.23    0.31
   0  -4  -5    0.40    0.20
   0   4  -5    0.29    0.25
   0  -4   5    0.50    0.22
   1  -4   5   33.70    2.87
  -1  -4  -5   28.17    2.80
  -1   4  -5   32.66    2.85
  -1  -4   5   27.01    3.36
   1   4   5   35.37    2.63
  -2   4   5   99.72    8.23
   2  -4   5  115.79    8.23
  -2  -4   5  103.25    9.31
  -2   4  -5  105.56    8.52
   2   4   5  100.01    8.22
  -3   4   5   17.48    1.71
  -3   4   5   18.39    1.72
   3  -4   5   14.58    2.07
   3  -4   5   17.54    1.69
   3   4   5   19.28    2.08
   3   4   5   21.51    1.74
   3   4   5   19.29    1.72
  -3  -4   5   16.20    1.63
  -3  -4   5   18.29    1.67
   3   4   5   20.84    1.77
   4  -4   5   31.89    2.61
  -4   4   5   31.59    2.55
   4   4   5   27.62    2.49
  -4  -4   5   24.81    2.37
  -4  -4   5   26.89    2.40
   4   4   5   28.29    2.52
   4   4   5   24.54    2.82
  -5   4   5   19.83    1.80
  -5   4   5   19.65    1.85
   5  -4   5   19.75    2.00
  -5  -4   5   20.82    1.78
  -5  -4   5   19.11    1.73
   5   4   5   14.68    1.74
  -6   4   5   28.97    2.40
   6   4  -5   23.67    2.38
   6  -4   5   25.52    2.44
   6   4   5   26.86    2.38
   6   4   5   25.94    2.79
  -6  -4   5   27.20    2.31
  -6   4  -5   30.56    2.58
  -6  -4   5   27.39    2.32
   0  -5   5    7.66    0.89
   0   5  -5    7.95    1.15
   1   5  -5   18.55    1.71
  -1   5   5   17.50    1.71
  -1   5  -5   22.93    2.09
  -1  -5   5   18.41    2.68
  -2   5   5   42.15    3.26
   2  -5   5   42.34    3.21
   2   5  -5   41.68    3.21
  -2  -5   5   33.59    3.17
   2   5   5   41.09    3.26
   2   5   5   41.16    3.61
   2   5   5   39.96    3.20
  -2  -5   5   35.77    4.40
  -2   5  -5   32.41    3.13
  -2   5  -5   36.29    3.52
   2   5   5   37.64    3.20
  -3   5   5    3.44    0.53
   3   5  -5    3.36    0.50
   3  -5   5    4.39    0.59
  -3   5   5    4.25    0.61
  -3   5   5    3.11    0.55
   3  -5   5    2.69    0.92
   3   5   5    2.43    0.76
  -3  -5   5    2.82    0.50
   3   5   5    3.46    0.53
   3  -5  -5    1.31    1.16
   3   5   5    3.55    0.60
  -4   5   5   14.21    1.44
   4  -5   5   14.23    1.49
  -4   5   5   12.98    1.34
   4   5   5   10.87    1.69
  -4  -5   5   12.39    1.31
   4   5   5   15.80    1.44
   4   5   5   16.56    1.52
   4  -5  -5   15.84    4.75
  -4  -5   5   13.24    1.33
  -5   5   5    9.16    0.97
   5  -5   5    7.53    1.06
  -5   5   5    9.41    0.97
  -5  -5   5    6.77    0.83
  -5   5  -5    4.07    1.00
   5   5   5    7.14    0.93
  -5  -5   5    6.42    0.83
   5   5   5    5.98    0.83
  -6   5   5    0.36    0.32
  -6   5   5    0.70    0.30
   6  -5   5    0.44    0.33
   6   5  -5    0.65    0.32
   6   5   5    0.98    0.51
  -6   5  -5    0.48    0.34
   0   6  -5   18.02    1.62
   0   6  -5   17.53    2.10
   0  -6   5   20.42    1.74
   0   6   5   15.50    1.62
   1   6  -5   24.94    2.21
  -1   6   5   27.16    2.89
  -1   6   5   26.24    2.24
   1  -6   5   27.37    2.45
  -1   6  -5   26.98    2.66
  -1   6  -5   22.79    2.15
   1   6   5   24.72    2.21
   1   6   5   24.31    2.57
   2   6  -5   42.21    3.46
  -2   6   5   39.58    3.51
   2  -6   5   40.58    3.46
   2  -6   5   48.65    3.93
   2   6   5   39.65    3.50
   2   6   5   46.05    4.03
  -2   6  -5   40.89    3.45
   2   6   5   37.90    3.44
   3  -6   5   19.40    1.63
   3  -6   5   15.63    2.04
  -3   6   5   16.60    1.64
   3   6  -5   15.86    1.51
   3   6   5   15.09    1.60
  -3   6  -5   19.71    1.82
   3   6   5   14.74    1.95
   3   6   5   13.78    1.51
  -4   6   5   11.08    1.14
   4  -6   5   10.59    1.20
   4   6   5    9.70    1.14
  -4   6  -5    6.63    1.21
   4   6   5    9.30    1.06
  -5   6   5    9.88    1.02
   5  -6   5    8.36    1.13
   5   6   5    7.72    0.98
  -5   6  -5    6.60    1.16
   5   6   5    7.03    0.91
   6   6  -5    5.79    0.73
  -6   6   5    5.91    0.67
  -6   6  -5    5.11    0.78
   6   6   5    3.85    0.98
   0   7   5   15.32    1.44
   0   7   5   17.15    1.54
   0   7  -5   17.64    1.51
   0   7   5   12.40    1.89
  -1   7   5   59.99    5.39
   1  -7   5   70.90    5.73
   1   7  -5   72.70    5.52
  -1   7   5   72.74    5.56
   1   7   5   74.52    6.11
   1   7   5   64.36    5.47
  -1   7  -5   63.49    5.45
   2   7  -5   62.34    5.07
  -2   7   5   60.91    5.15
   2  -7   5   57.50    5.42
  -2   7   5   62.35    6.18
   2  -7   5   62.11    5.08
   2   7   5   65.14    5.72
  -2   7  -5   66.41    5.10
   2   7   5   63.75    5.14
  -3   7   5   26.26    2.37
   3  -7   5   25.57    2.28
   3  -7   5   19.32    2.63
   3   7  -5   25.09    2.21
  -3   7  -5   30.27    2.55
   3   7   5   25.24    2.33
   4  -7   5   33.25    3.15
   4   7   5   37.85    3.16
  -4   7  -5   34.45    3.35
   5  -7   5    1.75    0.57
   5   7  -5    2.35    0.55
  -5   7   5    2.21    0.48
  -5   7  -5    2.36    0.70
   5   7   5    1.09    0.66
   5   7   5    2.69    0.55
   6   7  -5    0.80    0.30
  -6   7  -5    0.52    0.33
   6   7   5    0.71    0.48
   0   8  -5   18.65    1.63
   0   8   5   18.33    1.66
   0  -8   5   14.43    1.58
   0   8   5   14.89    1.51
   1   8  -5   12.06    1.17
  -1   8   5   10.22    1.17
   1   8   5    9.91    1.11
  -1   8  -5    9.68    1.09
  -2   8   5    7.66    1.03
   2  -8   5    7.51    0.95
   2   8  -5    9.61    1.01
  -2   8   5    7.38    1.89
   2   8   5    9.78    1.08
   2   8   5    8.29    1.53
  -2   8  -5    9.41    1.04
  -3   8   5   64.40    6.04
   3   8   5   83.68    6.86
   4  -8   5    2.53    0.65
  -4   8  -5    3.33    0.82
   4   8   5    3.21    0.65
   5   8  -5    4.00    0.66
   5   8   5    3.34    0.61
   5   8   5    3.45    1.00
  -5   8  -5    4.61    0.88
   0   9   5    0.96    0.32
   0   9   5    1.09    0.44
   0   9   5    1.15    0.76
   0   9  -5    0.96    0.37
  -1   9   5   34.38    4.25
  -1   9   5   43.98    3.43
  -1   9  -5   40.05    3.31
   1   9   5   31.17    3.89
   1   9   5   39.95    3.28
   2   9  -5   15.71    1.46
  -2   9   5   13.95    2.58
   2  -9   5   14.74    1.47
  -2   9  -5   16.30    1.53
   2   9   5   10.54    2.02
   2   9   5   13.72    1.49
   3  -9   5   38.79    3.33
  -3   9   5   30.57    3.33
  -3   9  -5   42.92    3.36
  -3   9  -5   40.68    3.54
   4   9  -5    3.74    0.65
   4  -9   5    2.23    0.59
  -4   9  -5    2.89    0.77
   4   9   5    1.87    0.80
   4   9   5    3.56    0.62
   5   9  -5    9.88    1.05
  -5   9  -5    8.19    1.09
   5   9   5    8.87    0.99
   5   9   5    9.63    1.48
   0  10   5    0.25    0.62
   0  10   5    2.35    0.49
   0  10   5    2.42    0.56
   0  10  -5    1.43    0.44
  -1  10   5    6.85    0.94
   1  10  -5    4.55    0.76
   1 -10   5    6.62    0.84
  -1  10   5    7.34    1.82
   1  10   5    5.87    0.82
   1  10   5    4.96    1.48
   2 -10   5   15.91    1.69
  -2  10   5   16.19    2.85
   2  10  -5   19.21    1.73
   2  10  -5   15.70    1.71
  -2  10  -5   20.48    1.79
   2  10   5   14.44    2.43
   2  10   5   18.91    1.78
   3  10  -5   10.03    1.14
  -3  10   5   10.84    1.26
   3 -10   5    8.16    1.10
   3  10  -5    9.31    1.05
  -3  10  -5    9.94    1.17
   4  10  -5   11.34    1.27
   4  10   5   12.71    1.29
   5  10  -5   19.31    1.69
   5  10   5   17.76    1.66
   0  11   5    0.44    0.68
   0  11   5    1.10    0.46
   0  11  -5    1.00    0.41
   1  11  -5   14.79    1.57
  -1  11   5   17.24    1.69
   1 -11   5   17.09    1.58
   1  11   5   12.74    2.33
  -1 -11   5   14.58    1.68
  -1  11  -5   11.33    1.50
   1  11   5   16.08    1.53
   2 -11   5   18.95    2.02
  -2  11   5   18.99    2.12
   2  11  -5   24.56    2.08
  -2  11  -5   24.11    2.14
   2  11   5   23.57    2.12
  -3  11   5    2.38    0.60
   3  11  -5    1.64    0.45
  -3  11  -5    1.94    0.53
   3  11   5    0.87    0.77
   3  11   5    1.93    0.47
   4  11  -5    7.39    0.86
   4  11   5    7.45    0.86
   4  11   5    6.58    1.37
   0  12   5  107.08    8.52
   0  12  -5  104.54    8.55
   1  12  -5    0.64    0.34
   1 -12   5    0.36    0.30
  -1  12   5    0.86    0.43
  -1  12   5    0.13    0.86
   1  12   5    0.33    0.77
   1  12   5    0.37    0.30
  -1  12  -5    0.60    0.35
  -2  12   5    0.29    0.33
   2 -12   5   -0.05    0.23
   2  12  -5    0.06    0.23
   2  12   5    0.00    0.24
  -2  12  -5    0.17    0.27
   2  12   5    0.59    0.74
  -2 -12   5   -0.04    0.40
  -3  12   5   12.51    1.26
   3  12  -5    9.70    1.26
  -3 -12   5   11.42    1.28
  -3  12  -5    9.50    1.15
   3  12   5   10.55    1.12
  -4 -12   5    2.46    0.60
   4  12   5    2.97    0.47
   0 -13   5    5.31    0.83
   0  13  -5    5.37    0.83
   0  13   5    4.84    0.81
   1  13  -5    6.55    0.82
   1 -13   5    4.12    0.73
  -1  13   5    7.01    0.92
  -1  13   5    2.86    1.37
   1  13   5    3.14    1.43
  -1  13  -5    5.79    0.83
  -2  13   5   10.16    1.17
   2  13  -5    8.73    1.01
   2  13   5    9.23    1.02
  -2  13  -5   10.25    1.11
   2  13   5    7.64    1.76
   3  13   5    1.53    0.34
  -3 -13   5    1.60    0.57
   3  13   5    1.04    0.71
   0  14   5    3.66    1.41
   0  14  -5    2.03    0.52
  -1  14   5    0.49    0.38
   1  14  -5    0.94    0.33
  -1  14  -5    0.68    0.33
  -1 -14   5    0.70    0.38
   1  14   5    0.71    0.91
   2  14   5    2.21    1.02
   1   0   6  357.99   29.43
   1   0  -6  408.51   29.99
  -2   0  -6    6.82    0.88
   2   0   6    6.15    0.90
  -2   0   6    7.35    0.87
   3   0   6    8.16    0.89
  -3   0  -6    8.62    0.92
   3   0   6    5.72    1.04
   3   0   6    7.51    0.77
  -3   0   6    8.83    0.87
   3   0   6    7.31    0.83
  -3   0  -6    5.97    1.17
  -3   0   6    6.98    1.13
   4   0   6    6.43    1.27
  -4   0  -6    7.36    1.03
   4   0   6    8.16    1.02
   4   0   6    6.44    0.87
  -4   0   6    8.29    0.89
   5   0   6    1.79    0.54
  -5   0   6    2.58    0.53
  -5   0  -6    3.69    0.75
   5   0   6    1.72    0.69
  -5   0   6    2.50    0.53
  -6   0  -6    0.01    0.30
  -6   0   6    0.04    0.25
   6   0   6    0.01    0.34
  -6   0   6    0.15    0.20
   6   0   6    0.19    0.22
   0   1  -6   83.25    6.41
   0   1   6   78.17    6.42
  -1  -1  -6  103.51    7.29
  -1   1  -6   83.64    7.27
   1   1   6  100.35    7.43
  -1  -1   6   97.21    7.36
   1  -1  -6   90.89    7.62
  -1  -1   6   82.73    7.26
  -2  -1  -6  110.73    9.50
  -2   1   6  115.17    9.25
  -2   1  -6  110.45    9.33
   2   1   6  129.18    9.49
  -2  -1   6  124.54    9.57
   3  -1   6   60.98    5.28
  -3   1   6   55.99    5.01
   3  -1   6   54.25    4.66
  -3  -1  -6   56.70    4.80
   3  -1   6   62.99    4.81
  -3   1   6   64.10    4.80
   3  -1   6   62.16    4.76
   3   1   6   59.18    4.73
   3   1   6   61.37    4.71
  -3  -1   6   58.64    4.76
  -3  -1   6   59.27    5.31
  -3   1  -6   51.98    5.14
   3   1   6   57.94    4.83
   3   1   6   57.39    5.12
   3   1   6   59.86    5.03
   4  -1   6   46.40    5.16
  -4   1   6   61.69    4.67
  -4  -1  -6   52.94    4.75
  -4   1  -6   55.18    4.78
   4   1   6   57.99    4.61
   4   1   6   57.01    4.77
  -4  -1   6   60.44    4.64
   4   1   6   54.53    5.14
   4   1   6   61.02    5.07
  -5   1   6   16.31    1.52
   5  -1   6   17.10    1.70
  -5   1   6   12.76    1.44
  -5  -1   6   14.37    1.46
   5   1   6   17.95    1.66
  -5  -1   6   12.36    1.41
  -6   1   6    1.37    0.37
   6  -1   6    1.30    0.59
   6  -1   6    0.83    0.35
  -6   1   6    0.90    0.34
   6   1   6    1.80    0.67
  -6   1  -6    1.03    0.41
  -6  -1   6    1.51    0.40
   6   1   6    1.10    0.35
  -6  -1   6    1.35    0.37
   0  -2   6   11.07    0.95
   0  -2   6    8.25    1.13
   0   2   6    9.74    1.03
   0   2  -6   11.22    1.12
   1  -2   6   75.80    6.94
  -1   2  -6   85.18    6.82
   1  -2  -6   91.36    6.98
   1   2   6   94.59    6.87
  -1  -2   6   85.17    6.86
  -1  -2   6   83.93    7.15
  -2   2   6   26.36    2.23
  -2   2  -6   23.97    2.36
   2   2   6   25.59    2.39
  -2  -2   6   28.17    2.80
   3  -2   6    3.84    0.84
   3  -2   6    3.48    0.54
  -3   2   6    2.50    0.47
  -3   2   6    3.33    0.55
  -3  -2   6    4.78    0.56
   3   2   6    3.21    0.57
   3   2   6    4.48    0.81
   3   2   6    4.03    0.52
  -3   2  -6    2.70    0.80
  -3  -2   6    4.50    1.22
  -3  -2   6    3.83    0.56
   3   2   6    3.86    0.74
   3   2   6    3.30    0.61
   4  -2   6  151.18   11.57
  -4   2   6  148.60   11.44
  -4   2  -6  138.43   11.58
   4   2   6  151.68   11.40
  -4  -2   6  143.79   11.37
  -4  -2   6  142.18   11.38
   4   2   6  140.26   11.80
   4   2   6  148.85   11.53
  -5   2   6    5.04    0.80
   5  -2   6    5.76    0.95
  -5   2   6    6.56    0.87
  -5   2  -6    7.97    1.11
   5   2   6    5.88    0.87
  -5  -2   6    8.73    0.90
  -5  -2   6    7.81    0.85
  -6   2   6    2.56    0.49
   6  -2   6    2.25    0.54
   6  -2   6    2.12    0.75
  -6   2   6    2.12    0.48
  -6  -2   6    2.16    0.49
   6   2   6    2.09    0.49
  -6   2  -6    2.14    0.56
   6   2   6    1.76    0.73
  -6  -2   6    2.10    0.44
   0  -3   6   13.90    1.94
   0   3  -6   18.85    1.80
   0  -3  -6   19.46    1.51
   0  -3   6   18.03    1.69
   0  -3   6   17.15    1.62
   1  -3   6  116.05    9.09
  -1  -3   6  115.80    9.12
  -1   3  -6  121.44    9.14
   1   3   6  117.70    9.03
  -1  -3   6  102.72    9.59
  -2  -3  -6   26.63    3.13
  -2   3   6   28.61    2.52
   2  -3   6   34.22    2.52
   2  -3   6   24.58    2.76
  -2  -3   6   32.78    3.36
  -2   3  -6   30.92    2.75
   2   3   6   30.80    2.65
   3  -3   6   28.29    3.27
   3  -3   6   33.87    2.86
  -3   3   6   27.95    2.73
  -3   3   6   33.60    2.85
   3   3   6   34.26    2.88
   3   3   6   34.86    2.81
  -3  -3   6   35.47    2.83
  -3  -3   6   33.40    2.80
   3   3   6   34.87    2.87
   3   3   6   35.46    3.20
   4  -3   6    0.11    0.22
  -4   3   6    0.27    0.23
  -4   3   6    0.39    0.27
   4  -3   6    0.00    0.51
   4   3   6    0.29    0.34
  -4  -3   6    0.25    0.20
   4   3   6    0.27    0.25
   4  -3  -6   -0.23    0.87
  -4   3  -6    0.12    0.28
  -4  -3   6    0.25    0.26
   5  -3   6    6.33    0.99
  -5   3   6    6.98    0.87
  -5   3   6    8.42    0.93
  -5  -3   6    6.89    0.81
  -5  -3   6    7.16    0.84
  -5   3  -6    4.58    1.01
   5   3   6    6.76    1.26
   5   3   6    5.12    0.82
   6  -3   6   23.44    2.27
  -6   3   6   25.48    2.20
   6  -3   6   25.41    2.61
  -6   3   6   25.99    2.20
  -6  -3   6   23.53    2.14
  -6  -3   6   23.92    2.13
   6   3   6   24.59    2.21
  -6   3  -6   23.05    2.30
   6   3   6   24.80    2.66
   0  -4   6    3.76    0.59
   1  -4   6   19.25    1.87
  -1   4  -6   16.05    1.79
  -1  -4   6   19.62    1.77
   1   4   6   17.86    1.63
  -2   4   6   37.51    3.29
   2  -4   6   41.40    3.27
   2  -4   6   42.77    3.68
  -2   4  -6   37.40    3.54
   2   4   6   41.31    3.25
   2   4   6   39.90    3.29
  -2  -4   6   36.66    4.20
  -2  -4   6   37.23    3.26
   2   4   6   41.18    3.62
  -3   4   6    5.05    0.68
   3  -4   6    5.27    0.68
  -3   4   6    4.60    0.62
   3  -4   6    4.55    1.01
   3   4   6    4.82    0.72
   3   4   6    5.55    1.03
  -3  -4   6    5.14    0.66
   3   4   6    4.49    0.66
   3   4   6    4.74    0.70
  -3  -4   6    5.09    0.69
   4   4  -6   13.17    1.25
   4  -4   6   11.51    1.34
  -4   4   6   12.11    1.29
  -4   4   6   11.64    1.22
   4   4   6   11.82    1.32
   4   4   6   12.87    1.31
  -4  -4   6   11.97    1.23
   4   4   6   15.16    1.79
  -4  -4   6   11.79    1.22
  -4   4  -6    8.63    1.36
   5  -4   6   16.05    1.78
  -5   4   6   16.96    1.60
  -5   4   6   17.03    1.61
  -5  -4   6   16.61    1.54
   5   4   6   12.59    1.93
   5   4   6   15.27    1.58
  -5  -4   6   17.27    1.55
   6  -4   6    0.51    0.46
  -6   4   6    1.24    0.39
   6  -4   6    0.85    0.37
  -6   4   6    1.31    0.35
  -6   4  -6    0.91    0.42
   6   4   6    0.44    0.42
   6   4   6    0.53    0.27
  -6  -4   6    0.81    0.30
  -6  -4   6    0.78    0.33
   0   5  -6   66.66    5.56
   0   5  -6   72.32    6.08
   0  -5   6   71.82    5.73
  -1   5   6    5.55    0.75
   1  -5   6    8.71    1.04
   1   5  -6    7.49    0.80
  -1   5  -6    7.33    1.06
   1   5   6    5.88    0.75
  -1   5  -6    6.69    0.74
  -1  -5   6    6.44    1.65
  -2   5   6  188.58   14.02
   2  -5   6  173.33   13.07
  -2   5   6  151.52   12.99
  -2   5   6  162.30   13.10
   2   5  -6  174.90   13.08
   2  -5   6  190.68   13.58
  -2  -5   6  159.18   14.38
   2   5   6  151.95   13.02
   2   5   6  182.54   13.55
   2   5   6  166.54   13.10
   2   5   6  163.63   13.04
  -2  -5   6  155.92   13.05
   3   5  -6    5.73    0.71
   3  -5   6    4.46    1.05
  -3   5   6    5.07    0.72
  -3   5   6    4.97    0.71
   3  -5   6    5.79    0.76
  -3   5   6    5.55    0.77
   3   5   6    5.29    1.07
   3   5   6    6.47    0.82
   3   5   6    6.25    0.74
  -3  -5   6    6.19    0.75
   3   5   6    6.52    0.81
   4  -5   6   25.33    2.75
  -4   5   6   30.28    2.66
  -4   5   6   31.88    2.72
  -4  -5   6   29.37    2.65
  -4  -5   6   32.24    2.68
   4   5   6   32.07    2.72
   4   5   6   34.48    2.81
  -5   5   6    2.01    0.50
   5  -5   6    2.08    0.63
  -5   5   6    2.11    0.52
   5   5   6    2.64    0.68
   5   5   6    3.41    0.92
  -5  -5   6    2.54    0.51
   5   5   6    2.81    0.51
  -5  -5   6    2.22    0.47
  -5   5  -6    1.88    0.70
   6   5  -6    8.57    0.97
   6  -5   6    7.84    0.99
   6  -5   6    7.95    1.23
  -6   5   6    8.43    0.95
  -6   5   6    8.52    0.89
   6   5   6    7.17    1.27
  -6   5  -6    8.65    1.08
   0   6   6    3.05    0.47
   0  -6   6    2.66    0.52
   0   6   6    2.87    0.55
   0   6   6    3.59    0.95
   0   6  -6    3.39    0.96
   0  -6   6    3.25    0.56
   0   6  -6    3.03    0.47
   1  -6   6   11.21    1.33
  -1   6   6   12.02    1.18
  -1   6   6   10.95    1.08
   1   6  -6   12.05    1.16
   1   6   6    8.35    1.41
   1   6   6   11.65    1.13
   1   6   6   12.49    1.18
  -1   6  -6   11.69    1.10
  -1  -6   6    9.00    2.26
   2   6  -6   39.06    3.28
  -2   6   6   41.39    3.37
   2  -6   6   43.86    3.32
   2   6   6   38.17    3.27
  -2   6  -6   34.83    3.23
   2   6   6   40.22    3.80
   2   6   6   36.58    3.31
   3  -6   6   40.04    3.13
  -3   6   6   38.62    3.16
   3   6  -6   31.17    2.98
   3   6   6   33.94    3.02
  -3  -6   6   33.45    3.02
   3   6   6   39.25    3.17
   3   6   6   33.60    3.56
  -4   6   6   23.72    2.21
   4  -6   6   24.72    2.36
   4   6   6   25.01    2.23
  -4  -6   6   23.52    2.17
   4   6   6   25.87    2.32
  -5   6   6   22.40    1.84
   5  -6   6   20.62    2.04
   5   6   6   19.23    1.82
  -5   6  -6   15.85    2.03
   5   6   6   17.23    1.77
   6  -6   6    2.75    0.79
  -6   6   6    2.27    0.43
   6  -6   6    2.89    0.77
   6   6  -6    2.55    0.51
  -6   6  -6    3.01    0.59
   0  -7   6    1.38    0.40
   0   7   6    1.51    0.36
   0   7   6    1.86    0.45
   0   7  -6    1.68    0.39
  -1   7   6    0.91    0.35
  -1   7   6    0.85    0.30
   1  -7   6    0.95    0.45
   1   7  -6    1.84    0.44
  -1   7   6    1.17    0.75
   1   7   6    2.13    0.79
   1   7   6    1.25    0.34
  -1   7  -6    1.58    0.37
   2  -7   6   33.26    3.52
   2   7  -6   39.59    3.19
  -2   7   6   37.03    3.26
  -2   7   6   38.46    4.25
   2  -7   6   35.54    3.16
   2   7   6   38.54    3.79
  -2   7  -6   37.25    3.17
   2   7   6   39.32    3.24
   3  -7   6   15.64    2.09
   3   7  -6   17.84    1.54
   3  -7   6   17.45    1.60
   3   7   6   13.73    2.03
   3   7   6   12.38    1.54
   4  -7   6   19.06    1.99
   4   7   6   20.76    1.97
   5  -7   6    0.17    0.35
   5   7   6    0.25    0.44
   5   7   6    0.11    0.24
  -5   7  -6    0.21    0.41
   6   7   6    6.13    1.08
   0   8   6    3.93    1.22
   0  -8   6    4.39    0.71
   0   8   6    4.43    0.63
   0   8   6    5.24    0.76
   0   8  -6    4.83    0.68
  -1   8   6   21.35    2.11
  -1   8   6   23.67    2.24
  -1   8   6   26.75    3.20
   1   8   6   23.42    2.16
   1   8   6   25.35    2.86
  -1   8  -6   25.10    2.18
   2   8  -6   85.51    6.88
   2  -8   6   85.87    6.90
  -2   8   6   88.92    8.26
   2   8   6   83.21    6.92
  -2   8  -6   85.69    6.89
   2   8   6   85.74    7.70
   3   8  -6    3.18    0.54
  -3   8   6    1.65    0.55
   3  -8   6    3.21    0.57
   3   8   6    3.32    1.07
  -3   8  -6    3.84    0.83
   3   8   6    2.15    0.58
   4  -8   6    6.07    0.94
  -4   8  -6    8.93    1.24
   5   8  -6    0.28    0.26
   5  -8   6    0.03    0.35
   5   8   6    0.34    0.47
  -5   8  -6    0.38    0.39
   5   8   6    0.51    0.27
   0   9  -6    4.78    0.75
   0  -9   6    5.16    0.83
   0   9   6    6.06    0.75
   0   9   6    5.89    0.85
  -1   9   6   10.72    1.17
   1   9  -6    8.29    1.03
   1   9   6    8.65    1.03
  -1   9  -6    8.67    1.04
   1   9   6    8.32    1.66
   2   9  -6    9.47    1.05
  -2   9   6    8.08    2.28
   2  -9   6    8.16    1.02
  -2   9  -6    9.48    1.10
   3  -9   6   99.49    7.24
  -3   9   6   77.74    7.23
   4   9  -6    5.47    0.77
   4  -9   6    3.85    0.77
   4   9   6    4.17    0.68
  -4   9  -6    4.43    0.91
   4   9   6    3.10    1.02
   5   9  -6    5.90    0.72
  -5  -9   6    5.55    0.78
  -5   9  -6    4.55    0.81
   5   9   6    5.10    0.68
   5   9   6    4.13    1.05
   0  10  -6    0.08    0.21
   0  10   6    0.05    0.62
   0  10   6    0.25    0.31
   0  10   6    0.12    0.23
  -1  10   6   28.43    2.74
   1 -10   6   30.40    2.69
  -1  10  -6   29.70    2.70
   1  10   6   29.32    2.64
  -1 -10   6   30.08    2.80
   2 -10   6    5.86    0.83
   2  10  -6    6.05    0.87
   2  10  -6    7.19    0.86
  -2  10   6    3.75    0.88
  -2  10   6    5.67    1.87
  -2  10  -6    7.20    0.90
   2  10   6    5.97    1.68
   2  10   6    5.47    0.82
  -3  10   6   19.86    1.92
   3  10  -6   19.11    1.80
   3 -10   6   14.72    1.74
   3  10  -6   18.73    1.73
  -3  10  -6   19.29    2.11
   4  10  -6   10.66    1.14
   4  10   6   12.56    1.17
   4  10   6    7.95    1.61
  -4  10  -6    8.89    1.27
   5  10   6    6.48    1.19
   0  11   6  113.31    7.85
   0  11  -6   82.63    7.90
  -1  11   6    1.61    0.53
   1  11  -6    0.54    0.31
   1 -11   6    0.97    0.38
  -1  11   6    1.26    1.00
  -1  11  -6    1.41    0.47
   1  11   6    1.15    0.40
   1  11   6    1.10    0.84
  -1 -11   6    1.22    0.51
   2 -11   6   20.73    2.13
  -2  11   6   24.38    2.30
   2  11  -6   23.55    2.14
  -2  11  -6   21.43    2.15
  -2 -11   6   25.55    2.39
   2  11   6   23.93    2.18
   3  11  -6    0.14    0.25
   3 -11   6    0.32    0.32
  -3  11   6    0.34    0.31
   3  11  -6    0.15    0.27
   3  11   6    0.59    0.71
   3  11   6    0.58    0.31
   4  11  -6    4.45    0.65
   4  11   6    5.24    0.67
   0  12  -6    0.18    0.26
   0 -12   6    0.35    0.32
   0  12   6   -0.04    0.32
   0  12   6    0.26    0.72
  -1  12   6    1.33    1.09
   1  12  -6    0.57    0.32
  -1  12   6    0.44    0.37
   1 -12   6    0.35    0.28
  -1  12  -6    0.34    0.32
   1  12   6    0.24    0.27
   1  12   6    1.41    0.93
   2  12  -6   17.25    1.61
  -2  12   6   19.28    1.80
  -2 -12   6   15.48    1.74
   2  12   6   15.59    1.59
  -2  12  -6   15.08    1.63
   2  12   6   16.09    2.54
   3  12   6    1.99    0.96
  -3 -12   6    2.79    0.62
   3  12   6    2.81    0.49
   0  13  -6   77.97    5.95
   0  13   6   66.19    5.90
   0 -13   6   71.41    5.92
  -1  13   6    0.78    0.91
   1  13  -6    2.15    0.51
   1 -13   6    1.35    0.44
  -1  13   6    2.46    0.58
   1  13   6    0.71    0.98
  -1  13  -6    1.72    0.48
   2  13  -6    2.29    0.50
  -2  13   6    3.19    0.63
  -2  13  -6    2.06    0.52
   2  13   6    2.33    0.49
   3  13   6    7.77    1.47
   0 -14   6    7.57    1.21
   0  14   6    4.40    1.50
   1  14  -6    1.47    0.40
  -1  14  -6    1.58    0.45
   1  14   6    1.46    1.02
   0   0   7    0.09    0.14
   0   0  -7    0.16    0.15
   1   0   7    1.17    0.39
  -2   0   7    6.55    0.81
   2   0   7    7.28    0.99
  -2   0  -7    6.27    0.84
   3   0   7   69.48    5.40
  -3   0   7   73.93    5.45
   3   0   7   59.05    5.80
  -3   0   7   63.09    5.37
   3   0   7   74.10    5.51
   3   0   7   64.40    5.65
   3   0   7   67.05    5.34
  -4   0   7   56.80    5.04
   4   0   7   65.05    5.03
   4   0   7   55.77    5.62
  -4   0  -7   61.30    5.21
   4   0   7   61.63    5.23
   4   0   7   71.06    5.55
  -5   0  -7    1.63    0.58
  -5   0   7    1.65    0.41
   5   0   7    1.77    0.69
   5   0   7    0.98    0.41
  -5   0   7    1.69    0.43
  -6   0   7    1.48    0.39
   6   0   7    1.51    0.45
   6   0   7    1.27    0.58
  -6   0   7    1.75    0.42
   0   1   7  114.89    9.00
   0  -1  -7  114.76    9.03
   0  -1   7  111.34    9.03
  -1  -1  -7  102.91    8.52
   1  -1  -7  100.95    9.08
  -1  -1   7  121.94    8.56
  -1   1  -7  106.79    8.63
  -1  -1   7  110.72    8.53
   1   1   7  119.16    8.82
  -2  -1  -7   60.51    5.69
  -2  -1   7   65.01    5.42
  -2   1  -7   68.80    5.61
   2   1   7   79.52    5.82
  -3   1   7   30.87    2.46
  -3  -1  -7   28.01    2.48
  -3   1   7   28.19    2.38
   3  -1   7   26.50    2.33
   3  -1   7   22.19    2.76
   3  -1   7   28.31    2.41
   3  -1   7   30.18    2.48
   3   1   7   27.33    2.70
   3   1   7   29.61    2.38
   3   1   7   28.51    2.50
   3   1   7   30.28    2.41
   3   1   7   23.54    2.70
  -3  -1   7   27.23    2.39
  -3  -1   7   29.59    2.43
   4  -1   7   24.48    3.02
   4  -1   7   25.72    2.58
  -4  -1  -7   25.92    2.59
  -4   1   7   27.60    2.46
  -4   1   7   27.50    2.47
   4   1   7   24.93    2.92
  -4   1  -7   28.67    2.65
  -4  -1   7   30.53    2.49
  -4  -1   7   27.73    2.45
   4   1   7   28.93    2.62
   4   1   7   33.52    2.96
   4   1   7   28.83    2.46
  -5   1   7    6.91    0.87
  -5   1   7    4.55    0.75
   5  -1   7    6.20    0.95
  -5  -1   7    6.77    0.81
  -5  -1   7    7.04    0.86
   5   1   7    6.91    0.95
  -5   1  -7   10.03    1.20
   6  -1   7    5.90    1.08
  -6   1   7    4.82    0.69
   6  -1   7    5.21    0.79
  -6   1   7    6.00    0.76
   6   1   7    6.56    1.15
   6   1   7    5.76    0.77
  -6   1  -7    4.76    0.80
  -6  -1   7    5.65    0.75
  -6  -1   7    5.02    0.68
   0   2   7   29.22    2.42
   0   2  -7   24.97    2.44
  -1   2  -7   54.72    4.53
   1   2   7   55.13    4.57
   1  -2  -7   56.45    4.76
   2  -2   7   74.68    5.75
  -2  -2   7   83.24    6.35
  -2  -2   7   69.18    5.75
  -2   2  -7   68.60    5.95
   2   2   7   72.92    6.01
   2   2   7   67.78    5.70
  -3   2   7   23.48    2.12
   3  -2   7   26.34    2.22
  -3   2   7   24.83    2.19
   3  -2   7   23.57    2.16
   3  -2   7   20.96    2.59
   3  -2   7   20.88    2.06
   3   2   7   25.85    2.27
   3   2   7   28.49    2.18
  -3  -2   7   26.29    2.19
  -3  -2   7   25.59    2.17
   3   2   7   22.16    2.45
   3   2   7   26.02    2.51
   3   2   7   26.45    2.16
  -4   2   7   53.01    4.16
  -4   2   7   56.95    4.22
  -4  -2   7   48.57    4.13
  -4  -2   7   53.73    4.18
   4   2   7   47.53    4.13
  -4   2  -7   47.99    4.33
   4   2   7   44.63    4.49
   4   2   7   48.52    4.26
   5  -2   7   11.10    1.49
  -5   2   7    8.18    1.00
  -5   2   7    6.37    0.92
   5  -2   7    6.33    1.06
   5   2   7   10.32    1.48
  -5  -2   7    9.95    1.02
  -5  -2   7    9.16    0.98
  -5   2  -7   10.27    1.28
   5   2   7    6.89    1.00
  -6   2   7   31.51    2.48
  -6   2   7   29.10    2.44
   6  -2   7   26.29    2.78
   6  -2   7   28.89    2.55
  -6   2  -7   27.60    2.55
   6   2   7   25.22    2.84
  -6  -2   7   27.73    2.42
   6   2   7   27.39    2.46
  -6  -2   7   26.63    2.38
   0  -3   7    0.13    0.18
   0   3  -7    0.47    0.31
   0  -3   7    0.24    0.39
   1   3   7   45.36    3.86
  -1  -3   7   44.76    4.34
  -1  -3   7   47.88    3.97
  -1   3  -7   47.22    3.95
   2  -3   7   31.59    2.77
  -2   3   7   21.97    2.21
   2  -3   7   26.43    2.27
   2  -3   7   26.05    2.27
  -2   3   7   24.11    2.25
   2   3   7   26.74    2.42
  -2  -3   7   30.74    3.11
   2   3   7   29.67    2.50
   2   3   7   26.97    2.27
  -2  -3   7   26.88    2.30
  -2  -3   7   28.75    2.49
   2   3   7   23.93    2.25
  -2   3  -7   25.97    2.52
  -3   3   7   15.31    1.45
  -3   3   7   13.58    1.39
   3  -3   7   17.93    1.53
   3  -3   7   14.25    1.92
  -3  -3   7   15.43    1.46
   3   3   7   13.90    1.47
   3   3   7   14.54    1.43
   3   3   7   15.79    1.83
  -3  -3   7   15.84    1.47
   3   3   7   13.89    1.46
  -4   3   7   56.57    4.68
  -4   3   7   56.70    4.65
   4   3   7   59.33    4.75
  -4   3  -7   49.88    4.83
   4   3   7   59.85    5.20
  -4  -3   7   57.00    4.65
   4   3   7   59.54    4.69
  -4  -3   7   53.60    4.63
   5  -3   7    2.51    0.72
  -5   3   7    4.80    0.69
  -5   3   7    4.52    0.71
  -5  -3   7    3.93    0.68
  -5  -3   7    4.42    0.62
  -5   3  -7    3.50    0.85
   5   3   7    3.44    0.63
   5   3   7    4.88    1.08
   6  -3   7    1.38    0.60
  -6   3   7    1.21    0.35
  -6   3   7    0.72    0.34
   6  -3   7    0.91    0.37
  -6  -3   7    0.71    0.28
   6   3   7    0.56    0.27
   6   3   7    0.90    0.54
  -6  -3   7    0.67    0.30
  -6   3  -7    0.51    0.34
   0  -4   7   12.14    1.26
   0  -4   7    9.10    1.66
   0   4  -7   11.38    1.42
   1  -4   7   30.02    2.78
   1  -4   7   37.03    3.18
  -1   4   7   29.84    2.84
   1   4   7   37.33    2.94
  -1   4  -7   36.00    3.14
  -1  -4   7   37.66    3.07
  -1  -4   7   29.30    3.58
  -2   4   7   81.39    6.38
  -2   4   7   80.91    6.45
   2  -4   7   76.46    6.37
   2  -4   7   92.30    6.45
   2  -4   7   90.95    6.95
  -2   4   7   73.10    6.32
   2   4   7   84.43    6.41
  -2  -4   7   85.98    7.51
  -2  -4   7   89.19    6.47
  -2   4  -7   78.76    6.75
   2   4   7   73.81    6.33
   2   4   7   78.84    6.42
  -2  -4   7   72.08    6.36
   2   4   7   83.14    6.80
   2   4   7   72.19    6.51
   3  -4   7   26.46    2.29
  -3   4   7   23.60    2.19
   3  -4   7   23.41    2.76
  -3   4   7   23.05    2.15
  -3  -4   7   24.45    2.20
  -3  -4   7   25.57    2.23
   3   4   7   27.54    2.72
   3   4   7   24.03    2.22
   3   4   7   26.05    2.28
   3   4   7   25.73    2.24
  -4   4   7   20.17    1.98
  -4   4   7   20.98    2.01
  -4  -4   7   23.44    2.02
   4   4   7   21.61    2.50
   4   4   7   22.41    2.06
  -4  -4   7   22.51    1.99
   4   4   7   21.04    2.03
  -5   4   7   19.99    1.79
   5  -4   7   14.46    1.87
  -5   4   7   20.37    1.79
   5   4   7   19.29    1.80
   5   4   7   16.93    2.19
  -5  -4   7   18.61    1.72
  -5  -4   7   18.63    1.72
   6  -4   7   21.76    2.41
  -6   4   7   24.24    2.08
   6  -4   7   25.80    2.22
  -6   4   7   25.27    2.08
  -6   4  -7   26.54    2.29
   6   4   7   23.28    2.08
  -6  -4   7   22.73    2.03
   6   4   7   19.33    2.40
  -6  -4   7   23.11    2.03
   0   5  -7   30.29    3.14
   0  -5   7   29.24    2.68
   0  -5   7   34.62    2.89
   0   5  -7   31.45    2.68
   0   5   7   33.19    2.67
  -1   5   7   53.98    4.34
  -1   5   7   58.50    4.43
   1  -5   7   61.05    4.39
   1   5  -7   61.14    4.45
  -1   5  -7   48.50    4.31
   1   5   7   51.68    4.32
  -1  -5   7   48.08    4.33
  -1   5  -7   51.81    4.76
   1   5   7   55.70    4.77
   1   5   7   50.18    4.35
  -2   5   7   34.56    3.15
   2   5  -7   34.24    3.20
   2  -5   7   34.89    3.58
   2  -5   7   35.79    3.20
  -2   5   7   37.64    3.26
  -2  -5   7   43.08    3.27
   2   5   7   45.09    3.24
   2   5   7   43.37    3.74
   3  -5   7    8.74    1.58
  -3   5   7   10.52    1.13
   3   5  -7   11.71    1.18
   3  -5   7   10.37    1.20
  -3   5   7   10.44    1.14
  -3  -5   7   11.10    1.19
   3   5   7   12.44    1.20
   3   5   7   13.43    1.28
   3   5   7   11.70    1.63
   3   5   7   12.99    1.28
   4   5  -7   12.77    1.27
  -4   5   7   11.90    1.27
  -4   5   7   11.85    1.26
   4   5   7   12.81    1.35
  -4  -5   7   13.13    1.27
  -4  -5   7   11.91    1.26
   4   5   7   12.37    1.28
   4   5   7   12.26    1.71
  -4   5  -7    9.19    1.43
   5  -5   7   16.65    1.70
  -5   5   7   15.98    1.47
  -5   5   7   15.24    1.44
   5   5   7   15.19    1.92
  -5  -5   7   13.75    1.38
  -5   5  -7   11.00    1.65
   5   5   7   14.43    1.44
  -5  -5   7   10.49    1.46
  -6   5   7    2.37    0.44
   6  -5   7    2.11    0.50
  -6   5   7    2.72    0.50
   6   5  -7    2.02    0.46
  -6   5  -7    2.49    0.59
   0   6   7    2.63    0.46
   0   6  -7    4.17    0.54
   0  -6   7    3.14    0.53
   0   6   7    2.89    0.57
   1  -6   7    4.57    0.62
   1   6  -7    6.51    0.72
  -1   6   7    4.26    0.66
  -1   6   7    3.87    0.61
   1   6   7    4.73    0.64
  -1  -6   7    3.57    1.59
   1   6   7    5.14    0.70
  -1   6  -7    4.96    0.61
   2   6  -7   40.85    3.46
  -2   6   7   35.30    4.22
   2  -6   7   44.38    3.48
   2  -6   7   38.37    3.85
  -2   6   7   43.79    3.55
  -2   6   7   42.46    3.42
   2   6   7   44.08    3.51
  -2  -6   7   38.54    3.44
  -2   6  -7   40.45    3.43
   2   6   7   39.24    3.97
   2   6   7   43.58    3.47
   3  -6   7   39.29    3.26
   3  -6   7   30.90    3.68
   3   6  -7   40.41    3.19
   3   6   7   32.73    3.11
   3   6   7   41.87    3.30
  -3  -6   7   37.96    3.19
   3   6   7   37.99    3.80
   4   6  -7    7.09    0.84
  -4   6   7    6.17    0.83
   4  -6   7    5.30    0.89
   4   6   7    5.75    1.25
  -4  -6   7    6.94    0.83
  -4   6  -7    5.70    1.14
   4   6   7    8.22    0.97
   4   6   7    6.73    0.83
   5  -6   7   23.16    2.55
  -5   6   7   25.27    2.34
   5   6   7   28.73    2.41
   5   6   7   27.32    2.94
   5   6   7   28.72    2.41
  -5   6  -7   29.09    2.77
   6   6  -7    2.19    0.45
  -6   6  -7    2.33    0.54
   6   6   7    2.13    0.73
   0   7   7  136.85   10.75
   0  -7   7  128.74   10.70
   0   7   7  147.91   11.49
   0   7   7  133.36   10.67
  -1   7   7   73.67    6.12
   1   7  -7   80.20    6.14
  -1   7   7   72.74    6.03
  -1   7   7   82.32    7.07
   1  -7   7   65.74    6.30
  -1   7  -7   73.63    6.04
   1   7   7   77.35    6.09
   1   7   7   80.05    6.76
   2  -7   7   76.71    7.07
   2   7  -7   90.04    6.69
   2  -7   7   88.85    6.69
  -2   7   7   95.42    7.98
  -2   7   7   83.14    6.75
   2   7   7   77.03    6.66
  -2   7  -7   74.01    6.60
   2   7   7   80.49    7.30
   3  -7   7   11.74    1.20
   3   7  -7   12.38    1.15
   3   7   7    7.56    1.09
   3   7   7    8.19    1.60
   4  -7   7   12.57    1.43
   4   7  -7   11.84    1.29
   4   7   7   15.80    1.44
   4   7   7    9.88    1.74
  -4   7  -7   13.98    1.65
   5  -7   7    6.06    0.93
   5   7   7    5.72    1.21
  -5  -7   7    5.66    0.86
   5   7   7    4.75    0.73
  -5   7  -7    5.99    1.11
   0   8  -7   60.27    4.88
   0   8   7   62.07    4.93
   0   8   7   56.77    5.62
   0   8   7   60.86    4.84
   0  -8   7   55.08    4.84
  -1   8   7    7.21    0.91
   1   8  -7    5.95    0.90
   1  -8   7    8.00    0.95
  -1   8   7    7.48    1.00
  -1   8  -7    9.73    0.98
   1   8   7    8.90    0.97
  -1  -8   7    8.26    1.04
  -2   8   7    2.79    1.34
   2  -8   7    1.03    0.35
   2   8  -7    1.10    0.39
  -2   8   7    0.65    0.35
   2   8   7    2.31    0.96
   2   8   7    0.97    0.37
  -2   8  -7    1.21    0.40
  -3   8   7   21.92    2.29
   3   8   7   21.43    2.21
   3   8   7   29.22    3.08
   4  -8   7    5.79    0.89
  -4   8  -7    6.03    1.05
   4   8   7    6.17    0.83
   4   8   7    4.51    1.26
   5   8  -7    2.37    0.53
  -5  -8   7    3.20    0.63
   5   8   7    2.84    0.92
  -5   8  -7    3.56    0.77
   5   8   7    2.69    0.52
   0  -9   7    2.22    0.58
   0   9   7    2.18    1.06
   0   9  -7    1.64    0.48
   0   9   7    2.63    0.63
   0   9   7    2.54    0.52
  -1   9   7   53.74    4.18
  -1   9   7   43.85    5.11
  -1   9   7   48.67    3.99
  -1  -9   7   47.10    4.12
   1   9   7   44.86    4.00
  -1   9  -7   47.25    4.02
  -2   9   7    7.97    1.19
   2  -9   7   10.74    1.18
  -2   9   7   11.28    2.34
   2   9  -7    9.48    1.12
  -2   9  -7   12.49    1.25
  -3   9   7   15.43    1.67
   3   9   7   13.95    2.22
   3   9   7   16.17    1.60
   4  -9   7    0.49    0.36
   4   9  -7    0.75    0.34
   4   9   7    0.66    0.31
  -4   9  -7    0.97    0.53
   4   9   7    0.26    0.53
   5   9  -7    4.19    0.62
  -5  -9   7    4.43    0.68
   5   9   7    4.12    1.04
  -5   9  -7    3.86    0.74
   5   9   7    4.44    0.60
   0  10   7   10.80    1.99
   0  10   7    9.23    1.05
   0  10  -7    7.40    1.07
   0  10   7    9.79    1.18
  -1  10   7   16.87    1.80
   1 -10   7   15.68    1.69
  -1  10   7   18.74    2.92
   1  10   7   16.96    1.68
  -1  10  -7   18.46    1.76
  -1 -10   7   15.97    1.80
   1  10   7   15.88    2.51
  -2  10   7   14.14    1.63
  -2  10   7   18.78    2.96
   2  10  -7   17.25    1.56
   2 -10   7   13.13    1.51
   2  10   7   13.70    2.33
  -2  10  -7   15.35    1.55
   2  10   7   11.91    1.48
  -2 -10   7   17.29    1.79
  -3  10   7    6.33    0.89
   3 -10   7    3.81    0.69
   3  10  -7    4.82    0.68
  -3  10  -7    3.89    0.87
   3  10   7    3.89    0.68
   3  10   7    2.27    1.03
   4  10  -7   19.47    1.92
   4  10   7   23.37    1.96
  -4  10  -7   17.31    2.05
  -4 -10   7   24.14    2.05
   0  11   7    0.92    0.87
   0  11   7    0.42    0.30
   0  11   7    0.80    0.41
   0  11  -7    0.22    0.25
  -1  11   7    6.22    0.92
  -1  11   7    6.06    1.83
   1  11  -7    3.60    0.70
   1 -11   7    5.81    0.82
   1  11   7    4.29    1.51
   1  11   7    5.38    0.79
  -1 -11   7    6.31    1.05
  -1  11  -7    5.15    0.80
  -2  11   7   12.69    1.35
   2  11  -7   11.09    1.14
   2 -11   7    9.93    1.14
  -2 -11   7    9.82    1.30
   2  11   7    7.23    1.06
   2  11   7    8.92    1.94
  -2  11  -7    9.77    1.13
   3  11  -7   11.22    1.24
   3  11  -7   12.15    1.22
  -3 -11   7   13.42    1.41
   3  11   7   10.19    1.92
   3  11   7   12.60    1.28
   4  11  -7    6.99    0.86
   4  11   7    8.04    0.88
   4  11   7    9.03    1.45
  -4 -11   7    8.73    0.97
   0  12  -7   16.47    1.68
   0 -12   7   17.94    1.73
   0  12   7   14.51    1.64
   0  12   7   12.51    2.50
  -1  12   7    2.16    1.26
  -1  12   7    4.95    0.85
   1 -12   7    4.93    0.75
   1  12  -7    5.33    0.77
  -1  12  -7    4.80    0.76
   1  12   7    3.75    0.68
   1  12   7    2.48    1.29
   2  12  -7    0.91    0.34
  -2  12   7    1.42    0.45
   2 -12   7    0.79    0.36
   2  12   7    0.86    0.35
  -2 -12   7    0.64    0.44
   2  12   7    1.59    1.02
  -2  12  -7    0.76    0.37
  -3 -12   7   12.10    1.27
   3  12   7   11.27    1.17
   0 -13   7    1.59    0.48
   0  13   7    0.30    0.88
   0  13  -7    2.31    0.55
   1 -13   7    1.57    0.47
  -1  13   7    1.72    0.48
  -1  13   7    2.38    1.17
   1  13  -7    1.71    0.47
  -1  13  -7    1.50    0.46
   1  13   7    1.55    1.09
   2  13  -7    5.67    0.74
  -2  13  -7    6.00    0.82
   2  13   7    5.79    0.75
   0  14  -7    0.88    0.37
   0  14   7    0.88    0.90
   1  14   7    1.83    1.00
   1   0   8   94.05    8.71
  -1   0  -8  123.17    8.50
   2   0   8    2.70    0.45
   2   0   8    2.86    0.39
  -2   0   8    1.80    0.37
   2   0   8    2.20    0.40
  -2   0   8    2.21    0.39
   3   0   8  112.74    8.97
  -3   0   8  116.42    9.02
   3   0   8  118.47    9.12
  -3   0   8  123.81    9.06
   3   0   8   97.74    9.24
   3   0   8  119.77    9.04
   4   0   8    0.59    0.37
   4   0   8    1.27    0.37
   4   0   8    1.47    0.63
  -4   0   8    0.71    0.28
  -4   0   8    0.89    0.35
  -4   0  -8    1.14    0.49
   4   0   8    1.11    0.71
   5   0   8   68.41    5.66
  -5   0   8   68.40    5.49
  -5   0   8   64.31    5.43
  -6   0   8   12.35    1.24
  -6   0   8   13.62    1.30
   6   0   8   11.75    1.64
   6   0   8   12.88    1.34
   0   1   8   16.65    1.65
   1   1   8   52.01    4.35
  -1   1  -8   50.52    4.18
   2  -1   8   20.16    2.13
  -2   1   8   21.23    1.79
   2  -1   8   18.09    1.69
   2  -1   8   19.57    1.72
   2  -1   8   21.00    1.76
  -2   1   8   18.34    1.70
  -2   1   8   18.02    1.70
   2   1   8   19.84    1.71
  -2  -1   8   21.51    1.76
   2   1   8   21.24    2.08
   2   1   8   20.02    1.71
  -2  -1   8   19.30    1.72
  -2   1  -8   17.90    2.11
   2   1   8   19.06    1.76
  -3  -1  -8    6.76    0.92
  -3   1   8    6.33    0.82
   3  -1   8    6.85    0.87
  -3   1   8    6.97    0.83
   3  -1   8    6.77    0.79
   3  -1   8    7.46    0.88
   3  -1   8    5.87    1.14
   3   1   8    7.86    0.82
   3   1   8    7.74    0.94
   3   1   8    7.96    0.87
  -3  -1   8    8.69    0.89
   3   1   8    6.96    1.12
  -3  -1   8    7.91    0.88
   3   1   8    6.08    1.12
   4  -1   8   26.40    3.20
   4  -1   8   31.07    2.55
  -4   1   8   24.88    2.55
  -4  -1  -8   24.20    2.84
  -4   1   8   29.60    2.59
   4  -1   8   31.84    3.00
   4   1   8   31.82    4.22
  -4   1  -8   28.65    2.75
  -4  -1   8   30.32    2.62
   4   1   8   28.12    2.71
   4   1   8   28.80    2.56
   4   1   8   33.61    3.04
  -5   1   8   27.81    2.52
  -5   1   8   29.88    2.58
   5  -1   8   28.10    2.73
  -5  -1   8   24.26    2.47
   5   1   8   32.95    2.73
  -5  -1   8   29.86    2.56
   6  -1   8    8.17    1.02
   6  -1   8    6.88    1.21
  -6   1   8    8.74    0.98
  -6   1   8    8.11    0.92
   6   1   8    8.11    1.34
  -6  -1   8   10.33    1.00
   6   1   8    8.77    1.00
  -6   1  -8    8.07    1.04
  -6  -1   8    8.95    0.93
   0   2  -8    0.73    0.37
   0  -2   8    0.36    0.26
   0   2   8    0.85    0.31
  -1   2  -8   57.17    4.67
   1   2   8   55.55    4.70
  -2   2   8    5.17    0.62
   2  -2   8    4.74    0.59
  -2   2   8    4.73    0.59
   2  -2   8    4.68    0.60
   2  -2   8    4.59    0.88
   2  -2   8    4.31    0.57
  -2   2   8    5.01    0.57
   3  -2   8   29.33    2.41
   3  -2   8   33.82    2.54
   3  -2   8   25.50    2.97
  -3   2   8   30.02    2.47
  -3   2   8   32.50    2.52
   3   2   8   25.32    2.42
  -3  -2   8   30.18    2.52
   3   2   8   25.80    2.53
  -3  -2   8   25.42    2.50
   3   2   8   28.30    2.46
  -3  -2   8   29.23    2.49
   3   2   8   26.62    2.81
  -4   2   8   10.78    1.13
  -4   2   8    8.55    1.10
   4   2   8   10.81    1.23
  -4  -2   8   10.54    1.16
   4   2   8    9.32    1.15
   4   2   8   10.42    1.50
  -4   2  -8    9.94    1.29
   5  -2   8    9.82    1.52
  -5   2   8    7.91    1.10
  -5   2   8   10.59    1.14
   5   2   8   12.33    1.28
  -5  -2   8   12.34    1.18
   5   2   8   13.32    1.72
  -5  -2   8    8.28    1.06
  -5   2  -8   10.58    1.40
  -6   2   8   10.89    1.16
  -6   2   8   11.95    1.21
   6  -2   8   10.29    1.23
   6   2   8   11.73    1.20
  -6  -2   8   12.95    1.17
   6   2   8    9.66    1.50
  -6  -2   8   13.23    1.21
  -6   2  -8   11.52    1.30
   0   3  -8   32.18    2.89
   0  -3   8   27.60    2.70
   1  -3   8  162.30   14.29
  -1  -3   8  182.23   14.34
   1   3   8  208.30   14.57
  -1  -3   8  209.55   14.69
  -1  -3   8  158.34   14.34
  -1   3  -8  193.77   14.63
   2  -3   8   10.18    0.91
  -2   3   8    9.49    0.88
   2  -3   8    8.90    0.85
   2  -3   8    9.46    0.90
  -2   3   8    8.95    0.82
   2   3   8    8.40    1.17
   2   3   8    8.33    1.05
   2   3   8    8.05    0.85
   2   3   8    6.97    0.81
   2   3   8    6.46    0.82
  -2  -3   8    6.78    0.85
  -2  -3   8    6.21    0.84
   2   3   8    5.64    0.90
  -3   3   8   56.82    4.79
   3  -3   8   69.09    4.96
   3  -3   8   57.45    4.83
  -3   3   8   55.53    4.81
   3  -3   8   49.37    5.36
   3   3   8   66.29    5.38
   3   3   8   61.01    4.83
   3   3   8   57.27    4.88
   3   3   8   57.68    4.84
   3   3   8   56.55    4.78
  -3  -3   8   60.41    4.86
  -3  -3   8   66.17    4.90
  -4   3   8   14.99    1.46
  -4   3   8   14.14    1.44
  -4  -3   8   13.05    1.52
   4   3   8   14.62    1.90
  -4  -3   8   13.58    1.41
  -4   3  -8   14.21    1.66
   4   3   8   14.54    1.51
  -4  -3   8   15.73    1.48
   4   3   8   13.95    1.48
   5  -3   8    8.23    1.40
  -5   3   8   10.89    1.16
  -5   3   8   10.06    1.09
   5   3   8    9.84    1.57
   5   3   8   10.21    1.16
  -5  -3   8   10.97    1.12
  -5   3  -8    8.81    1.32
  -5  -3   8    9.76    1.06
   6  -3   8    9.86    1.09
  -6   3   8    9.33    1.01
  -6   3   8    9.01    0.96
   6   3   8    8.92    0.98
  -6   3  -8    8.21    1.09
  -6  -3   8    8.55    0.93
   6   3   8    8.75    1.36
  -6  -3   8    8.56    0.95
   0   4   8    4.33    0.55
   0   4  -8    4.41    0.88
   0  -4   8    4.41    0.57
   0   4  -8    3.72    0.55
  -1   4   8    2.80    0.42
   1  -4   8    2.87    0.42
   1  -4   8    2.88    0.40
   1  -4   8    2.63    0.62
  -1   4   8    3.15    0.51
  -1  -4   8    2.34    0.39
  -1   4  -8    2.63    0.43
   1   4   8    1.82    0.40
   1   4   8    1.69    0.51
  -1   4  -8    1.73    0.60
  -1  -4   8    2.29    0.47
   1   4   8    2.06    0.40
   2  -4   8   48.77    3.79
   2  -4   8   46.93    3.74
  -2   4   8   44.29    3.76
  -2   4   8   41.79    3.71
   2  -4   8   52.00    3.83
   2   4   8   42.87    3.72
   2   4   8   53.07    3.83
  -2  -4   8   40.20    3.74
   2   4   8   43.64    3.79
  -2  -4   8   48.36    3.85
   3  -4   8    1.97    0.48
   3  -4   8    2.85    0.96
  -3   4   8    1.92    0.45
  -3   4   8    2.69    0.50
   3   4   8    3.79    0.93
   3   4   8    3.12    0.60
  -3  -4   8    2.13    0.48
   3   4   8    2.81    0.55
   3   4   8    2.48    0.54
  -3  -4   8    2.66    0.55
  -4   4   8   13.19    1.36
  -4   4   8   12.69    1.37
   4   4   8   13.41    1.40
  -4  -4   8   12.60    1.36
  -4  -4   8   11.95    1.33
   4   4   8   16.60    1.94
  -5   4   8    6.90    0.83
   5  -4   8    4.97    0.92
  -5   4   8    7.15    0.89
   5   4   8    7.61    1.30
  -5  -4   8    6.56    0.80
  -5  -4   8    5.93    0.80
   5   4   8    6.85    0.85
  -5   4  -8    5.48    1.11
  -6   4   8    2.91    0.45
  -6   4   8    3.09    0.51
  -6   4  -8    1.88    0.53
  -6  -4   8    1.41    0.41
  -6  -4   8    1.80    0.38
   6   4   8    1.97    0.73
   6   4   8    2.07    0.42
   0   5   8  101.88    7.88
   0  -5   8  106.72    8.16
   0   5   8   99.14    7.94
   0  -5   8   94.67    7.88
   0   5  -8   91.56    8.42
   0   5  -8  106.12    7.92
   1  -5   8   24.49    2.30
  -1   5   8   26.40    2.40
  -1   5   8   24.69    2.31
   1  -5   8   30.44    2.74
  -1   5   8   26.43    2.97
   1  -5   8   29.45    2.37
   1   5  -8   30.58    2.45
  -1   5  -8   26.32    2.32
  -1  -5   8   27.27    2.41
   1   5   8   28.03    2.80
   1   5   8   26.04    2.34
   1   5   8   27.06    2.32
  -2   5   8   56.89    6.08
  -2   5   8   64.82    5.48
  -2   5   8   62.38    5.37
   2  -5   8   70.44    5.45
  -2   5   8   56.99    5.29
   2   5  -8   71.11    5.49
   2  -5   8   65.27    5.90
   2   5   8   69.53    5.45
   2   5   8   72.47    5.43
   2   5   8   75.68    6.01
  -2  -5   8   74.60    5.50
  -3   5   8   36.07    3.09
   3  -5   8   33.71    3.77
   3   5  -8   42.85    3.22
   3  -5   8   31.79    3.18
   3   5   8   31.88    3.15
  -3  -5   8   35.56    3.29
  -3  -5   8   44.55    3.26
   3   5   8   36.30    3.13
   3   5   8   41.14    3.26
  -4   5   8   34.30    2.79
   4   5  -8   34.39    2.80
  -4   5   8   35.40    2.80
  -4  -5   8   29.30    2.75
  -4  -5   8   27.65    2.72
   4   5   8   30.80    2.81
   4   5   8   29.38    2.75
   4   5   8   34.09    3.38
   5  -5   8   10.67    1.34
  -5   5   8   11.00    1.12
  -5   5   8   11.48    1.19
  -5  -5   8   10.86    1.10
   5   5   8    8.28    1.53
  -5  -5   8   10.56    1.25
   5   5   8   10.07    1.12
  -5   5  -8   10.81    1.46
   6   5  -8    3.79    0.59
   6  -5   8    4.16    0.64
  -6   5  -8    3.10    0.63
   6   5   8    2.84    0.83
   0   6  -8    3.86    0.56
   0  -6   8    2.61    0.59
   0   6   8    3.30    0.63
   0   6   8    3.57    0.52
   0  -6   8    3.03    0.53
   0   6   8    1.78    0.75
  -1   6   8   13.12    1.90
   1  -6   8   10.59    1.36
  -1   6   8    9.56    1.04
   1  -6   8    8.93    0.99
   1  -6   8   10.04    1.04
   1   6  -8    9.75    1.09
  -1   6   8   10.03    1.12
  -1  -6   8    8.47    1.06
   1   6   8   12.71    1.65
  -1   6  -8    9.11    1.00
   1   6   8    8.47    1.02
   1   6   8    8.99    1.01
  -2   6   8    5.02    0.70
  -2   6   8    5.10    0.76
   2  -6   8    5.82    0.73
  -2   6   8    6.51    1.58
   2  -6   8    5.04    1.03
   2   6   8    5.24    1.15
   2   6   8    5.35    0.74
   2   6   8    4.80    0.77
  -2  -6   8    5.60    0.75
   3   6  -8   68.60    5.51
   3   6   8   63.96    6.14
   3   6   8   69.62    5.58
  -3  -6   8   67.97    5.52
   4   6  -8   48.90    4.37
   4   6   8   51.04    4.38
   4   6   8   53.85    5.08
   4   6   8   58.08    4.50
  -4  -6   8   55.13    4.40
   5  -6   8   20.33    1.95
  -5  -6   8   19.83    1.80
  -5   6  -8   17.72    2.00
   5   6   8   14.50    1.60
   0   7  -8    7.14    0.84
   0  -7   8    6.32    0.82
   0   7   8    5.04    0.82
   0   7   8    7.38    1.44
   0   7   8    5.52    0.75
  -1   7   8    3.29    0.62
   1  -7   8    3.72    0.63
   1   7  -8    4.48    0.69
  -1   7   8    6.89    1.59
  -1   7   8    3.74    0.69
   1  -7   8    4.63    0.66
   1  -7   8    3.89    0.86
  -1  -7   8    5.27    0.75
   1   7   8    5.41    0.82
  -1   7  -8    5.66    0.68
   1   7   8    5.19    0.69
  -2   7   8    1.76    0.45
   2  -7   8    1.41    0.41
   2   7  -8    1.03    0.38
   2  -7   8    1.46    0.67
  -2   7   8    2.04    0.54
  -2   7  -8    1.56    0.43
   2   7   8    0.97    0.37
   2   7   8    2.85    0.97
   3   7  -8   12.42    1.23
   3   7   8   12.86    1.87
  -3  -7   8   10.49    1.18
   3   7   8    9.57    1.22
   4  -7   8    0.62    0.38
   4   7  -8    0.68    0.30
   4   7   8    0.97    0.63
   4   7   8    0.81    0.35
  -4   7  -8    0.82    0.54
   5  -7   8    1.26    0.49
   5   7   8    1.03    0.36
  -5  -7   8    1.08    0.44
   5   7   8    1.30    0.67
  -5   7  -8    0.82    0.51
   0   8  -8   24.45    2.11
   0  -8   8   22.48    2.06
   0   8   8   22.74    2.12
   0   8   8   21.12    2.02
   0   8   8   18.29    2.69
  -1   8   8   46.60    4.04
  -1   8   8   47.32    3.93
   1  -8   8   39.21    3.92
  -1   8   8   51.92    5.16
  -1  -8   8   47.48    4.04
   1   8   8   45.20    3.93
  -1   8  -8   49.25    3.95
   1   8   8   50.44    4.79
   2  -8   8   12.79    1.49
  -2   8   8   15.72    1.64
   2   8  -8   16.56    1.56
   2   8   8   15.00    1.56
   3   8  -8    4.70    0.67
   3  -8   8    4.07    0.70
   3   8   8    3.91    0.69
   3   8   8    2.41    1.00
  -3   8  -8    6.23    1.00
   4  -8   8   25.10    2.29
   4   8  -8   23.32    2.07
  -4   8  -8   20.64    2.34
  -4  -8   8   23.02    2.24
   4   8   8   23.07    2.16
   5  -8   8    7.55    1.07
   5   8  -8    9.86    1.05
  -5   8  -8    9.33    1.20
  -5  -8   8   10.63    1.08
   5   8   8    8.49    0.95
   0   9   8   22.98    3.08
   0   9   8   24.79    2.18
   0   9   8   23.07    2.25
   0  -9   8   22.93    2.21
  -1   9   8   62.55    5.23
  -1   9   8   59.41    6.45
  -1   9   8   67.97    5.42
   1   9   8   61.73    6.16
  -1   9  -8   65.00    5.29
   1   9   8   64.60    5.28
  -1  -9   8   66.20    5.39
   2  -9   8   22.36    2.33
  -2   9   8   19.30    2.35
   2   9  -8   26.23    2.36
  -2   9   8   31.52    3.87
  -2   9  -8   28.90    2.39
   2   9   8   29.57    3.36
  -2  -9   8   25.08    2.53
   3  -9   8    5.67    0.85
   3   9  -8    6.45    0.82
  -3  -9   8    4.26    0.97
   3   9   8    8.03    1.68
  -3   9  -8    7.23    1.13
   4  -9   8   21.31    2.29
   4   9  -8   20.92    2.22
  -4   9  -8   23.75    2.45
   4   9   8   24.86    2.88
   4   9   8   29.06    2.29
  -4  -9   8   29.36    2.37
   5   9  -8   12.47    1.18
   5   9   8   10.81    1.62
   0  10   8   20.61    1.82
   0  10   8   20.47    1.92
   0  10  -8   14.87    1.80
  -1  10   8   56.80    4.90
  -1  10   8   62.17    6.25
  -1  10  -8   57.62    4.83
   1  10   8   58.89    5.84
   1  10   8   57.25    4.80
  -1 -10   8   53.95    4.87
   2 -10   8   40.72    3.54
  -2  10   8   43.86    3.64
   2  10  -8   37.73    3.46
  -2 -10   8   44.48    3.71
  -2  10  -8   37.40    3.46
   3  10  -8   15.52    1.48
   3 -10   8   15.49    1.59
  -3  10  -8   12.14    1.67
   3  10   8   14.67    2.25
   3  10   8   14.79    1.52
  -3 -10   8   16.61    1.67
   4 -10   8    0.48    0.37
   4  10  -8    1.38    0.39
  -4  10  -8    1.14    0.51
   4  10   8    1.80    0.41
  -4 -10   8    1.65    0.44
   4  10   8    0.61    0.60
   0  11  -8    5.94    0.92
   0  11   8    6.98    0.91
   0 -11   8    7.34    0.98
  -1  11   8   10.69    2.44
   1  11  -8   11.80    1.42
  -1  11   8   13.93    1.54
   1 -11   8   12.24    1.44
   1  11   8   14.70    1.45
   1  11   8   14.05    2.41
  -1  11  -8   15.29    1.51
  -1 -11   8   14.57    1.55
   2  11  -8   15.66    1.59
   2 -11   8   15.34    1.63
  -2  11   8   16.23    1.72
  -2  11  -8   14.63    1.59
   2  11   8   16.57    1.63
  -2 -11   8   19.07    1.82
   3 -11   8    1.66    0.50
   3  11  -8    2.34    0.47
   3  11   8    2.31    0.49
   3  11   8    1.45    0.87
  -3 -11   8    2.62    0.59
  -4 -11   8   14.42    1.36
   4  11   8   13.45    1.31
   0 -12   8    0.65    0.37
   0  12  -8    0.80    0.39
   0  12   8    1.08    1.08
  -1  12   8    1.53    1.07
  -1  12   8    3.03    0.65
   1  12  -8    3.23    0.65
   1 -12   8    2.33    0.57
  -1  12  -8    2.24    0.56
   1  12   8    0.94    1.00
   1  12   8    2.34    0.52
   2 -12   8    4.65    0.75
   2  12  -8    6.19    0.78
   2  12   8    6.34    1.73
   2  12   8    5.43    0.76
  -2 -12   8    6.26    0.88
  -2  12  -8    5.13    0.80
  -3 -12   8    5.51    0.76
   3  12   8    5.45    1.32
   3  12   8    5.62    0.70
   0  13  -8    2.58    0.59
   0 -13   8    2.22    0.55
   1 -13   8   15.01    1.58
   1  13  -8   17.19    1.59
   1  13   8   12.84    2.35
   1  13   8   14.53    1.52
  -1  13  -8   17.16    1.62
  -1 -13   8   17.92    1.67
   2  13   8   11.77    1.18
   0  14   8   16.86    3.01
   0   0   9    0.00    0.18
   1   0   9   26.02    2.19
  -1   0   9   23.98    2.18
  -1   0   9   30.84    2.57
   1   0   9   25.38    2.19
   2   0   9   40.14    3.72
   2   0   9   40.13    3.31
  -2   0   9   38.45    3.28
  -2   0   9   40.22    3.29
   2   0   9   41.98    3.29
   2   0   9   38.81    3.26
   3   0   9   69.76    5.80
  -3   0   9   76.74    5.77
  -3   0   9   72.95    5.73
   3   0   9   66.41    5.66
   3   0   9   68.65    5.73
   4   0   9    4.58    0.68
  -4   0   9    2.67    0.61
  -4   0  -9    4.17    0.85
   4   0   9    3.32    0.76
   4   0   9    4.87    1.04
  -5   0  -9    1.46    0.60
  -5   0   9    0.79    0.31
   5   0   9    2.26    0.59
  -5   0   9    1.16    0.40
  -6   0   9   15.80    1.45
   6   0   9   12.71    1.77
   6   0   9   15.63    1.49
  -6   0   9   14.83    1.39
   0   1  -9    2.14    0.55
   0  -1   9    2.13    0.50
   0   1   9    1.88    0.45
  -1   1   9   55.67    4.12
   1  -1   9   49.55    4.04
   1  -1   9   46.85    4.04
  -1   1   9   52.66    4.06
   1   1   9   49.75    4.05
   1   1   9   52.28    4.05
  -1  -1   9   48.56    4.06
  -1  -1   9   50.10    4.06
  -2   1   9  102.02    8.71
  -2   1   9  108.45    8.73
  -2   1   9  115.56    8.81
   2  -1   9  119.03    8.79
   2  -1   9  114.09    8.74
   2  -1   9  126.60    9.35
   2  -1   9  116.35    8.73
  -2  -1   9   98.08    8.72
   2   1   9  111.63    8.73
   2   1   9  102.31    8.76
  -2  -1   9  107.02    8.73
   2   1   9  115.48    9.18
   2   1   9  113.24    8.73
  -2  -1   9  115.54    8.77
  -3   1   9   12.68    1.30
   3  -1   9   14.71    1.40
  -3   1   9   13.37    1.32
   3  -1   9   13.19    1.26
   3  -1   9   14.47    1.37
   3   1   9   12.21    1.26
   3   1   9   11.32    1.35
   3   1   9   12.14    1.30
  -3  -1   9   12.41    1.31
  -3  -1   9   12.86    1.32
   4  -1   9   46.23    4.71
   4  -1   9   53.44    4.56
   4   1   9   58.81    4.80
   4   1   9   60.41    4.63
  -4   1  -9   61.19    4.86
   5  -1   9   40.21    3.71
   5  -1   9   36.13    3.44
  -5   1   9   34.35    3.23
  -5   1  -9   33.68    3.46
  -5  -1   9   39.75    3.30
   5   1   9   41.59    3.43
   5   1   9   41.63    3.83
  -6   1   9   10.00    0.93
   6  -1   9    7.85    0.97
  -6   1   9   10.51    0.99
   6   1   9    7.45    0.92
  -6  -1   9    8.21    0.92
   6   1   9    6.26    1.23
  -6  -1   9    8.05    0.88
   0   2   9    6.89    0.91
   0  -2   9    6.73    0.95
   1  -2   9  208.61   16.99
   1  -2   9  224.98   17.00
  -1   2   9  222.09   16.99
   1  -2   9  216.85   17.00
   1  -2   9  191.82   17.37
  -1   2   9  232.92   17.05
  -1   2  -9  231.72   17.29
  -1  -2   9  221.83   17.00
  -1  -2   9  226.18   17.04
  -1  -2   9  202.64   17.02
   1   2   9  222.35   16.99
   1   2   9  255.96   17.38
   1   2   9  216.04   16.99
  -2   2   9   28.45    2.28
   2  -2   9   27.20    2.75
   2  -2   9   23.98    2.22
   2  -2   9   23.78    2.20
   2  -2   9   26.00    2.25
  -2   2   9   24.00    2.19
  -2   2   9   27.52    2.24
   2   2   9   28.05    2.60
   2   2   9   23.12    2.27
   2   2   9   23.61    2.20
  -2  -2   9   24.12    2.27
  -2  -2   9   25.59    2.24
   2   2   9   29.47    2.26
  -2  -2   9   28.42    2.30
   2   2   9   28.63    2.24
  -3   2   9    4.02    0.56
   3  -2   9    4.70    0.66
   3  -2   9    3.56    0.53
  -3   2   9    4.05    0.57
   3  -2   9    4.04    0.60
   3  -2   9    2.32    0.90
  -3  -2   9    3.03    0.53
   3   2   9    3.01    0.63
   3   2   9    2.29    0.53
  -3  -2   9    2.35    0.55
   3   2   9    1.49    0.89
   3   2   9    2.13    0.74
   3   2   9    2.57    0.53
  -3  -2   9    3.08    0.60
   4  -2   9    4.16    0.76
  -4   2   9    5.18    0.74
  -4   2  -9    5.14    1.00
   4   2   9    4.47    1.08
   4   2   9    3.95    0.74
   4   2   9    4.38    0.77
  -4  -2   9    4.48    0.73
  -5   2   9   13.97    1.38
  -5   2   9   12.98    1.32
  -5  -2   9   11.69    1.27
   5   2   9   14.11    1.85
  -5  -2   9   12.86    1.33
  -5   2  -9   10.32    1.51
   5   2   9   13.55    1.43
  -6   2   9   17.45    1.40
   6  -2   9   15.31    1.45
  -6   2   9   15.34    1.35
  -6  -2   9   14.06    1.33
  -6   2  -9   12.92    1.42
   6   2   9   12.57    1.33
  -6  -2   9   13.06    1.29
   6   2   9   10.88    1.65
   0  -3   9    1.27    0.30
   0  -3   9    0.43    0.31
   0   3   9    0.65    0.25
   0  -3   9    0.77    0.31
   0   3   9    0.73    0.22
   0   3  -9    0.80    0.47
  -1   3   9   47.93    3.54
   1  -3   9   49.27    3.51
  -1   3   9   46.33    3.47
   1  -3   9   50.81    3.52
  -1  -3   9   37.93    3.52
  -1   3  -9   41.47    3.83
   1   3   9   37.78    3.48
   1   3   9   41.56    3.48
   1   3   9   41.32    3.72
  -1  -3   9   42.35    3.53
   1   3   9   40.21    3.45
  -1  -3   9   39.58    3.47
   2  -3   9    2.64    0.85
   2  -3   9    2.85    0.48
  -2   3   9    2.64    0.45
  -2   3   9    3.26    0.49
   2  -3   9    3.18    0.49
  -2   3   9    3.48    0.55
   2  -3   9    2.65    0.52
  -2  -3   9    3.72    0.61
   2   3   9    3.50    0.52
  -2  -3   9    4.44    0.58
  -2  -3   9    3.56    0.55
   2   3   9    3.81    0.86
   2   3   9    4.31    0.53
   2   3   9    4.05    0.54
  -3   3   9   18.73    1.70
   3  -3   9   17.60    1.66
   3  -3   9   20.41    1.81
   3  -3   9   14.12    2.17
  -3   3   9   18.76    1.70
   3  -3   9   19.12    1.75
   3   3   9   16.34    1.73
   3   3   9   17.83    1.73
  -3  -3   9   17.96    1.79
   3   3   9   18.94    2.15
  -3  -3   9   18.77    1.75
  -3  -3   9   20.01    1.78
   3   3   9   16.85    1.67
   3   3   9   19.19    1.73
  -4   3   9    8.42    1.04
  -4   3   9    8.91    1.02
   4   3   9    8.80    1.08
  -4   3  -9    7.66    1.19
   4   3   9    8.81    1.46
  -4  -3   9    9.21    1.13
  -4  -3   9   10.02    1.09
   4   3   9    8.81    1.11
   5  -3   9    3.45    0.77
  -5   3  -9    2.22    0.68
   5   3   9    1.90    0.80
  -5  -3   9    2.52    0.51
  -5  -3   9    3.07    0.57
   5   3   9    2.59    0.56
   6  -3   9    2.90    0.61
  -6   3   9    3.11    0.56
  -6   3   9    2.77    0.50
  -6  -3   9    3.90    0.52
   6   3   9    4.06    0.98
  -6  -3   9    4.03    0.58
   6   3   9    3.98    0.55
  -6   3  -9    3.76    0.70
   0   4  -9   20.20    2.46
   0  -4   9   21.25    1.96
   0   4   9   25.93    2.05
   0  -4   9   26.92    2.37
   0   4   9   20.79    1.94
   0   4  -9   23.80    2.06
   0  -4   9   23.92    2.04
   0   4   9   22.16    1.93
   1  -4   9   12.13    1.15
   1  -4   9   13.97    1.21
   1  -4   9   11.60    1.15
  -1   4   9   11.29    1.11
  -1   4   9   12.30    1.17
   1  -4   9   11.73    1.49
   1   4   9   11.44    1.12
  -1  -4   9   13.25    1.21
   1   4   9   11.89    1.15
  -1  -4   9   12.09    1.16
  -1   4  -9   10.83    1.14
   1   4   9   11.72    1.17
  -1  -4   9   12.06    1.23
  -1   4  -9   12.31    1.57
  -2   4   9   30.13    2.43
   2  -4   9   30.45    2.44
   2  -4   9   33.43    2.53
   2  -4   9   30.19    2.48
   2  -4   9   28.82    2.97
  -2   4   9   30.91    2.47
   2   4   9   24.83    2.84
   2   4   9   26.67    2.46
  -2  -4   9   25.87    2.53
   2   4   9   25.16    2.39
  -2  -4   9   29.77    2.53
  -2  -4   9   25.66    2.43
   2   4   9   28.40    2.47
   3  -4   9   38.93    3.81
  -3   4   9   45.12    3.74
  -3   4   9   42.66    3.72
   3   4   9   47.63    3.85
   3   4   9   47.08    4.32
  -3  -4   9   45.14    3.91
   3   4   9   42.10    3.76
  -3  -4   9   47.64    3.81
  -3  -4   9   51.91    3.88
  -4   4   9   69.28    5.65
  -4   4   9   69.03    5.64
  -4  -4   9   69.80    5.66
   4   4   9   69.46    6.22
  -4  -4   9   69.98    5.74
  -4  -4   9   70.81    5.66
   4   4   9   68.23    5.67
  -5   4   9   26.91    2.29
  -5   4   9   25.11    2.24
   5  -4   9   22.91    2.44
   5   4   9   25.80    2.28
   5   4   9   24.21    2.73
  -5   4  -9   23.61    2.54
  -5  -4   9   26.13    2.24
  -5  -4   9   25.48    2.22
  -6   4   9   14.05    1.22
   6  -4   9   14.11    1.33
  -6   4   9   14.81    1.25
  -6  -4   9   10.95    1.23
   6   4   9   10.03    1.15
  -6   4  -9   11.82    1.33
   0  -5   9   24.05    2.43
   0   5  -9   25.04    2.22
   0  -5   9   24.16    2.20
   0   5   9   26.80    2.22
   0   5   9   24.70    2.76
   1  -5   9   23.41    2.04
   1  -5   9   24.59    2.09
   1   5  -9   28.40    2.22
   1  -5   9   26.82    2.52
  -1   5   9   25.80    2.09
  -1   5   9   21.28    1.97
   1   5   9   20.67    2.04
  -1   5  -9   20.65    2.02
   1   5   9   21.38    2.03
  -1  -5   9   21.65    2.11
   1   5   9   23.32    2.55
  -2   5   9    5.82    0.69
   2  -5   9    6.20    0.76
   2  -5   9    4.77    0.80
   2   5  -9    5.05    0.76
   2  -5   9    5.88    0.72
  -2   5   9    5.67    0.74
  -2  -5   9    6.49    0.87
   2   5   9    6.40    0.79
   2   5   9    5.14    0.74
  -2  -5   9    6.52    0.81
   2   5   9    5.58    0.75
   3  -5   9    1.89    0.52
   3   5  -9    4.83    0.64
  -3   5   9    3.54    0.59
   3  -5   9    3.52    1.25
   3   5   9    3.29    0.67
   3   5   9    2.43    0.62
  -3  -5   9    2.89    0.71
  -3  -5   9    3.52    0.66
   3   5   9    3.91    1.04
  -3  -5   9    3.03    0.61
  -4   5   9    1.43    0.41
   4   5  -9    1.41    0.40
  -4   5   9    1.51    0.43
   4  -5   9    0.87    0.39
   4   5   9    0.76    0.32
  -4  -5   9    1.01    0.35
  -4  -5   9    0.69    0.38
   4   5   9    2.13    0.81
   4   5   9    0.72    0.36
  -4  -5   9    1.06    0.45
  -4   5  -9    0.99    0.52
  -5   5   9    0.55    0.36
  -5   5   9    0.73    0.30
   5  -5   9    0.49    0.37
  -5   5  -9    0.62    0.45
   5   5   9    0.94    0.65
  -5  -5   9    0.43    0.26
   5   5   9    0.34    0.25
   0   6   9   14.29    1.43
   0  -6   9   14.08    1.43
   0   6  -9   14.92    1.46
   0   6   9   14.63    1.50
   1   6  -9   35.63    2.92
  -1   6   9   32.79    2.80
   1  -6   9   28.15    3.10
  -1   6   9   29.31    3.51
   1  -6   9   33.87    2.83
  -1   6   9   34.40    2.91
   1  -6   9   29.96    2.75
   1   6   9   31.89    2.77
  -1  -6   9   34.11    2.89
  -1   6  -9   34.14    2.79
   1   6   9   34.24    2.83
   1   6   9   32.33    3.39
   2   6  -9   23.12    2.40
  -2   6   9   29.07    2.41
   2  -6   9   22.99    2.39
   2  -6   9   25.18    2.87
  -2   6   9   29.41    3.41
   2   6   9   28.85    2.45
  -2  -6   9   24.64    2.52
   2   6   9   29.89    2.48
  -2  -6   9   28.45    2.47
   2   6   9   31.25    3.12
   3  -6   9    8.08    1.13
   3   6  -9   13.37    1.23
   3   6   9   13.04    1.88
   3   6   9   11.30    1.24
  -3  -6   9   10.46    1.16
  -3  -6   9    7.29    1.22
   4  -6   9    0.01    0.25
   4   6  -9   -0.04    0.20
  -4   6  -9    0.36    0.41
   4   6   9    0.28    0.28
   4   6   9    0.20    0.22
  -4  -6   9    0.42    0.37
  -4  -6   9    0.31    0.25
   4   6   9    0.05    0.47
   5  -6   9    2.23    0.60
  -5  -6   9    1.53    0.37
   5   6   9    0.73    0.61
  -5  -6   9    1.96    0.51
  -5   6  -9    2.29    0.72
   0  -7   9   40.28    3.52
   0   7   9   41.16    3.51
   0   7  -9   44.05    3.57
   0   7   9   39.63    4.24
   0   7   9   41.19    3.56
   1  -7   9    9.31    1.35
   1   7  -9    8.91    1.09
  -1   7   9   10.98    1.16
   1  -7   9    7.91    1.00
   1  -7   9   10.36    1.04
  -1   7   9   10.72    1.07
   1   7   9    7.53    0.99
   1   7   9   10.14    1.68
  -1   7  -9    8.12    0.98
   1   7   9    7.41    1.06
  -1  -7   9    8.37    1.07
   2  -7   9   42.14    4.00
   2  -7   9   55.56    4.66
   2   7   9   47.80    4.05
  -2  -7   9   45.74    4.16
   3   7  -9   53.66    4.24
   3   7   9   51.72    5.00
   3   7   9   54.88    4.32
  -3  -7   9   40.82    4.32
   4  -7   9   10.76    1.43
   4   7  -9   12.07    1.33
   4   7   9   15.15    1.45
  -4   7  -9   13.37    1.68
  -4  -7   9   14.00    1.50
   4   7   9   16.24    2.09
   5  -7   9   19.31    1.92
  -5  -7   9   22.33    1.83
  -5   7  -9   19.81    2.02
   5   7   9   15.00    2.14
   0   8   9    1.49    0.42
   0  -8   9    1.56    0.49
   0   8  -9    1.48    0.47
   0   8   9    2.15    0.57
   0   8   9    3.00    1.18
  -1   8   9   12.11    1.27
   1  -8   9    8.43    1.09
  -1   8   9    9.74    2.15
  -1   8   9   10.83    1.13
   1   8  -9    8.22    1.12
   1   8   9    9.26    1.11
   1   8   9   11.03    1.86
   2  -8   9   12.27    1.35
  -2   8   9   16.47    2.68
   2   8  -9   11.49    1.33
   2   8   9   11.81    1.34
   3   8  -9    0.98    0.36
   3  -8   9    0.69    0.35
   3   8   9    0.38    0.64
  -3  -8   9    0.93    0.46
   4   8  -9    6.93    0.81
   4  -8   9    4.77    0.85
   4   8   9    8.83    1.56
   4   8   9    5.53    0.81
  -4  -8   9    6.46    0.92
   5  -8   9    2.52    0.61
  -5   8  -9    4.35    0.82
   5   8   9    4.07    1.05
  -5  -8   9    3.69    0.62
   0   9  -9   15.47    1.75
   0  -9   9   17.55    1.77
   0   9   9   18.76    1.77
   0   9   9   19.88    2.23
  -1   9   9   40.00    3.14
   1   9  -9   27.31    2.94
   1  -9   9   27.55    2.94
  -1   9   9   35.81    2.95
  -1   9   9   29.63    4.07
   1   9   9   31.91    3.81
  -1  -9   9   38.42    3.10
  -1   9  -9   37.65    3.00
  -2   9   9    2.49    1.43
   2   9  -9    0.93    0.37
   2   9   9    1.62    0.47
   2   9   9    3.75    1.33
  -2   9  -9    1.80    0.50
  -2  -9   9    1.90    0.61
   3  -9   9   18.28    1.86
   3   9  -9   18.80    1.76
   3   9   9   15.38    2.47
  -3   9  -9   22.21    2.09
  -3  -9   9   21.31    1.99
   3   9   9   16.10    1.77
   4   9  -9    0.57    0.32
   4  -9   9    0.66    0.35
  -4   9  -9    0.60    0.46
  -4  -9   9    1.02    0.38
   4   9   9   -0.11    0.57
   4   9   9    0.78    0.31
   0  10   9    6.25    1.74
   0  10   9    5.86    0.83
   0 -10   9    4.80    0.87
   0  10  -9    5.24    0.83
  -1  10   9   13.52    2.66
  -1  10   9   17.76    1.75
   1  10  -9   12.12    1.59
  -1  10   9   15.54    1.57
   1  10   9   15.20    2.50
   1  10   9   17.00    1.65
  -1  10  -9   18.17    1.70
  -1 -10   9   18.28    1.76
   2  10  -9   15.83    1.50
   2 -10   9   13.57    1.50
  -2 -10   9   13.64    1.61
  -2  10  -9   13.96    1.46
   2  10   9   13.02    1.46
   2  10   9   14.41    2.38
   3 -10   9    6.07    0.90
   3  10  -9    6.45    0.83
   3  10   9    8.16    0.92
  -3  10  -9    6.85    1.11
   3  10   9    5.50    1.49
   4 -10   9    2.61    0.60
   4  10  -9    3.14    0.56
  -4  10  -9    3.76    0.78
  -4 -10   9    4.51    0.64
   4  10   9    4.95    1.21
   4  10   9    3.61    0.56
   0  11   9   19.62    2.99
   0  11   9   17.26    1.84
   0  11  -9   21.71    2.02
   0 -11   9   19.67    1.98
   1  11  -9    5.78    0.84
   1 -11   9    4.90    0.80
  -1 -11   9    5.65    0.91
  -1  11  -9    5.81    0.83
   1  11   9    2.85    1.30
   1  11   9    5.31    0.78
   2 -11   9    4.58    0.75
   2  11  -9    4.74    0.72
   2  11   9    7.09    1.70
  -2  11  -9    4.64    0.75
  -2 -11   9    6.02    0.93
   2  11   9    4.87    0.74
   3 -11   9    9.69    1.22
   3  11  -9   11.32    1.15
   3  11   9   12.46    1.22
   3  11   9   11.01    1.85
  -3 -11   9   13.08    1.30
   0 -12   9    5.14    0.82
   0  12  -9    5.15    0.84
  -1  12   9    5.32    1.64
   1  12  -9    3.95    0.69
   1 -12   9    2.94    0.67
   1  12   9    4.12    0.68
  -1  12  -9    3.77    0.70
   1  12   9    4.93    1.61
   2  12  -9    7.62    0.86
   2 -12   9    5.54    0.84
  -2 -12   9    8.54    0.97
   2  12   9    4.86    1.46
   2  12   9    7.75    0.87
  -2  12  -9    6.14    0.90
   3  12   9   23.97    2.08
   0 -13   9    4.46    0.74
   0  13  -9    4.77    0.75
   0  13   9    4.71    1.52
   1  13  -9    2.13    0.49
   1 -13   9    2.02    0.50
   1  13   9    1.11    0.99
  -1  13  -9    2.55    0.56
   1  13   9    2.27    0.49
  -1 -13   9    2.66    0.56
   2  13   9    2.37    1.25
   0   0  10   41.87    3.35
   0   0  10   33.40    2.89
   0   0  10   35.43    2.95
   0   0  10   31.52    2.89
  -1   0  10    5.51    0.66
   1   0  10    4.76    0.60
  -1   0  10    4.81    0.60
   1   0  10    5.01    0.85
  -1   0  10    5.13    0.62
   1   0  10    4.66    0.59
  -2   0  10  147.78   13.05
   2   0  10  176.15   13.10
   2   0  10  171.78   13.15
  -2   0  10  175.07   13.13
  -2   0  10  175.20   13.12
   2   0  10  179.63   13.13
   2   0  10  158.47   13.59
  -3   0  10    0.73    0.33
   3   0  10    0.33    0.32
   3   0  10    0.54    0.31
  -3   0  10    0.72    0.31
   3   0  10    0.25    0.45
   3   0  10    0.58    0.28
   4   0  10    1.93    0.58
  -4   0 -10    2.04    0.64
  -4   0  10    1.44    0.42
  -4   0  10    1.52    0.46
   4   0  10    2.34    0.54
  -5   0  10    0.80    0.35
   5   0  10    0.68    0.36
  -5   0  10    1.06    0.32
  -6   0  10   10.83    1.06
   6   0  10   10.28    1.12
  -6   0  10   10.83    1.10
   0   1  10    2.61    0.41
   0  -1  10    2.18    0.39
   0   1  10    2.96    0.45
   0  -1  10    2.17    0.40
   0   1  10    2.52    0.55
   0  -1  10    1.73    0.57
   0   1  10    2.79    0.41
  -1   1  10   12.71    1.17
  -1   1  10   15.02    1.27
  -1   1  10   11.23    1.15
   1  -1  10   13.49    1.21
  -1   1  10   14.33    1.21
   1  -1  10   13.59    1.57
   1  -1  10   14.17    1.21
   1  -1  10   12.52    1.18
  -1  -1  10   11.54    1.18
   1   1  10   12.25    1.48
   1   1  10   11.91    1.17
  -1  -1  10   10.58    1.17
  -1  -1  10   12.74    1.19
   1   1  10   11.74    1.19
   1   1  10   12.33    1.18
   2  -1  10   22.85    2.01
   2  -1  10   23.92    2.53
  -2   1  10   22.34    2.00
   2  -1  10   23.44    2.06
   2  -1  10   23.47    2.03
  -2   1  10   22.46    2.02
  -2  -1  10   21.52    2.02
   2   1  10   22.33    2.07
   2   1  10   24.77    2.04
   2   1  10   25.91    2.49
  -2  -1  10   22.59    2.04
   2   1  10   24.88    2.03
  -2  -1  10   19.40    1.99
   3  -1  10   28.51    2.68
   3  -1  10   28.51    2.70
  -3   1  10   32.11    2.67
  -3   1  10   30.13    2.65
   3  -1  10   29.58    2.60
   3   1  10   32.49    2.66
  -3  -1  10   29.81    2.66
  -3  -1  10   31.34    2.69
   3   1  10   32.02    2.70
   3   1  10   27.91    2.72
  -4   1  10    7.72    1.11
   4  -1  10   10.34    1.31
  -4   1  10   10.73    1.17
   4  -1  10   12.68    1.20
  -4  -1  10    7.56    1.12
  -4   1 -10   11.87    1.41
   4   1  10   11.15    1.21
   4   1  10   11.08    1.30
  -5   1  10    3.38    0.66
   5  -1  10    4.10    0.76
  -5   1  10    4.06    0.62
   5   1  10    4.24    0.71
  -5  -1  10    3.02    0.56
  -5   1 -10    3.35    0.84
   5   1  10    4.77    1.18
  -5  -1  10    3.52    0.64
   6  -1  10   10.31    1.06
  -6   1  10    9.39    0.97
  -6   1  10   10.15    1.01
  -6  -1  10    9.35    0.99
  -6  -1  10    8.62    0.94
   6   1  10    8.74    0.99
   0   2  10   45.18    3.73
   0   2  10   40.59    3.65
   0  -2  10   49.15    3.71
   0   2  10   44.65    3.66
   0  -2  10   48.79    3.73
  -1   2  10   75.28    6.09
  -1   2  10   83.92    6.19
   1  -2  10   81.53    6.64
   1  -2  10   74.98    6.11
  -1   2  10   65.87    6.05
   1  -2  10   77.60    6.12
   1  -2  10   75.18    6.12
  -1  -2  10   82.21    6.17
   1   2  10   74.70    6.13
  -1  -2  10   77.94    6.16
   1   2  10   77.04    6.11
   1   2  10   74.48    6.44
   1   2  10   81.90    6.12
  -1  -2  10   82.43    6.14
  -2   2  10   47.63    3.88
   2  -2  10   48.50    3.86
   2  -2  10   50.68    4.48
  -2   2  10   40.77    3.78
   2  -2  10   51.30    3.91
   2  -2  10   48.65    3.84
  -2   2  10   46.36    3.84
  -2  -2  10   44.17    3.87
  -2  -2  10   46.90    3.86
  -2  -2  10   50.80    3.92
   2   2  10   48.51    3.85
   2   2  10   44.26    4.20
   2   2  10   41.85    3.81
   2   2  10   47.97    3.84
  -3   2  10   17.11    1.69
  -3   2  10   17.48    1.70
   3  -2  10   20.12    1.82
   3  -2  10   18.37    1.76
   3  -2  10   18.76    1.69
   3   2  10   16.41    1.76
   3   2  10   20.50    1.77
   3   2  10   18.50    1.74
  -3  -2  10   17.48    1.73
  -3  -2  10   20.13    1.77
  -3  -2  10   14.37    1.68
  -4   2  10   13.31    1.35
  -4   2 -10   12.63    1.55
   4   2  10   12.36    1.41
   4   2  10   12.03    1.77
   4   2  10   11.99    1.38
  -4  -2  10   13.16    1.39
  -5   2  10   27.84    2.32
   5  -2  10   25.19    2.46
  -5   2  10   26.87    2.27
   5   2  10   25.65    2.33
  -5   2 -10   21.77    2.45
   5   2  10   22.70    2.66
  -5  -2  10   26.11    2.26
  -5  -2  10   23.96    2.22
  -6   2  10   12.15    1.14
  -6   2  10   12.17    1.12
   6  -2  10   10.91    1.18
  -6  -2  10   11.87    1.11
   6   2  10    9.75    1.09
  -6  -2  10   10.73    1.07
   0  -3  10   20.52    1.90
   0   3  10   22.00    1.89
   0   3  10   21.01    1.89
   0  -3  10   22.83    2.30
   0   3  10   24.43    2.01
   0  -3  10   22.71    1.97
  -1   3  10   58.12    4.82
   1  -3  10   65.68    4.90
   1  -3  10   59.33    4.86
   1  -3  10   60.68    4.86
  -1   3  10   59.51    4.89
   1  -3  10   70.18    5.47
   1   3  10   61.90    4.84
  -1  -3  10   58.73    4.85
   1   3  10   60.72    4.86
  -1  -3  10   58.08    4.92
  -1  -3  10   60.10    4.90
   1   3  10   60.86    5.17
   1   3  10   55.99    4.87
   2  -3  10   10.89    1.05
  -2   3  10    8.63    0.94
   2  -3  10   10.87    1.03
  -2   3  10   10.00    1.01
  -2   3  10   10.38    1.03
   2  -3  10    7.74    1.35
   2  -3  10    9.80    1.03
   2   3  10    8.39    1.00
   2   3  10   10.22    1.03
  -2  -3  10    9.82    1.05
   2   3  10    9.90    1.00
  -2  -3  10    8.20    1.03
  -2  -3  10    8.67    1.02
   3  -3  10   31.79    2.77
  -3   3  10   31.94    2.68
  -3   3  10   30.17    2.65
   3  -3  10   30.85    2.65
   3  -3  10   31.46    2.72
   3   3  10   31.38    3.22
   3   3  10   31.94    2.70
   3   3  10   28.06    2.69
  -3  -3  10   28.53    2.72
   3   3  10   30.26    2.71
   3   3  10   31.65    2.72
  -3  -3  10   30.65    2.74
  -3  -3  10   31.38    2.73
   4  -3  10   16.11    1.85
   4   3  10   18.74    2.24
   4   3  10   17.48    1.80
  -4  -3  10   15.12    1.70
  -4  -3  10   20.14    2.10
   4   3  10   21.65    1.86
  -4   3 -10   18.88    2.01
   5   3 -10    7.72    0.94
   5  -3  10    8.14    1.14
  -5   3  10    9.00    0.97
  -5   3  10    9.67    1.04
  -5  -3  10    7.02    0.94
   5   3  10    9.87    1.49
  -5  -3  10    7.28    0.91
   5   3  10    8.43    0.99
  -5   3 -10    8.09    1.22
  -6   3  10    4.64    0.68
   6  -3  10    5.43    0.71
  -6   3  10    5.69    0.68
  -6  -3  10    3.95    0.57
   0   4 -10    8.23    0.92
   0  -4  10    7.72    0.84
   0   4  10    7.10    0.80
   0   4  10    7.72    0.79
   0  -4  10    7.07    0.85
   0   4  10    8.22    0.90
   1  -4  10    6.04    0.76
  -1   4  10    6.24    0.69
   1  -4  10    8.06    1.17
  -1   4  10    5.80    0.74
   1  -4  10    7.03    0.76
   1  -4  10    7.38    0.79
   1   4  10    5.70    0.74
   1   4  10    5.99    0.71
  -1   4 -10    5.96    0.75
  -1  -4  10    6.46    0.80
   1   4  10    6.48    0.76
  -1  -4  10    6.22    0.76
   2  -4  10   13.27    1.45
  -2   4  10   15.13    1.44
   2  -4  10   14.01    1.42
  -2   4  10   14.72    1.40
   2  -4  10   15.33    1.48
  -2  -4  10   15.41    1.56
   2   4  10   14.93    1.44
   2   4  10   15.36    1.48
   2   4  10   15.23    1.47
  -2  -4  10   17.10    1.55
  -2  -4  10   15.30    1.46
  -3   4  10   36.84    3.02
  -3   4  10   38.08    3.06
  -3  -4  10   35.72    3.08
  -3  -4  10   37.60    3.20
   3   4  10   36.21    3.12
   3   4  10   33.99    3.04
  -3  -4  10   31.81    3.08
   3   4  10   35.04    3.61
   4  -4  10    0.68    0.39
  -4   4  10    1.25    0.38
   4   4 -10    1.25    0.40
  -4   4  10    1.37    0.42
   4   4  10    1.12    0.39
   4   4  10    0.15    0.36
  -4  -4  10    1.74    0.53
  -4   4 -10    0.48    0.41
  -4  -4  10    1.57    0.47
   4   4  10    0.80    0.66
  -4  -4  10    1.36    0.39
   5  -4  10    3.46    0.77
  -5   4  10    3.42    0.56
  -5   4  10    3.38    0.62
  -5   4 -10    2.96    0.78
  -5  -4  10    2.84    0.53
   5   4  10    3.09    0.55
   5   4  10    3.04    0.97
  -5  -4  10    3.08    0.51
   0   5 -10   73.68    5.64
   0   5  10   72.88    5.62
   0   5  10   58.19    5.42
   0  -5  10   69.12    5.91
   0  -5  10   72.33    5.60
   1  -5  10   41.67    3.90
  -1   5  10   37.53    3.31
   1  -5  10   44.34    3.71
   1  -5  10   46.77    3.50
   1  -5  10   43.30    3.42
  -1   5  10   42.24    3.45
  -1   5 -10   40.17    3.41
  -1  -5  10   39.41    3.48
   1   5  10   40.98    3.42
   1   5  10   39.65    3.45
   1   5  10   36.72    3.33
   2   5 -10   33.19    3.06
  -2   5  10   32.10    2.88
   2  -5  10   33.49    3.51
   2  -5  10   33.20    3.01
   2  -5  10   32.04    2.93
  -2   5  10   34.54    2.98
   2  -5  10   33.36    3.00
   2   5  10   38.89    3.03
  -2  -5  10   37.25    3.07
  -2  -5  10   31.00    3.03
   2   5  10   36.23    2.96
   2   5  10   36.04    3.03
  -2  -5  10   37.21    3.14
   2   5  10   41.33    3.67
  -3   5  10   27.70    2.51
   3   5 -10   25.32    2.56
  -3  -5  10   30.68    2.75
   3   5  10   31.26    2.66
  -3  -5  10   30.94    2.64
  -4   5  10    4.75    0.79
   4   5 -10    4.91    0.78
  -4  -5  10    7.96    1.02
   4   5  10    6.17    0.80
  -4  -5  10    6.98    0.90
   4   5  10    7.31    0.89
  -4  -5  10    7.50    0.85
   4   5  10    6.97    1.44
  -4   5 -10    4.89    1.09
   5  -5  10    3.63    0.79
  -5   5  10    3.78    0.68
  -5   5  10    3.53    0.60
   5   5  10    5.33    0.66
  -5  -5  10    5.17    0.63
  -5   5 -10    4.73    0.93
   5   5  10    5.94    1.28
   0  -6  10   21.39    1.98
   0   6  10   23.60    2.04
   0   6  10   16.87    2.59
   0   6 -10   23.13    2.05
   1   6 -10    9.63    1.08
  -1   6  10    8.89    0.98
   1  -6  10    8.99    0.97
   1  -6  10    6.46    1.21
   1  -6  10    9.75    1.01
   1   6  10    6.40    0.92
  -1  -6  10    8.78    1.03
   1   6  10    7.94    0.97
  -1   6 -10    8.38    0.94
   2  -6  10   26.82    3.15
  -2   6  10   35.45    2.72
   2   6 -10   27.87    2.72
   2   6  10   32.63    2.74
  -2  -6  10   24.53    2.74
   2   6  10   35.96    2.77
   3   6 -10   45.08    3.95
   3   6  10   52.93    4.05
  -3  -6  10   38.88    4.03
  -3  -6  10   50.38    3.99
   4  -6  10   16.92    1.91
   4   6 -10   21.55    1.83
   4   6  10   18.08    1.81
   4   6  10   18.13    2.39
  -4  -6  10   20.55    1.94
  -4  -6  10   18.86    1.77
   5  -6  10   13.70    1.41
  -5   6 -10   11.22    1.45
  -5  -6  10   11.50    1.26
  -5  -6  10   10.41    1.10
   0   7  10    7.00    1.66
   0  -7  10    7.38    0.93
   0   7  10    6.97    0.91
   0   7 -10    7.18    0.95
   1   7 -10   14.27    1.76
   1  -7  10   14.94    1.72
   1  -7  10   18.00    2.16
  -1   7  10   20.50    1.79
   1  -7  10   19.68    1.74
  -1  -7  10   17.60    1.80
  -1   7 -10   18.93    1.74
   1   7  10   18.90    1.78
   1   7  10   22.02    2.58
   2  -7  10    4.08    0.69
   2   7 -10    4.36    0.71
  -2   7  10    5.86    0.76
   2   7  10    6.96    1.53
  -2  -7  10    5.15    0.87
   2   7  10    3.58    0.67
   3   7 -10    6.19    0.80
   3   7  10    5.37    1.41
  -3  -7  10    4.21    0.91
   3   7  10    5.82    0.84
   4   7 -10    7.54    0.91
   4  -7  10    7.81    1.04
  -4   7 -10    6.98    1.19
   4   7  10    7.23    1.52
  -4  -7  10    8.68    1.06
   4   7  10    7.43    0.94
   5  -7  10    1.55    0.49
   5   7  10    1.47    0.78
  -5   7 -10    1.90    0.57
  -5  -7  10    2.12    0.49
   0  -8  10   18.01    1.85
   0   8 -10   20.26    1.93
   0   8  10   19.42    1.90
   1   8 -10    3.71    0.81
   1  -8  10    2.92    0.68
   1  -8  10    5.63    0.73
  -1   8  10    4.81    0.72
  -1  -8  10    4.45    0.77
  -1   8 -10    5.10    0.75
   2   8 -10    2.23    0.54
   2  -8  10    3.47    0.60
  -2  -8  10    2.72    0.73
   2   8  10    1.76    0.52
   2   8  10    2.13    1.04
   3  -8  10   65.67    5.82
   3   8 -10   74.89    5.75
   3   8  10   76.26    5.81
   3   8  10   63.50    6.53
   4   8 -10   12.58    1.29
   4  -8  10   13.48    1.47
   4   8  10   10.46    1.87
  -4  -8  10   16.02    1.46
   4   8  10   14.04    1.37
  -4   8 -10   11.78    1.55
   5   8 -10    0.95    0.37
   0   9  10    0.20    0.27
   0   9  10    2.64    1.22
   0   9 -10    0.49    0.32
   0  -9  10    0.83    0.40
  -1   9  10    1.32    1.08
  -1   9  10    4.04    0.66
   1   9 -10    2.47    0.65
   1  -9  10    2.99    0.67
   1   9  10    3.29    1.25
  -1   9 -10    4.71    0.69
  -1  -9  10    5.03    0.80
   1   9  10    3.08    0.64
   2   9 -10   48.67    4.59
  -2  -9  10   58.19    4.79
   2   9  10   60.67    5.69
   3   9 -10    9.03    1.03
   3  -9  10    7.62    1.08
   3   9  10   10.25    1.12
   3   9  10    8.22    1.73
  -3   9 -10   10.07    1.32
  -3  -9  10   10.06    1.21
   4  -9  10    4.76    0.77
   4   9 -10    4.24    0.69
   4   9 -10    5.09    0.67
   4   9  10    7.86    1.40
  -4  -9  10    5.34    0.76
   4   9  10    5.51    0.72
  -4   9 -10    5.01    0.94
   0 -10  10   39.47    3.20
   0  10 -10   34.28    3.21
   0  10  10   41.23    3.22
   0  10  10   27.33    3.99
   1 -10  10   14.19    1.65
  -1  10  10   16.68    1.60
   1  10 -10   18.39    1.75
  -1 -10  10   17.93    1.75
   1  10  10   11.89    2.36
  -1  10 -10   15.57    1.65
   1  10  10   17.32    1.67
   2 -10  10   10.87    1.28
   2  10 -10   11.97    1.27
   2  10  10   10.98    1.26
   2  10  10   11.01    2.10
  -2 -10  10   11.82    1.40
   3 -10  10    0.70    0.35
   3  10 -10    0.97    0.33
   3  10  10    1.32    0.40
   3  10  10    1.97    0.93
  -3  10 -10    1.14    0.53
  -3 -10  10    1.89    0.52
   4  10  10   10.49    1.08
  -4 -10  10   11.06    1.12
   0  11  10    9.66    1.17
   0 -11  10   11.78    1.31
   0  11 -10   11.67    1.32
  -1  11  10    3.88    1.48
   1  11 -10    4.68    0.76
   1 -11  10    3.82    0.71
  -1 -11  10    4.74    0.85
   1  11  10    4.75    0.76
   1  11  10    4.43    1.57
  -1  11 -10    4.58    0.75
   2 -11  10    9.57    1.21
   2  11 -10   10.44    1.19
  -2 -11  10   12.64    1.34
   2  11  10   12.71    1.26
   3 -11  10    4.86    0.73
   3  11 -10    4.78    0.63
  -3 -11  10    5.74    0.75
   3  11  10    5.26    0.68
   3  11  10    2.97    1.06
   0 -12  10    0.52    0.31
   0  12  10    0.50    0.99
   0  12 -10    0.50    0.34
   0  12  10    0.33    0.30
   1  12 -10    1.95    0.50
  -1  12  10    1.35    1.05
   1 -12  10    1.50    0.47
   1  12  10    2.24    1.20
  -1 -12  10    2.24    0.53
  -1  12 -10    2.09    0.53
   1  12  10    1.76    0.48
   2 -12  10    0.79    0.37
   2  12 -10    1.22    0.36
   2  12  10    1.01    0.36
  -2 -12  10    1.04    0.41
   2  12  10    1.08    0.96
   0 -13  10    8.83    1.04
   1  13  10    4.93    1.68
   0   0  11   -0.03    0.16
   0   0  11    0.59    0.24
   0   0  11    0.07    0.18
   0   0  11   -0.01    0.25
  -1   0  11    2.52    0.44
  -1   0  11    3.19    0.51
  -1   0  11    2.32    0.42
  -1   0  11    4.27    0.53
   1   0  11    2.27    0.47
   1   0  11    2.75    0.46
   1   0  11    3.89    0.49
  -2   0  11    0.09    0.23
   2   0  11    0.04    0.24
   2   0  11    0.23    0.19
  -2   0  11    0.20    0.19
   2   0  11    0.21    0.22
  -2   0  11    0.09    0.21
   2   0  11    0.35    0.43
   3   0  11    0.10    0.26
   3   0  11    0.40    0.32
  -3   0  11   -0.06    0.23
  -3   0  11    0.06    0.20
   3   0  11    0.06    0.21
   3   0  11    0.25    0.57
  -4   0  11    8.28    1.09
  -4   0  11    7.86    1.04
  -4   0 -11    9.76    1.30
   4   0  11    9.98    1.12
   4   0  11   10.32    1.26
  -5   0  11    0.42    0.26
  -5   0  11    0.16    0.30
   5   0  11    0.86    0.37
  -6   0  11    1.86    0.40
  -6   0  11    2.03    0.39
   0  -1  11  348.69   26.24
   0   1  11  351.15   26.23
   0  -1  11  380.13   26.79
   0   1  11  345.59   26.28
   0  -1  11  318.18   26.22
   0   1  11  345.07   26.65
   0   1  11  332.95   26.23
   0  -1  11  316.68   26.24
  -1   1  11    2.45    0.43
  -1   1  11    1.21    0.34
   1  -1  11    1.89    0.40
   1  -1  11    2.22    0.44
   1  -1  11    1.55    0.62
  -1   1  11    1.57    0.37
  -1   1  11    1.50    0.34
  -1  -1  11    2.68    0.42
  -1  -1  11    3.06    0.46
   1   1  11    2.13    0.42
   1   1  11    2.12    0.64
   1   1  11    2.88    0.44
   1   1  11    1.64    0.39
  -1  -1  11    2.54    0.47
   2  -1  11    6.16    0.76
  -2   1  11    5.26    0.71
   2  -1  11    5.53    0.69
   2  -1  11    5.57    0.72
  -2   1  11    5.28    0.68
   2  -1  11    5.20    1.06
   2   1  11    4.78    0.97
   2   1  11    5.82    0.73
  -2  -1  11    6.61    0.76
  -2  -1  11    6.54    0.75
   2   1  11    5.80    0.72
  -2  -1  11    5.74    0.74
   3  -1  11   18.06    1.53
   3  -1  11   13.25    1.52
   3  -1  11   18.20    1.65
  -3   1  11   16.16    1.52
  -3   1  11   11.58    1.44
  -3  -1  11   17.52    1.57
   3   1  11   12.70    1.49
   3   1  11   14.58    1.59
  -3  -1  11   12.74    1.48
   3   1  11   15.21    1.50
   4  -1  11   26.63    2.45
   4  -1  11   27.89    2.27
  -4   1  11   19.32    2.19
   4   1  11   24.83    2.27
  -4   1 -11   23.04    2.43
   4   1  11   24.18    2.36
   5  -1  11   39.30    3.68
  -5   1  11   40.19    3.53
  -5   1  11   44.16    3.58
  -5   1 -11   35.45    3.69
  -5  -1  11   44.52    3.55
   5   1  11   43.36    3.64
  -5  -1  11   47.36    3.59
  -6   1  11   27.45    2.20
  -6  -1  11   26.39    2.19
  -6  -1  11   23.06    2.15
   0  -2  11   54.38    5.18
   0   2  11   61.98    4.82
   0   2  11   57.38    4.74
   0   2  11   62.13    4.75
   0  -2  11   57.94    4.78
   0  -2  11   62.70    4.78
  -1   2  11   86.68    8.05
  -1   2  11  100.35    8.18
   1  -2  11  100.94    8.12
   1  -2  11  107.91    8.72
  -1   2  11   98.44    8.10
   1  -2  11   99.31    8.13
   1  -2  11  101.09    8.13
   1   2  11  109.36    8.19
   1   2  11  107.20    8.13
   1   2  11  113.20    8.15
   1   2  11  106.14    8.56
  -1  -2  11  110.52    8.15
  -1  -2  11  105.76    8.18
  -1  -2  11  104.80    8.17
  -2   2  11   18.59    1.75
  -2   2  11   20.62    1.80
   2  -2  11   21.07    1.80
   2  -2  11   19.23    2.32
  -2   2  11   21.07    1.85
   2  -2  11   20.41    1.81
   2  -2  11   22.38    1.87
  -2  -2  11   20.15    1.84
   2   2  11   19.37    1.80
   2   2  11   16.36    1.76
  -2  -2  11   18.26    1.81
   2   2  11   19.10    1.78
  -3   2  11    6.75    0.79
   3  -2  11    7.64    0.92
   3  -2  11    4.05    1.39
   3  -2  11    6.48    0.86
  -3   2  11    4.70    0.76
   3  -2  11    6.28    0.78
  -3  -2  11    3.69    0.71
  -3  -2  11    5.61    0.82
   3   2  11    5.13    0.77
   3   2  11    7.34    0.89
  -3  -2  11    5.30    0.80
   3   2  11    5.55    0.83
   4  -2  11    9.89    1.27
  -4   2  11    7.64    1.10
   4  -2  11   10.03    1.19
  -4  -2  11   10.95    1.22
   4   2  11   10.42    1.24
   4   2  11   11.06    1.24
  -4   2 -11   11.03    1.39
  -5   2  11   21.67    1.94
  -5   2  11   22.36    1.93
   5  -2  11   21.28    2.09
  -5  -2  11   19.14    1.86
  -5  -2  11   21.09    1.91
   5   2  11   19.78    1.94
  -5   2 -11   18.99    2.12
   0   3  11    4.56    0.64
   0  -3  11    5.01    0.65
   0   3  11    4.60    0.59
   0  -3  11    4.73    0.62
   0   3 -11    5.38    0.72
   0  -3  11    4.77    0.66
   0   3  11    4.42    0.58
  -1   3  11    7.00    0.79
   1  -3  11    6.83    0.82
   1  -3  11    7.58    0.85
   1  -3  11    8.43    1.26
   1  -3  11    7.33    0.84
  -1   3  11    7.72    0.87
  -1  -3  11    8.07    0.87
  -1  -3  11    7.99    0.89
   1   3  11    7.32    0.81
   1   3  11    6.76    1.09
  -1  -3  11    7.65    0.84
   1   3  11    6.42    0.80
   1   3  11    7.07    0.85
  -2   3  11   13.60    1.27
  -2   3  11   11.72    1.21
   2  -3  11   13.88    1.32
   2  -3  11   14.20    1.32
   2  -3  11   14.64    1.30
  -2   3  11   13.62    1.30
   2  -3  11   11.08    1.70
   2   3  11   12.80    1.30
  -2  -3  11   11.90    1.33
   2   3  11   11.05    1.26
   2   3  11   12.57    1.26
  -2  -3  11   12.12    1.31
  -2  -3  11   12.47    1.27
   3  -3  11   55.61    4.62
   3  -3  11   57.03    4.75
   3  -3  11   56.22    4.70
  -3   3  11   50.40    4.59
  -3   3  11   53.92    4.63
  -3  -3  11   60.38    4.72
   3   3  11   57.76    4.73
   3   3  11   60.01    4.69
  -3  -3  11   58.27    4.73
  -4   3  11    7.07    0.86
  -4   3  11    6.72    0.88
   4  -3  11    4.23    0.85
  -4   3 -11    7.43    1.12
   4   3  11    6.49    1.00
  -4  -3  11    5.39    0.80
  -4  -3  11    8.23    0.95
   4   3  11    6.46    0.87
  -5   3  11   15.21    1.46
   5  -3  11   14.43    1.63
   5   3 -11   13.52    1.42
  -5   3  11   17.44    1.52
  -5   3 -11   13.03    1.67
   5   3  11   15.14    1.47
  -5  -3  11   15.25    1.45
  -5  -3  11   15.58    1.44
   0   4  11   71.80    5.34
   0  -4  11   66.28    5.25
   0   4  11   65.08    5.17
   0  -4  11   62.35    5.66
   0   4  11   57.75    5.16
   0  -4  11   65.08    5.23
   0   4 -11   65.35    5.32
   0  -4  11   67.32    5.30
   1  -4  11   52.00    3.83
  -1   4  11   42.62    3.69
  -1   4  11   46.85    3.81
   1  -4  11   47.62    3.79
   1  -4  11   47.82    3.78
   1  -4  11   41.47    4.24
   1   4  11   43.57    3.79
   1   4  11   44.78    3.72
  -1  -4  11   44.74    3.75
   1   4  11   45.76    3.76
  -1  -4  11   44.63    3.83
   2  -4  11   30.10    2.54
  -2   4  11   27.64    2.48
   2  -4  11   29.31    2.48
  -2   4  11   28.74    2.43
   2  -4  11   30.72    2.55
   2  -4  11   23.15    2.94
   2   4  11   30.27    2.54
  -2  -4  11   28.76    2.58
   2   4  11   27.74    2.51
  -2  -4  11   28.64    2.55
  -2  -4  11   27.54    2.49
   2   4  11   28.25    2.48
  -3   4  11   26.84    2.69
   3  -4  11   30.17    2.64
   3  -4  11   31.46    2.74
  -3   4  11   31.28    2.66
   3  -4  11   25.25    2.70
   3   4  11   33.48    2.78
   3   4  11   31.11    2.69
  -3  -4  11   35.17    2.84
  -4   4  11    7.93    0.91
   4  -4  11    5.79    0.92
  -4   4  11    6.98    0.84
   4   4 -11    7.01    0.86
  -4  -4  11    6.10    0.92
  -4  -4  11    5.75    0.80
   4   4  11    5.37    0.82
  -4   4 -11    5.89    1.04
  -4  -4  11    5.73    0.86
  -5   4  11    4.59    0.65
  -5   4  11    4.37    0.69
   5   4 -11    4.07    0.65
   5  -4  11    5.16    0.83
  -5  -4  11    4.43    0.65
  -5   4 -11    4.50    0.91
   5   4  11    4.18    1.18
  -5  -4  11    4.68    0.61
   5   4  11    4.17    0.62
   0   5  11    1.82    0.49
   0  -5  11    2.97    0.50
   0  -5  11    2.61    0.55
   0  -5  11    3.38    0.80
   0   5  11    2.18    0.42
   0  -5  11    2.89    0.57
   0   5 -11    3.26    0.63
  -1   5  11    0.02    0.22
   1  -5  11    0.53    0.26
   1  -5  11    0.62    0.51
   1  -5  11    0.39    0.23
   1  -5  11    0.79    0.35
  -1   5  11    0.46    0.28
   1   5 -11    0.32    0.30
   1   5  11    0.52    0.29
   1   5  11    0.39    0.27
   1   5  11    1.04    0.35
  -1  -5  11    0.75    0.34
  -1  -5  11    0.34    0.33
  -1   5 -11    0.78    0.31
   2  -5  11    2.52    0.53
   2  -5  11    2.22    0.85
  -2   5  11    3.38    0.54
   2  -5  11    2.57    0.51
   2   5 -11    1.92    0.53
   2  -5  11    2.92    0.63
  -2   5  11    3.02    0.49
   2   5  11    2.18    0.53
  -2  -5  11    1.35    0.45
  -2  -5  11    2.02    0.49
  -2  -5  11    1.45    0.51
   2   5  11    2.19    0.52
   2   5  11    1.80    0.49
   3  -5  11    2.72    0.62
   3   5 -11    3.63    0.61
  -3  -5  11    3.09    0.60
   3   5  11    1.90    0.90
  -3  -5  11    2.29    0.56
   3   5  11    3.92    0.72
  -3  -5  11    4.18    0.81
   3   5  11    2.25    0.64
   4   5 -11    8.57    0.97
  -4   5  11    7.95    0.96
   4  -5  11    7.28    1.06
  -4  -5  11    6.90    0.93
  -4  -5  11    8.70    1.05
  -4   5 -11    8.71    1.26
  -4  -5  11    8.30    0.95
   4   5  11    7.27    1.48
  -5   5  11    5.34    0.74
   5  -5  11    5.61    0.88
  -5   5 -11    6.04    0.99
   5   5  11    5.05    1.27
  -5  -5  11    5.49    0.67
   0   6  11    8.03    0.99
   0  -6  11    7.33    0.95
   0   6 -11    7.59    0.97
   1  -6  11   25.05    2.09
   1  -6  11   26.10    2.16
   1   6 -11   21.05    2.17
   1  -6  11   18.92    2.46
  -1   6  11   26.28    2.15
   1   6  11   21.79    2.04
  -1  -6  11   19.93    2.10
  -1   6 -11   21.43    2.04
   2  -6  11    8.47    0.92
   2  -6  11    5.54    0.87
  -2   6  11    8.29    0.94
   2   6  11    8.18    1.67
  -2  -6  11    6.04    0.98
   2   6  11    7.89    0.96
   3   6 -11    9.69    1.07
   3  -6  11    7.99    1.08
  -3  -6  11   10.22    1.20
   3   6  11    9.53    1.14
   3   6  11    7.92    1.69
   3   6  11    7.39    1.12
   4  -6  11    5.55    0.87
   4   6 -11    6.35    0.79
  -4  -6  11    6.65    0.89
  -4   6 -11    5.57    1.09
   4   6  11    4.80    1.27
  -4  -6  11    5.24    0.72
   4   6  11    5.47    0.81
   5  -6  11    5.00    0.81
  -5   6 -11    5.25    0.90
   5   6  11    4.98    1.16
   0   7 -11   33.02    2.84
   0  -7  11   30.92    2.76
   0  -7  11   29.08    2.74
   1  -7  11   68.93    5.16
   1  -7  11   51.16    5.13
  -1   7 -11   66.18    5.16
   1   7  11   65.61    5.15
   1   7  11   61.84    5.96
   2   7 -11    8.01    1.02
   2  -7  11    6.28    0.95
   2   7  11    8.77    1.04
   2   7  11   10.49    1.87
  -2  -7  11    8.50    1.12
   3   7 -11   17.57    1.72
   3   7  11   17.07    2.49
  -3  -7  11   15.62    1.81
   3   7  11   19.75    1.83
   4  -7  11   19.66    2.02
   4   7 -11   18.64    1.84
   4   7  11   21.74    1.91
  -4   7 -11   21.58    2.20
  -4  -7  11   23.96    2.00
   4   7  11   16.42    2.45
   5  -7  11   16.61    2.01
  -5   7 -11   12.60    1.49
   0   8  11    2.51    1.30
   0  -8  11    5.36    0.79
   0  -8  11    4.41    0.72
   0   8 -11    5.38    0.81
  -1   8  11   22.23    3.14
   1   8 -11   14.60    1.73
   1  -8  11   19.08    1.71
   1   8  11   13.67    1.65
  -1   8 -11   18.53    1.72
  -1  -8  11   16.74    1.75
   2  -8  11   11.15    1.26
   2   8 -11   12.09    1.28
   2   8  11    8.88    1.19
  -2  -8  11   11.11    1.35
   3  -8  11    4.12    0.71
   3   8 -11    3.39    0.60
  -3  -8  11    3.56    0.74
   3   8  11    4.67    0.71
   3   8  11    1.99    1.04
   4  -8  11   15.95    1.88
   4   8 -11   19.38    1.77
   4   8  11   21.68    1.85
  -4  -8  11   22.41    1.90
  -4   8 -11   19.33    2.06
   0  -9  11    1.54    0.49
   0  -9  11    2.65    0.61
   0   9  11    1.85    0.52
   0   9 -11    2.40    0.61
   0   9  11    1.67    1.14
  -1   9  11    3.65    0.62
  -1   9  11    2.65    1.31
   1  -9  11    2.42    0.59
   1   9 -11    2.19    0.62
   1   9  11    1.88    1.14
   1   9  11    1.64    0.51
  -1   9 -11    2.48    0.57
  -1  -9  11    1.96    0.57
   2   9 -11   18.73    1.67
   2  -9  11   16.49    1.66
  -2  -9  11   16.67    1.75
   2   9  11   14.15    2.36
   2   9  11   12.67    1.56
   3   9 -11    0.26    0.23
   3  -9  11    0.48    0.32
  -3  -9  11    0.39    0.33
   3   9  11    0.12    0.67
   3   9  11   -0.02    0.26
  -3   9 -11    0.38    0.45
   4  -9  11    8.59    1.05
   4   9  11    8.39    0.92
  -4  -9  11    8.91    0.96
  -4   9 -11    7.03    1.09
   0 -10  11   19.15    1.94
   0  10  11   15.39    2.88
   0 -10  11   20.68    2.02
   0  10  11   22.11    1.99
   0  10 -11   23.13    2.09
  -1  10  11   19.48    2.01
   1  10 -11   24.16    2.20
   1 -10  11   24.32    2.20
  -1  10 -11   21.27    2.11
  -1 -10  11   22.70    2.15
   1  10  11   22.00    2.13
   2  10 -11    2.68    0.58
   2 -10  11    2.16    0.55
   2  10  11    3.11    0.61
  -2 -10  11    2.44    0.63
   2  10  11    2.45    1.16
   3  10 -11    8.66    0.91
   3 -10  11    9.48    1.05
  -3 -10  11    8.19    0.99
   3  10  11    5.38    1.43
  -3  10 -11    6.04    1.08
   3  10  11    7.99    0.93
   0  11  11    0.07    0.96
   0  11  11    1.31    0.40
   0 -11  11    1.34    0.44
   0  11 -11    1.59    0.51
   1 -11  11    1.09    0.41
  -1  11  11    0.00    0.97
   1  11 -11    0.93    0.39
   1  11  11   -0.16    0.88
  -1 -11  11    1.24    0.42
  -1 -11  11    1.43    0.49
   1  11  11    1.13    0.42
  -1  11 -11    1.41    0.45
   2 -11  11   15.12    1.59
   2  11 -11   16.80    1.56
   2  11  11   15.94    1.58
  -2 -11  11   16.35    1.61
   2  11  11   14.85    2.34
   3  11  11   17.09    1.62
  -3 -11  11   18.32    1.64
   0 -12  11   18.46    1.73
   0  12 -11   18.37    1.73
   0  12  11   14.73    1.55
   1  12 -11   27.86    2.40
   1 -12  11   27.75    2.44
   1  12  11   25.54    2.32
  -1 -12  11   28.07    2.42
  -1  12 -11   23.70    2.35
   2  12  11   28.25    2.44
   0   0  12  434.24   33.95
   0   0  12  412.80   33.44
   0   0  12  434.16   33.48
   0   0  12  466.52   33.46
   1   0  12   12.86    1.67
   1   0  12   13.07    1.27
  -1   0  12   12.33    1.23
   1   0  12   11.92    1.25
  -1   0  12   13.81    1.27
   1   0  12   14.42    1.29
  -1   0  12   11.90    1.24
   2   0  12   21.33    1.97
  -2   0  12   21.89    1.94
  -2   0  12   22.47    1.97
   2   0  12   22.72    1.97
   2   0  12   17.88    2.38
  -2   0  12   23.90    1.99
  -3   0  12    1.44    0.46
  -3   0  12    2.74    0.59
   3   0  12    1.63    0.51
   3   0  12    1.91    0.48
   3   0  12    2.22    0.59
   4   0  12   27.48    2.63
  -4   0  12   26.48    2.49
   4   0  12   28.47    2.51
  -5   0  12    0.69    0.30
   5   0  12    0.78    0.35
  -5   0  12    0.76    0.34
   0   1  12   18.44    1.78
   0  -1  12   20.23    1.83
   0  -1  12   23.35    1.84
   0   1  12   20.74    1.85
   0  -1  12   20.61    1.82
   0   1  12   19.37    1.78
   0  -1  12   17.82    2.18
  -1   1  12    0.45    0.26
  -1   1  12    0.76    0.26
  -1   1  12    0.46    0.23
   1  -1  12    0.26    0.37
  -1   1  12    0.49    0.26
   1  -1  12    0.29    0.23
   1  -1  12    0.34    0.24
  -1  -1  12    0.68    0.27
   1   1  12    0.81    0.27
  -1  -1  12    0.66    0.26
  -1  -1  12    0.63    0.26
   1   1  12    0.84    0.28
   1   1  12    0.69    0.27
   1   1  12    0.20    0.36
   2  -1  12   11.18    1.11
   2  -1  12    8.27    1.47
   2  -1  12   10.55    1.11
  -2   1  12    9.51    1.05
   2  -1  12   11.20    1.16
  -2   1  12   10.12    1.08
  -2  -1  12   11.48    1.13
   2   1  12    8.07    1.44
   2   1  12   11.18    1.12
  -2  -1  12   11.67    1.12
   2   1  12   10.15    1.10
  -3   1  12    4.09    0.67
   3  -1  12    3.95    0.75
   3   1  12    4.07    0.77
  -3  -1  12    3.29    0.68
   3   1  12    4.59    0.67
  -3  -1  12    5.41    0.74
  -4   1  12   52.04    4.05
   4  -1  12   44.99    4.15
   4  -1  12   45.31    3.98
   4   1  12   50.84    4.05
   4   1  12   48.68    4.12
  -4   1 -12   42.30    4.16
  -5   1  12    9.78    1.10
   5  -1  12    8.41    1.14
  -5   1  12    9.24    1.05
  -5  -1  12   11.18    1.12
  -5  -1  12   11.27    1.09
   5   1  12   10.21    1.14
   0   2  12   31.98    2.87
   0  -2  12   34.89    3.35
   0   2  12   34.69    2.82
   0   2  12   31.53    2.80
   0  -2  12   34.67    2.86
  -1   2  12    8.02    0.83
  -1   2  12    6.85    0.74
  -1   2  12    6.92    0.72
   1  -2  12    8.26    1.27
   1   2  12    4.82    0.69
  -1  -2  12    5.88    0.75
   1   2  12    4.34    0.96
   1   2  12    5.56    0.73
  -1  -2  12    5.67    0.76
   1   2  12    5.03    0.72
   2  -2  12    6.54    0.85
   2  -2  12    6.90    0.89
  -2   2  12    7.18    0.84
  -2   2  12    7.20    0.83
   2  -2  12    4.84    1.18
  -2   2  12    7.14    0.89
   2  -2  12    6.38    0.83
  -2  -2  12    8.44    0.93
  -2  -2  12    7.13    0.88
   2   2  12    7.99    0.92
   2   2  12    9.29    0.92
   2   2  12    6.34    0.83
  -2  -2  12    9.35    0.92
   2   2  12    6.39    1.20
  -3   2  12   38.76    2.98
  -3   2  12   30.11    2.91
  -3  -2  12   40.55    3.02
  -3  -2  12   28.69    2.92
   3   2  12   30.78    2.94
   4  -2  12    4.76    0.84
   4  -2  12    4.92    0.74
  -4   2  12    4.20    0.67
  -4   2  12    4.03    0.73
  -4  -2  12    3.34    0.70
  -4   2 -12    3.77    0.86
   4   2  12    4.04    0.82
   4   2  12    3.74    0.70
   5  -2  12    7.07    0.98
  -5   2  12    7.33    0.90
  -5   2  12    7.09    0.84
  -5  -2  12    8.36    0.87
  -5   2 -12    5.50    1.00
   5   2  12    6.59    0.85
  -5  -2  12    7.51    0.83
   0   3 -12    0.72    0.33
   0  -3  12    0.67    0.28
   0   3  12    0.86    0.28
   0   3  12    0.83    0.28
   0  -3  12    0.55    0.30
   0  -3  12    0.15    0.39
   0  -3  12    0.53    0.25
   0   3  12    0.74    0.30
  -1   3  12   19.74    1.80
   1  -3  12   19.61    1.85
  -1   3  12   21.32    1.91
   1  -3  12   19.12    1.84
   1  -3  12   18.45    1.84
   1  -3  12   21.62    2.43
  -1  -3  12   19.79    1.89
   1   3  12   20.82    1.83
   1   3  12   20.54    1.89
  -1  -3  12   20.88    1.85
   1   3  12   20.78    1.85
   2  -3  12   37.27    2.96
   2  -3  12   37.92    3.01
  -2   3  12   34.98    2.92
  -2   3  12   33.75    2.97
   2   3  12   31.02    2.96
  -2  -3  12   34.54    3.01
   2   3  12   33.45    2.93
  -2  -3  12   32.09    2.93
   3  -3  12    8.25    0.99
   3  -3  12    9.54    1.11
   3  -3  12    8.69    1.09
  -3   3  12    8.41    0.98
  -3   3  12    9.47    1.02
  -3  -3  12    7.79    1.04
  -3  -3  12    7.84    1.06
   3   3  12    8.57    1.05
   4  -3  12   23.27    2.24
  -4   3  12   22.41    2.06
  -4   3  12   22.77    2.04
  -4  -3  12   24.21    2.09
  -4   3 -12   22.09    2.30
   4   3  12   18.15    2.08
  -5   3  12    1.48    0.42
   5   3 -12    1.10    0.34
   5  -3  12    1.32    0.45
  -5   3  12    1.14    0.35
  -5  -3  12    1.18    0.34
  -5  -3  12    1.01    0.30
   5   3  12    0.81    0.32
  -5   3 -12    0.64    0.47
   0  -4  12   30.18    3.37
   0   4  12   36.06    3.05
   0   4  12   34.64    2.93
   0   4  12   30.20    2.90
   0  -4  12   36.63    3.04
   0   4 -12   38.42    3.11
   0  -4  12   36.98    3.00
   0  -4  12   38.95    3.02
   1  -4  12   35.05    3.02
   1  -4  12   31.46    3.51
   1  -4  12   38.23    3.06
   1  -4  12   34.14    3.01
  -1   4  12   37.50    3.08
  -1   4  12   34.53    2.94
   1   4 -12   40.16    3.24
  -1  -4  12   34.87    3.01
  -1  -4  12   30.51    3.01
   1   4  12   36.52    3.08
   1   4  12   33.47    2.95
   1   4  12   36.91    3.02
  -2   4  12    4.49    0.65
  -2   4  12    3.98    0.66
   2  -4  12    5.25    0.81
   2  -4  12    4.97    0.71
   2  -4  12    4.67    0.70
  -2  -4  12    6.13    0.81
  -2  -4  12    4.08    0.69
   2   4  12    4.42    0.70
  -2  -4  12    6.41    0.76
  -3   4  12    5.01    0.74
   3  -4  12    5.62    0.84
   3  -4  12    5.33    0.77
   3   4  12    4.00    0.75
   3   4  12    6.58    0.88
  -3  -4  12    6.29    0.84
  -3  -4  12    4.42    0.74
   3   4  12    6.40    0.86
  -3  -4  12    7.00    0.93
   4   4 -12    2.69    0.54
  -4   4  12    2.77    0.54
   4  -4  12    2.76    0.67
  -4   4  12    2.28    0.50
  -4  -4  12    1.37    0.44
  -4  -4  12    1.39    0.40
  -4   4 -12    2.20    0.68
  -4  -4  12    1.88    0.53
   4   4  12    3.03    0.66
   5   4 -12    0.85    0.32
  -5   4  12    1.14    0.36
   5  -4  12    1.03    0.43
  -5   4  12    0.91    0.33
  -5  -4  12    1.49    0.35
  -5   4 -12    1.22    0.53
  -5  -4  12    1.14    0.35
   0  -5  12    0.44    0.27
   0  -5  12    0.19    0.24
   0  -5  12    0.55    0.53
   0   5  12    0.23    0.23
   0  -5  12    0.29    0.31
   0   5 -12    0.29    0.26
   0   5  12    0.16    0.24
   1  -5  12    9.99    1.64
  -1   5  12   11.18    1.15
  -1   5  12   10.35    1.23
   1   5 -12   13.26    1.41
   1  -5  12   11.10    1.24
   1  -5  12   13.31    1.28
   1  -5  12   12.97    1.29
  -1  -5  12   13.01    1.28
   1   5  12   12.95    1.25
   1   5  12   12.32    1.20
   1   5  12    9.27    1.23
   2  -5  12   18.11    1.87
  -2   5  12   17.84    1.71
   2  -5  12   18.98    1.85
   2  -5  12   19.39    1.79
  -2   5  12   18.64    1.81
  -2  -5  12   14.43    1.82
  -2  -5  12   19.30    1.81
   2   5  12   19.84    1.85
   2   5  12   21.51    1.85
   2   5  12   22.51    1.93
   3  -5  12   22.41    2.10
  -3   5  12   21.31    1.91
  -3  -5  12   20.35    1.99
  -3  -5  12   18.53    1.92
   3   5  12   21.00    2.05
  -3  -5  12   22.24    2.11
   4   5 -12    1.12    0.39
   4  -5  12    1.46    0.49
  -4   5  12    1.40    0.41
  -4  -5  12    2.04    0.45
  -4  -5  12    2.06    0.51
  -4   5 -12    1.66    0.59
  -5   5  12   25.18    2.22
   5  -5  12   26.41    2.41
  -5   5 -12   25.02    2.44
   0   6 -12   29.93    2.60
   0  -6  12   26.29    2.49
   0  -6  12   27.48    2.52
   1  -6  12   16.95    1.63
   1  -6  12   15.84    1.59
  -1   6  12   17.52    1.65
  -1   6 -12   13.76    1.53
   1   6  12   15.72    1.57
   2  -6  12   66.60    5.55
  -2   6  12   66.88    5.49
   2  -6  12   66.84    5.44
   2   6  12   63.89    5.49
   2   6  12   71.02    5.58
   3   6 -12    8.93    1.14
   3  -6  12    8.83    1.19
   3   6  12    9.76    1.27
  -3  -6  12   12.53    1.35
   3   6  12   12.82    1.31
   4   6 -12    3.03    0.55
   4  -6  12    2.77    0.68
   4   6  12    3.78    0.65
  -4  -6  12    4.36    0.70
  -4   6 -12    3.65    0.81
   5  -6  12    6.46    0.88
  -5   6 -12    6.27    0.95
   0   7  12    0.13    0.24
   0  -7  12    0.68    0.33
   0   7 -12    0.51    0.34
   0  -7  12    0.30    0.29
   1  -7  12    2.86    0.61
   1   7 -12    2.78    0.68
  -1   7  12    2.02    0.54
   1  -7  12    2.70    0.58
  -1  -7  12    1.90    0.55
   1   7  12    4.21    0.73
   1   7  12    2.18    0.57
  -1   7 -12    3.86    0.65
   2  -7  12    5.29    0.79
   2   7 -12    5.87    0.83
   2   7  12    7.05    0.99
   2   7  12    4.44    0.78
  -2  -7  12    4.81    0.94
   3  -7  12    3.90    0.71
   3   7 -12    3.76    0.62
  -3  -7  12    3.93    0.80
   3   7  12    3.01    1.20
   3   7  12    2.82    0.65
   4   7 -12    8.34    0.93
   4  -7  12    7.38    1.05
   4   7  12    8.00    0.96
  -4   7 -12    7.74    1.18
  -4  -7  12    9.70    1.02
   0  -8  12  122.10    9.78
   0  -8  12  120.25    9.74
   0   8 -12  125.75    9.83
   1  -8  12   48.48    3.96
  -1   8  12   51.75    4.04
   1   8 -12   51.67    4.16
  -1  -8  12   42.74    4.00
  -1   8 -12   40.76    3.92
   2   8 -12    0.67    0.34
   2  -8  12    0.80    0.34
  -2   8  12    1.00    0.37
   2   8  12    0.94    0.88
  -2  -8  12    0.58    0.39
   2   8  12    0.65    0.34
   3   8 -12    0.59    0.29
   3  -8  12    1.01    0.41
   3   8  12    1.36    0.95
   3   8  12    1.83    0.47
  -3  -8  12    1.42    0.47
   4  -8  12    7.56    0.94
   4   8 -12    6.27    0.74
  -4   8 -12    5.89    0.98
  -4  -8  12    7.07    0.82
   4   8  12    3.70    1.40
   4   8  12    5.89    0.79
   0   9 -12   -0.05    0.28
   0  -9  12    0.13    0.30
   0  -9  12    0.18    0.26
   0   9  12    0.08    0.25
   1  -9  12    4.88    0.78
  -1   9  12    4.87    0.77
   1   9 -12    5.35    0.84
   1   9  12    4.42    1.55
  -1  -9  12    5.86    0.85
   1   9  12    3.85    0.73
  -1   9 -12    4.91    0.79
   2   9 -12   18.48    1.80
   2  -9  12   18.87    1.84
  -2   9  12   15.58    1.71
  -2  -9  12   20.58    1.94
   2   9  12   18.45    2.67
   2   9  12   18.84    1.84
   3  -9  12   12.23    1.38
   3   9 -12   11.45    1.25
  -3   9 -12   12.27    1.49
  -3  -9  12   13.50    1.37
   3   9  12   13.38    1.33
   0 -10  12    0.10    0.24
   0  10  12    0.37    1.05
   0  10 -12   -0.05    0.26
   0  10  12    0.04    0.24
   0 -10  12    0.20    0.32
   1 -10  12    8.54    1.03
  -1  10  12    6.52    0.90
   1  10 -12    9.15    1.07
  -1 -10  12    7.81    1.01
  -1 -10  12    7.99    1.02
   1  10  12    6.98    0.97
  -1  10 -12    6.41    0.95
   2 -10  12   42.19    3.80
   2  10 -12   41.46    3.73
   2  10  12   46.33    3.80
  -2 -10  12   48.40    3.85
   3  10 -12    2.98    0.49
   3 -10  12    3.02    0.60
  -3  10 -12    2.46    0.66
  -3 -10  12    2.83    0.55
   3  10  12    1.68    1.03
   3  10  12    2.44    0.50
   0  11 -12    1.18    0.45
   0  11  12    0.18    1.02
   0  11  12    1.21    0.40
   0 -11  12    1.26    0.44
   1  11 -12    8.24    1.02
   1 -11  12    8.52    1.04
  -1 -11  12    8.17    1.03
  -1  11 -12    8.03    1.05
  -1 -11  12    9.21    1.06
   1  11  12    8.58    1.01
   1  11  12    8.31    2.00
   2 -11  12    3.38    0.66
   2  11 -12    3.24    0.55
   2  11  12    3.51    0.60
   2  11  12    3.03    1.25
  -2 -11  12    3.09    0.57
  -2 -11  12    3.69    0.63
   0 -12  12    3.71    0.62
   1 -12  12    0.45    0.42
   0   0  13    0.17    0.20
   0   0  13    0.08    0.19
   0   0  13   -0.09    0.20
   1   0  13    4.88    1.05
   1   0  13    5.54    0.71
  -1   0  13    5.38    0.70
   1   0  13    4.87    0.71
  -1   0  13    5.80    0.73
   1   0  13    5.37    0.70
   2   0  13   12.46    1.86
   2   0  13   13.61    1.35
   2   0  13   13.91    1.37
  -2   0  13   13.65    1.36
   3   0  13   25.10    2.24
   3   0  13   28.72    2.42
  -3   0  13   20.94    2.18
   3   0  13   22.13    2.25
  -4   0  13    0.59    0.34
   4   0  13    1.19    0.45
   4   0  13    0.82    0.40
  -4   0  13    0.60    0.32
   5   0  13    4.79    0.73
  -5   0  13    5.53    0.71
  -5   0  13    5.18    0.68
   0   1  13   46.18    3.80
   0  -1  13   46.18    3.82
   0  -1  13   50.30    3.85
   0   1  13   45.48    3.84
   0  -1  13   40.18    4.25
   0   1  13   47.72    3.81
   1  -1  13   21.92    1.87
  -1   1  13   21.06    1.84
   1  -1  13   19.84    2.36
  -1   1  13   21.78    1.92
  -1   1  13   19.81    1.82
   1  -1  13   17.28    1.81
   1   1  13   19.60    1.83
  -1  -1  13   22.10    1.86
   1   1  13   20.29    1.84
  -1  -1  13   21.35    1.86
   1   1  13   16.93    2.22
   1   1  13   19.34    1.84
   2  -1  13    7.28    0.82
   2  -1  13    7.75    0.87
  -2   1  13    5.05    0.77
   2  -1  13    8.79    0.96
  -2   1  13    7.92    0.84
   2  -1  13    6.37    1.60
   2   1  13    4.33    0.76
  -2  -1  13    5.58    0.79
  -2  -1  13    7.08    0.85
  -2  -1  13    7.50    0.87
   2   1  13    4.77    1.20
  -3   1  13   17.29    1.48
   3  -1  13   11.11    1.42
   3   1  13   14.64    1.48
   3   1  13   13.03    1.41
  -3  -1  13   12.91    1.41
   4  -1  13   15.36    1.52
  -4   1  13   12.09    1.45
   4  -1  13   14.06    1.63
  -4   1  13   18.07    1.57
  -4   1 -13   12.10    1.64
   4   1  13   15.25    1.58
  -4  -1  13   14.89    1.53
   4   1  13   15.69    1.57
  -4  -1  13   15.69    1.54
   5  -1  13   23.99    2.18
  -5   1  13   23.66    2.08
  -5   1  13   25.05    2.11
  -5  -1  13   22.05    2.06
  -5  -1  13   23.66    2.08
   0  -2  13   19.48    1.78
   0   2  13   18.87    1.79
   0  -2  13   18.12    1.76
   0   2  13   18.98    1.73
   0  -2  13   19.49    2.27
   0   2  13   17.72    1.70
  -1   2  13   32.92    2.57
  -1   2  13   30.39    2.45
   1  -2  13   33.06    2.55
   1  -2  13   30.43    3.13
   1   2  13   25.92    2.45
   1   2  13   25.26    2.46
   1   2  13   25.44    2.44
  -1  -2  13   27.64    2.48
  -1  -2  13   24.86    2.46
   2  -2  13   27.62    2.35
  -2   2  13   21.38    2.21
   2  -2  13   25.64    2.30
   2  -2  13   26.00    2.27
  -2   2  13   24.88    2.22
   2   2  13   22.97    2.24
   2   2  13   29.25    2.34
  -2  -2  13   29.98    2.32
  -2  -2  13   20.79    2.24
   3  -2  13   33.88    2.77
  -3   2  13   32.36    2.59
   3  -2  13   25.96    2.60
   3  -2  13   31.91    2.59
  -3   2  13   23.60    2.49
   3   2  13   32.44    2.66
  -3  -2  13   29.78    2.60
   3   2  13   22.39    2.53
  -4   2  13   12.88    1.34
  -4   2  13   14.67    1.37
   4  -2  13   13.12    1.50
   4  -2  13   12.29    1.32
  -4  -2  13   12.27    1.33
  -4   2 -13   10.10    1.47
  -4  -2  13   13.53    1.36
   4   2  13   12.09    1.41
   5  -2  13    3.31    0.65
   5   2 -13    3.18    0.54
  -5   2  13    3.01    0.51
  -5   2  13    4.08    0.59
  -5  -2  13    2.89    0.50
   5   2  13    2.43    0.50
  -5  -2  13    2.93    0.47
  -5   2 -13    2.39    0.82
   0  -3  13    5.01    0.73
   0   3  13    5.53    0.72
   0   3 -13    6.02    0.85
   0  -3  13    4.08    1.07
   0   3  13    6.51    0.81
   0   3  13    6.35    0.77
   0  -3  13    8.14    0.86
   1  -3  13    8.23    1.44
  -1   3  13    6.00    0.87
  -1   3  13    7.98    0.89
   1  -3  13    8.01    0.91
   1  -3  13    7.46    0.92
   1  -3  13    8.50    0.95
   1   3  13    6.30    0.88
  -1  -3  13    8.31    0.95
   1   3  13    8.01    0.90
   1   3  13    6.96    0.88
   2  -3  13   16.01    1.56
  -2   3  13   15.13    1.44
   2  -3  13   14.84    1.52
   2  -3  13   13.65    1.44
   2   3  13   14.95    1.49
   2   3  13   14.15    1.52
  -2  -3  13   14.69    1.48
   3  -3  13    2.26    0.58
  -3   3  13    2.21    0.50
  -3   3  13    2.03    0.48
   3  -3  13    1.50    0.44
   3  -3  13    1.78    0.53
  -3  -3  13    1.35    0.44
   3   3  13    2.13    0.55
   3   3  13    1.15    0.44
  -3  -3  13    1.90    0.52
  -3  -3  13    2.47    0.57
  -4   3  13   12.41    1.36
   4  -3  13   13.91    1.57
  -4   3  13   14.23    1.41
  -4  -3  13   14.41    1.41
  -4  -3  13   14.24    1.41
  -4   3 -13   13.16    1.61
   4   3  13   13.98    1.53
   5   3 -13    3.03    0.52
   5  -3  13    2.95    0.63
  -5   3  13    2.85    0.52
  -5   3  13    3.61    0.57
  -5   3 -13    3.23    0.71
  -5  -3  13    3.57    0.54
  -5  -3  13    3.78    0.50
   0  -4  13   45.51    4.87
   0   4  13   45.95    4.43
   0  -4  13   57.75    4.46
   0   4  13   57.22    4.37
   0   4  13   54.14    4.37
   0   4 -13   55.70    4.53
   0  -4  13   59.88    4.45
   1  -4  13  141.34   11.02
  -1   4  13  129.47   10.91
   1  -4  13  130.22   10.99
   1   4 -13  150.55   11.23
   1  -4  13  136.77   11.00
   1   4  13  140.96   11.00
  -1  -4  13  149.74   11.02
   1   4  13  146.86   11.08
   1   4  13  135.65   10.93
   2  -4  13    3.29    0.63
   2  -4  13    3.08    0.69
   2  -4  13    3.88    0.68
  -2   4  13    3.20    0.59
   2   4  13    4.07    0.71
   2   4  13    3.21    0.66
   2   4  13    5.36    0.78
  -2  -4  13    4.09    0.70
  -2  -4  13    4.74    0.71
   3  -4  13   22.41    2.16
   3  -4  13   25.83    2.34
  -3   4  13   23.25    2.15
  -3  -4  13   22.76    2.19
   3   4  13   22.50    2.20
   3   4  13   25.79    2.32
  -3  -4  13   25.65    2.29
   4   4 -13   21.89    2.01
   4  -4  13   22.00    2.18
  -4   4  13   22.19    1.98
  -4   4 -13   21.11    2.23
  -4  -4  13   21.21    1.98
  -4  -4  13   21.58    1.96
   5  -4  13   12.19    1.25
  -5   4  13   11.13    1.08
  -5   4 -13    9.26    1.25
   0  -5  13    9.05    1.04
   0   5 -13    9.70    1.15
   0   5  13    9.64    1.00
   0  -5  13    8.09    1.09
   1   5 -13   19.53    1.89
   1  -5  13   20.04    1.76
   1  -5  13   19.48    1.75
   1  -5  13   17.07    1.72
  -1   5  13   17.67    1.63
  -1  -5  13   16.35    1.72
   1   5  13   15.19    1.61
   1   5  13   17.32    1.70
  -1  -5  13   15.57    1.65
   2  -5  13    1.98    0.58
   2  -5  13    2.36    0.50
  -2   5  13    0.68    0.33
   2  -5  13    1.93    0.51
   2   5 -13    1.38    0.47
  -2   5  13    1.34    0.38
  -2  -5  13    1.33    0.46
   2   5  13    1.41    0.49
  -2  -5  13    1.25    0.46
   2   5  13    1.13    0.45
   2   5  13    1.46    0.47
   3   5 -13    1.24    0.43
   3  -5  13    1.90    0.53
  -3   5  13    1.80    0.43
  -3  -5  13    1.14    0.42
   3   5  13    0.66    0.44
   3   5  13    1.41    0.51
  -3  -5  13    1.49    0.50
  -4   5  13    0.19    0.27
   4  -5  13    0.00    0.28
   4   5 -13   -0.01    0.20
  -4  -5  13    0.35    0.32
  -4   5 -13    0.19    0.39
   0  -6  13    0.23    0.26
   0   6  13    0.65    0.31
   0  -6  13    0.73    0.33
   0   6 -13    0.79    0.39
  -1   6  13    1.86    0.52
   1  -6  13    3.91    0.69
   1  -6  13    2.90    0.60
   1   6 -13    3.34    0.73
   1   6  13    2.91    0.62
   1   6  13    1.94    0.54
  -1  -6  13    3.12    0.61
  -1  -6  13    1.61    0.50
   2  -6  13   33.26    2.87
  -2   6  13   29.14    2.78
   2  -6  13   31.17    2.75
   2   6  13   29.76    2.81
   2   6  13   34.73    2.92
   3  -6  13   25.96    2.48
   3   6 -13   24.93    2.37
   3   6  13   26.37    2.46
  -3  -6  13   27.45    2.46
   4   6 -13    4.48    0.63
   4  -6  13    5.36    0.81
  -4  -6  13    3.81    0.68
  -4   6 -13    2.83    0.75
   0  -7  13   12.77    1.40
   0   7 -13   14.05    1.51
   0  -7  13   13.37    1.42
   1   7 -13   21.28    2.01
   1  -7  13   18.29    1.82
   1  -7  13   20.57    1.90
  -1   7  13   19.49    1.89
   1   7  13   16.11    1.83
  -1  -7  13   17.40    1.81
  -2   7  13   45.34    3.92
   2  -7  13   47.88    4.00
   2   7  13   45.60    4.00
   3   7 -13   19.81    2.02
   3  -7  13   20.92    2.13
  -3  -7  13   25.06    2.17
   3   7  13   23.11    2.13
   4  -7  13    0.70    0.37
   4   7 -13    0.95    0.29
   4   7  13    0.16    0.36
  -4  -7  13    0.73    0.34
  -4   7 -13    0.57    0.44
   0  -8  13    0.21    0.24
   0  -8  13    0.19    0.26
   0   8 -13    0.22    0.30
   0   8  13    0.25    0.27
  -1   8  13    9.75    1.08
   1  -8  13    8.49    1.03
   1   8 -13    8.86    1.13
   1  -8  13    9.29    1.07
  -1  -8  13    6.79    0.97
  -1  -8  13    7.33    1.02
   1   8  13    5.90    0.98
  -1   8 -13    8.56    1.33
   2   8 -13   29.61    2.70
  -2   8  13   27.17    2.60
   2  -8  13   31.21    2.73
   2   8  13   29.35    2.71
  -2  -8  13   30.84    2.75
   3   8 -13    4.11    0.63
   3  -8  13    3.85    0.69
  -3   8 -13    3.70    0.83
  -3  -8  13    3.96    0.69
   3   8  13    3.64    0.69
  -4   8 -13   10.13    1.27
   0  -9  13    5.86    0.84
   0   9  13    5.91    0.86
   0  -9  13    6.33    0.87
   0   9 -13    6.58    0.94
  -1   9  13    9.28    1.04
   1  -9  13    8.96    1.06
   1   9 -13   10.03    1.14
   1   9  13    7.53    1.02
  -1   9 -13    6.41    1.02
  -1  -9  13    7.68    1.02
  -1  -9  13    8.62    1.08
   2   9 -13   17.34    1.79
   2  -9  13   17.94    1.84
  -2  -9  13   20.87    1.92
   2   9  13   19.20    1.86
   3  -9  13    7.91    1.01
   3   9 -13    7.44    0.89
  -3   9 -13    8.27    1.15
   3   9  13    9.05    1.00
  -3  -9  13    9.32    0.99
   0 -10  13   11.66    1.28
   0 -10  13   10.52    1.23
   0  10 -13   11.04    1.29
   0  10  13   12.36    1.27
  -1  10  13    9.99    1.16
   1  10 -13   13.06    1.34
   1 -10  13   12.77    1.31
  -1 -10  13   11.14    1.26
  -1 -10  13   10.85    1.26
   1  10  13   11.45    1.25
   2  10 -13    2.71    0.57
   2 -10  13    2.76    0.62
  -2 -10  13    3.18    0.62
  -2 -10  13    3.96    0.70
   2  10  13    3.73    0.63
   0 -11  13    5.76    0.80
   0  11  13    5.40    0.73
   0  11 -13    5.69    0.84
   1 -11  13    3.90    0.62
   1  11 -13    3.75    0.64
   1  11  13    3.37    0.58
  -1 -11  13    4.39    0.65
  -1 -11  13    3.55    0.63
   2  11  13    7.61    0.90
   0   0  14    3.99    0.62
   0   0  14    4.07    0.66
   1   0  14   38.66    4.11
  -1   0  14   35.95    3.03
   1   0  14   33.22    3.01
   1   0  14   33.65    3.01
   2   0  14   48.78    3.87
   2   0  14   41.44    3.81
  -2   0  14   47.08    3.82
   3   0  14    0.09    0.27
  -3   0  14   -0.24    0.24
   3   0  14   -0.03    0.24
  -3   0  14    0.10    0.22
   4   0  14    4.25    0.75
  -4   0  14    4.63    0.72
  -4   0  14    4.23    0.66
   4   0  14    3.17    0.70
  -5   0  14    3.99    0.54
  -5   0  14    3.67    0.59
   0   1  14    9.48    1.05
   0   1  14    7.53    1.00
   0  -1  14    9.75    1.08
   0  -1  14    8.97    1.05
   0   1  14   10.89    1.07
  -1   1  14    0.76    0.30
  -1   1  14    0.98    0.38
  -1   1  14    1.01    0.34
   1  -1  14    0.66    0.30
   1  -1  14    0.51    0.28
   1   1  14    0.56    0.28
  -1  -1  14    0.61    0.29
  -1  -1  14    1.17    0.39
   1   1  14    0.72    0.30
   1   1  14    0.25    0.57
   1   1  14    0.87    0.34
  -2   1  14   19.22    1.77
   2  -1  14   18.68    1.78
   2   1  14   17.74    1.78
  -2  -1  14   19.48    1.79
   2   1  14   18.63    1.80
  -3   1  14   13.52    1.33
   3  -1  14   15.09    1.44
   3   1  14   10.09    1.29
  -3  -1  14   10.99    1.31
   3   1  14   12.00    1.33
  -4   1  14   11.69    1.22
  -4   1  14   12.16    1.25
   4  -1  14    9.60    1.28
   4  -1  14   11.42    1.25
  -4  -1  14   12.02    1.24
  -4  -1  14   11.97    1.26
   4   1  14   10.52    1.27
  -5   1  14   14.56    1.32
   5  -1  14   11.58    1.53
  -5   1  14   15.51    1.36
  -5  -1  14   14.69    1.33
  -5  -1  14   13.76    1.31
   0  -2  14   18.63    1.54
   0   2  14   12.69    1.39
   0  -2  14   10.86    1.38
   0   2 -14   14.53    1.53
   0   2  14   14.92    1.42
   0   2  14   16.14    1.51
  -1   2  14   61.90    5.01
  -1   2  14   54.16    5.01
   1   2  14   65.60    5.11
  -1  -2  14   67.88    5.12
   1   2  14   64.39    5.08
  -1  -2  14   66.01    5.10
   1   2  14   54.36    5.02
   2  -2  14   14.05    1.58
  -2   2  14   17.89    1.59
  -2   2  14   19.37    1.57
  -2  -2  14   17.72    1.62
   2   2  14   15.25    1.58
   2   2  14   12.56    1.54
   3  -2  14    6.90    0.85
   3  -2  14    7.32    0.99
  -3   2  14    7.00    0.82
   3  -2  14    6.23    0.91
  -3   2  14    5.13    0.78
  -3  -2  14    6.13    0.86
  -3  -2  14    4.02    0.75
   3   2  14    5.84    0.87
  -3  -2  14    6.41    0.84
   3   2  14    3.98    0.83
   4  -2  14   18.11    1.91
  -4   2  14   21.66    1.97
   4  -2  14   19.37    2.08
  -4   2  14   20.55    1.93
  -4  -2  14   24.82    2.02
  -4  -2  14   24.10    2.00
  -4   2 -14   18.02    2.10
   4   2  14   22.68    2.07
  -5   2  14    0.76    0.28
  -5  -2  14    1.28    0.31
  -5  -2  14    0.98    0.28
   0   3  14   90.97    6.86
   0   3 -14   83.79    6.97
   0   3  14   83.49    6.84
   0  -3  14   96.25    6.95
   0   3  14   76.56    6.90
   1  -3  14   31.54    2.55
  -1   3  14   29.21    2.45
   1   3  14   27.32    2.46
  -1  -3  14   28.81    2.49
   1   3  14   23.36    2.44
   1   3  14   27.99    2.46
  -2   3  14    2.23    0.49
   2  -3  14    1.85    0.51
   2  -3  14    1.62    0.51
   2  -3  14    1.65    0.45
   2   3  14    1.78    0.50
  -2  -3  14    4.00    0.65
   2   3  14    3.38    0.62
   3  -3  14    8.13    1.10
   3  -3  14    7.65    0.96
   3  -3  14    8.26    1.08
  -3   3  14    8.60    0.96
   3   3  14    7.73    1.02
  -3  -3  14    7.44    0.99
  -4   3  14   29.82    2.34
   4   3 -14   24.82    2.32
  -4   3  14   25.34    2.26
   4  -3  14   27.71    2.52
   4   3  14   24.40    2.38
  -4  -3  14   26.61    2.30
  -4  -3  14   27.55    2.33
  -4   3 -14   21.60    2.46
   0  -4  14    3.41    0.66
   0  -4  14    1.76    0.50
   0   4  14    2.38    0.57
   0   4  14    3.59    0.62
   0   4 -14    3.37    0.70
   0   4  14    3.31    0.56
   1   4 -14   11.18    1.36
   1  -4  14   11.14    1.25
  -1   4  14   10.55    1.13
   1  -4  14   11.39    1.21
   1   4  14   10.76    1.21
   1   4  14   10.70    1.17
   1   4  14   10.79    1.20
  -1  -4  14   10.53    1.22
   2  -4  14   10.24    1.18
  -2   4  14    9.57    1.06
   2  -4  14   10.14    1.24
   2  -4  14   10.57    1.13
  -2  -4  14    9.28    1.14
   2   4  14    9.42    1.14
   2   4  14    8.11    1.12
   2   4  14   10.12    1.19
  -2  -4  14    9.90    1.18
   3  -4  14    0.61    0.36
   3   4 -14    0.42    0.30
  -3   4  14    0.70    0.32
   3  -4  14    0.44    0.31
   3   4  14    0.76    0.37
  -3  -4  14    0.67    0.36
  -3  -4  14    0.61    0.37
   4  -4  14    1.16    0.47
   4   4 -14    1.35    0.38
  -4   4  14    1.13    0.36
  -4  -4  14    0.44    0.33
  -4   4 -14    0.96    0.51
   0  -5  14   12.67    1.38
   0   5 -14   14.25    1.47
   0  -5  14   12.40    1.31
   0   5  14   10.97    1.24
   1   5 -14    7.24    1.01
   1  -5  14    7.16    0.87
   1  -5  14    7.08    0.88
   1  -5  14    6.95    0.94
  -1   5  14    4.71    0.80
  -1   5  14    6.23    0.81
  -1  -5  14    5.16    0.86
   1   5  14    5.18    0.82
   1   5  14    4.61    0.76
   1   5  14    5.02    0.81
   2   5 -14    4.00    0.73
   2  -5  14    5.62    0.79
  -2   5  14    4.30    0.73
  -2   5  14    4.22    0.67
   2  -5  14    4.59    0.72
   2  -5  14    5.18    0.90
   2   5  14    4.23    0.75
   2   5  14    4.09    0.77
   2   5  14    4.16    0.79
  -2  -5  14    3.62    0.77
  -2  -5  14    3.94    0.72
  -3   5  14   15.16    1.49
   3  -5  14   16.53    1.70
   3   5 -14   15.58    1.59
   3   5  14   16.64    1.67
  -3  -5  14   18.01    1.69
   3   5  14   15.94    1.69
  -3  -5  14   11.15    1.83
   4   5 -14    3.51    0.58
   4  -5  14    4.36    0.75
  -4   5  14    3.20    0.54
  -4  -5  14    3.74    0.65
  -4   5 -14    3.00    0.73
   0   6  14   27.45    2.58
   0  -6  14   28.34    2.53
   1  -6  14    1.16    0.42
  -1   6  14    0.88    0.41
   1  -6  14    1.32    0.44
   1   6 -14    1.38    0.52
  -1  -6  14    1.27    0.41
   1   6  14    1.90    0.49
  -1  -6  14    0.73    0.36
   1   6  14    1.46    0.47
   2  -6  14   44.30    3.78
  -2   6  14   46.00    3.87
   2   6 -14   45.07    3.92
   2  -6  14   48.46    3.94
   2   6  14   39.75    3.81
   2   6  14   47.38    3.94
   3   6 -14    5.69    0.78
   3  -6  14    6.06    0.88
  -3  -6  14    5.17    0.84
   3   6  14    5.02    0.85
   4   6 -14   10.18    1.07
   4  -6  14   10.95    1.26
  -4  -6  14   11.86    1.12
  -4   6 -14    8.80    1.26
   0  -7  14    3.89    0.70
   0   7  14    2.17    0.58
   0   7 -14    3.88    0.75
   0  -7  14    3.41    0.63
  -1   7  14   24.31    2.47
   1  -7  14   30.45    2.51
   1   7 -14   31.21    2.66
   1  -7  14   28.35    2.51
  -1  -7  14   28.23    2.48
  -1  -7  14   21.85    2.44
  -2   7  14    9.36    1.18
   2   7 -14   11.64    1.27
   2  -7  14   10.07    1.23
   2   7  14   10.63    1.26
  -2  -7  14   11.35    1.29
   3  -7  14    0.25    0.29
   3   7 -14    0.23    0.24
  -3  -7  14    0.54    0.36
   3   7  14    0.55    0.36
  -4   7 -14    0.15    0.39
   0  -8  14    1.56    0.46
   0   8 -14    1.81    0.53
   0  -8  14    1.56    0.46
   0   8  14    1.86    0.51
   1   8 -14   49.81    4.20
   1  -8  14   48.02    4.06
   1  -8  14   48.06    4.12
  -1   8  14   47.55    4.09
  -1  -8  14   46.65    4.09
  -1  -8  14   52.74    4.15
   1   8  14   47.35    4.13
   2   8 -14   10.92    1.22
   2  -8  14   11.96    1.27
  -2  -8  14   12.11    1.29
  -2  -8  14    8.90    1.14
   2   8  14    9.83    1.20
   3  -8  14   13.96    1.54
   3   8 -14   14.05    1.43
  -3  -8  14   17.27    1.54
  -3   8 -14   15.00    1.66
   3   8  14   15.27    1.49
   0  -9  14    5.04    0.76
   0   9  14    5.37    0.76
   0  -9  14    4.84    0.76
   0   9 -14    4.11    0.79
  -1   9  14    0.38    0.30
   1  -9  14    0.93    0.35
   1   9 -14    1.03    0.40
  -1  -9  14    0.87    0.37
   1   9  14    0.48    0.31
  -1  -9  14    0.91    0.37
   2  -9  14    8.70    1.07
   2   9 -14    8.51    1.01
  -2  -9  14    8.37    1.02
  -2  -9  14    9.64    1.09
   2   9  14   10.00    1.08
  -3  -9  14   20.32    1.85
   3   9  14   21.06    2.03
   0  10 -14   17.00    1.69
   0 -10  14   15.75    1.61
   0  10  14   17.22    1.63
   0 -10  14   16.85    1.66
   1 -10  14   26.13    2.40
   1  10 -14   28.05    2.45
  -1 -10  14   26.29    2.38
   1  10  14   25.09    2.37
  -1 -10  14   28.98    2.44
   2 -10  14   12.24    1.34
   2  10  14   12.08    1.26
  -2 -10  14   14.38    1.32
   0   0  15   -0.09    0.20
   0   0  15   -0.01    0.22
   0   0  15    0.02    0.23
   1   0  15    7.52    0.98
  -1   0  15    9.06    1.00
   1   0  15    9.71    1.07
   2   0  15    1.61    0.46
   2   0  15    1.79    0.49
  -2   0  15    2.81    0.57
  -2   0  15    1.73    0.45
  -3   0  15    7.07    0.85
   3   0  15    4.32    0.81
   3   0  15    6.69    0.85
  -3   0  15    5.13    0.81
  -4   0  15    0.25    0.25
  -4   0  15    0.27    0.28
   4   0  15    0.71    0.37
   0  -1  15    9.49    1.14
   0   1  15   12.59    1.18
   0   1  15    7.70    1.07
   0   1  15   11.87    1.20
   1  -1  15   14.91    1.67
  -1   1  15   18.73    1.69
   1  -1  15   16.47    1.68
   1   1  15   16.12    1.68
   1   1  15   20.13    1.73
  -1  -1  15   18.29    1.70
   2  -1  15   11.81    1.34
   2  -1  15   12.82    1.32
  -2   1  15   10.62    1.25
   2   1  15   12.91    1.34
   2   1  15   13.91    1.38
  -2  -1  15   13.27    1.33
   3  -1  15    7.76    1.05
   3  -1  15    9.03    1.03
  -3   1  15    5.64    0.91
  -3   1  15    8.79    0.98
   3   1  15    6.47    0.98
   3   1  15    7.90    1.01
  -3  -1  15   10.04    1.06
  -3  -1  15    9.49    1.05
   4  -1  15    1.32    0.46
   4  -1  15    1.21    0.41
  -4   1  15    1.02    0.36
  -4   1  15    1.17    0.36
  -4  -1  15    0.94    0.34
  -4  -1  15    0.97    0.35
   4   1  15    0.55    0.43
   0   2  15   58.62    4.87
   0  -2  15   53.62    4.90
   0   2  15   71.79    4.99
   0  -2  15   54.05    4.88
   1  -2  15   66.06    5.01
  -1   2  15   58.38    4.86
  -1   2  15   47.87    4.84
   1   2  15   67.27    4.98
  -1  -2  15   65.36    4.99
   1   2  15   54.50    4.90
   1   2  15   68.29    5.00
  -1  -2  15   53.31    4.90
   2  -2  15    5.36    0.81
   2  -2  15    8.40    1.02
  -2   2  15    5.79    0.82
   2   2  15    7.85    0.95
   2   2  15    4.96    0.81
  -2  -2  15    7.84    0.94
  -2  -2  15    7.20    0.91
  -3   2  15    6.32    0.80
   3  -2  15    5.78    0.81
   3  -2  15    5.37    0.91
   3  -2  15    6.06    0.91
  -3   2  15    5.65    0.75
  -3  -2  15    5.42    0.84
   3   2  15    6.17    0.88
   3   2  15    3.93    0.80
  -4   2  15    2.50    0.50
  -4   2  15    1.83    0.42
   4  -2  15    1.81    0.54
   4  -2  15    1.87    0.49
  -4   2 -15    1.95    0.61
  -4  -2  15    3.01    0.54
   4   2  15    1.95    0.55
   0  -3  15   -0.07    0.21
   0   3 -15   -0.11    0.37
   0   3  15    0.31    0.26
   0  -3  15    0.12    0.28
   0   3  15    0.21    0.26
   0   3  15    0.01    0.23
   1  -3  15    1.45    0.46
  -1   3  15    1.07    0.39
   1  -3  15    0.70    0.33
   1   3 -15    1.38    0.51
  -1   3  15    0.49    0.30
  -1  -3  15    0.89    0.38
  -1  -3  15    1.14    0.39
   1   3  15    0.99    0.38
   1   3  15    0.75    0.36
   1   3  15    1.13    0.41
   2  -3  15   16.88    1.65
  -2   3  15   14.80    1.52
   2  -3  15   16.22    1.56
   2  -3  15   18.65    1.73
  -2  -3  15   14.76    1.56
  -2  -3  15   14.51    1.56
   2   3  15   14.61    1.59
   2   3  15   15.03    1.58
   3  -3  15    4.01    0.68
  -3   3  15    4.34    0.68
   3  -3  15    4.64    0.82
   3   3  15    3.04    0.71
  -3  -3  15    4.94    0.75
  -3  -3  15    4.50    0.71
   3   3  15    5.01    0.79
   4   3 -15    3.53    0.57
  -4   3  15    4.14    0.63
   4  -3  15    3.61    0.72
  -4   3 -15    2.20    0.66
   4   3  15    4.13    0.72
  -4  -3  15    3.49    0.58
   0   4 -15   30.04    2.69
   0   4  15   29.63    2.57
   0   4  15   30.85    2.58
   0  -4  15   33.56    2.69
   0   4  15   23.78    2.59
   1  -4  15    9.61    1.14
  -1   4  15   10.84    1.13
   1   4 -15   10.50    1.28
   1  -4  15   12.12    1.25
   1   4  15    9.42    1.09
  -1  -4  15    7.13    1.06
   1   4  15   10.63    1.19
  -1  -4  15   11.23    1.23
   1   4  15    9.61    1.13
   2  -4  15   28.73    2.45
   2  -4  15   29.91    2.59
  -2   4  15   27.14    2.39
   2   4 -15   26.68    2.56
   2  -4  15   28.93    2.53
   2   4  15   26.24    2.47
   2   4  15   28.11    2.52
   2   4  15   24.37    2.43
  -2  -4  15   26.35    2.47
  -2  -4  15   25.00    2.43
   3  -4  15   30.08    2.49
   3   4 -15   28.47    2.53
   3  -4  15   31.68    2.67
  -3   4  15   28.72    2.44
   3   4  15   23.34    2.50
  -3  -4  15   26.18    2.47
  -3  -4  15   26.74    2.47
   4   4 -15    2.22    0.46
  -4   4  15    2.25    0.46
   4  -4  15    2.40    0.60
  -4   4 -15    1.73    0.60
  -4  -4  15    2.58    0.49
   0  -5  15    0.63    0.33
   0   5  15    0.80    0.37
   0   5  15    1.44    0.41
   0  -5  15    0.98    0.46
   0   5 -15    1.10    0.44
   1  -5  15    7.90    0.96
  -1   5  15    7.96    0.91
   1   5 -15    8.48    1.13
   1  -5  15    8.40    1.00
   1  -5  15    8.00    1.06
  -1   5  15    5.47    0.89
   1   5  15    7.82    1.00
   1   5  15    7.54    0.96
  -1  -5  15    7.14    1.02
   1   5  15    7.39    0.90
   2   5 -15    4.59    0.78
  -2   5  15    3.11    0.60
   2  -5  15    4.33    0.82
   2  -5  15    4.35    0.69
   2  -5  15    4.39    0.75
   2   5  15    4.86    0.78
   2   5  15    4.11    0.72
  -2  -5  15    3.05    0.70
  -2  -5  15    4.43    0.75
   2   5  15    4.33    0.78
  -3   5  15    0.66    0.34
   3   5 -15    0.94    0.35
   3  -5  15    1.07    0.42
  -3  -5  15    1.27    0.43
   3   5  15    2.14    0.58
   4   5 -15    1.02    0.31
   4  -5  15    1.40    0.47
  -4   5 -15    1.08    0.52
   0   6 -15  118.62    9.09
   0  -6  15  117.82    9.00
   0  -6  15  103.03    8.98
   1   6 -15    1.17    0.49
   1  -6  15    0.87    0.39
  -1   6  15    0.77    0.36
   1  -6  15    1.36    0.43
   1   6  15    1.13    0.43
  -1  -6  15    0.84    0.35
   1   6  15    0.62    0.42
   2  -6  15    5.76    0.88
   2   6 -15    6.56    0.91
   2  -6  15    5.36    0.81
  -2  -6  15    7.82    0.95
   2   6  15    6.33    0.91
   2   6  15    6.17    0.98
   3   6 -15   10.15    1.10
   3  -6  15    9.95    1.19
  -3  -6  15   10.14    1.12
   3   6  15    9.71    1.12
   0  -7  15    0.54    0.33
   0  -7  15    0.61    0.34
   0   7 -15    0.58    0.37
   0   7  15    0.62    0.34
   1   7 -15    1.01    0.45
   1  -7  15    0.84    0.35
   1  -7  15    0.89    0.37
  -1   7  15    0.92    0.37
  -1  -7  15    1.22    0.42
   1   7  15    0.96    0.39
   2   7 -15   26.28    2.37
   2  -7  15   25.22    2.37
   2   7  15   23.95    2.33
  -2  -7  15   26.74    2.38
   3  -7  15   17.02    1.73
   3   7 -15   15.64    1.59
  -3   7 -15   17.56    1.84
  -3  -7  15   19.60    1.68
   3   7  15   17.19    1.64
   0  -8  15    4.76    0.73
   0  -8  15    5.46    0.78
   0   8 -15    4.76    0.82
   0   8  15    4.84    0.76
   1  -8  15    5.27    0.77
   1   8 -15    5.50    0.87
  -1   8  15    6.88    0.84
   1  -8  15    5.61    0.82
  -1  -8  15    5.12    0.79
   1   8  15    5.74    0.83
  -1  -8  15    5.36    0.80
   2  -8  15    3.36    0.66
   2   8 -15    3.51    0.63
   2   8  15    4.02    0.66
  -2  -8  15    4.25    0.71
  -3   8 -15    9.82    1.26
  -3  -8  15   10.88    1.09
   0  -9  15    9.25    1.03
   0   9  15    9.02    1.02
   0  -9  15    8.02    0.99
   0   9 -15    8.26    1.06
   1   9 -15   13.89    1.45
   1  -9  15   14.24    1.40
  -1   9  15   12.47    1.33
  -1  -9  15   14.66    1.42
   1   9  15   12.98    1.38
  -1  -9  15   13.80    1.39
   2   9 -15    2.00    0.44
   2  -9  15    1.67    0.46
   2   9  15    2.73    0.53
  -2  -9  15    3.38    0.59
   0  10  15    0.15    0.24
   1  10  15   19.46    1.78
   0   0  16   30.16    2.69
  -1   0  16   34.21    2.91
   1   0  16   35.80    2.96
   1   0  16   30.08    2.87
   2   0  16   32.60    2.79
   2   0  16   30.85    2.71
  -2   0  16   28.56    2.69
   3   0  16   19.34    1.92
  -3   0  16   21.74    1.93
   3   0  16   19.62    1.95
  -4   0  16    1.65    0.39
   4   0  16    0.68    0.40
   0   1  16   27.83    2.81
   0  -1  16   39.90    2.95
   0  -1  16   30.25    2.85
  -1   1  16    3.44    0.65
  -1   1  16    5.51    0.71
   1  -1  16    3.08    0.63
   1  -1  16    3.48    0.70
   1   1  16    4.06    0.66
  -1  -1  16    4.90    0.72
  -1  -1  16    3.24    0.65
   1   1  16    4.22    0.75
   2  -1  16    0.19    0.32
   2  -1  16    0.01    0.23
  -2   1  16   -0.30    0.21
  -2  -1  16    0.36    0.32
  -2  -1  16    0.23    0.30
   2   1  16    0.11    0.29
   2   1  16   -0.03    0.20
   3  -1  16    9.16    1.17
  -3   1  16   11.25    1.13
   3  -1  16    9.37    1.11
   3   1  16    8.22    1.11
   3   1  16   10.15    1.17
  -3  -1  16   10.68    1.16
   4  -1  16    3.71    0.69
  -4   1  16    4.78    0.66
  -4  -1  16    5.60    0.69
   4   1  16    4.71    0.79
   0  -2  16   11.28    1.19
   0   2  16   10.24    1.09
   0  -2  16    8.62    1.09
   0   2  16   10.53    1.14
   0   2  16    7.54    1.04
   1  -2  16   17.34    1.56
   1  -2  16   10.77    1.38
  -1   2  16   14.58    1.61
  -1   2  16   13.39    1.42
   1   2 -16   13.82    1.58
   1   2  16   14.75    1.45
  -1  -2  16   15.11    1.48
  -1  -2  16   14.67    1.48
   1   2  16   12.72    1.41
   1   2  16   13.56    1.42
  -2   2  16   23.34    2.13
   2  -2  16   24.52    2.25
   2  -2  16   25.16    2.18
   2   2  16   25.82    2.22
   2   2  16   18.56    2.10
  -2  -2  16   27.16    2.21
  -2  -2  16   19.35    2.10
   3  -2  16   11.37    1.30
  -3   2  16   10.11    1.17
   3  -2  16   11.69    1.23
   3   2  16   10.79    1.23
   3   2  16   10.49    1.23
  -3  -2  16   12.04    1.26
   4   2 -16    1.56    0.39
  -4   2  16    1.40    0.39
   4  -2  16    1.49    0.47
  -4  -2  16    1.19    0.38
   4   2  16    1.28    0.46
   0  -3  16    0.82    0.35
   0   3  16    0.90    0.37
   0   3  16    1.33    0.41
   0  -3  16    1.47    0.45
   0   3  16    1.06    0.38
   1   3 -16   17.38    2.12
  -1   3  16   21.32    2.03
   1  -3  16   21.04    2.09
   1   3  16   22.75    2.04
   1   3  16   22.17    2.09
  -1  -3  16   23.12    2.10
  -1  -3  16   24.31    2.11
   1   3  16   24.64    2.10
   2  -3  16   11.31    1.19
   2   3 -16   12.48    1.34
  -2   3  16   12.69    1.19
  -2  -3  16    9.95    1.18
   2   3  16    9.32    1.19
  -2  -3  16    9.62    1.18
   2   3  16    9.89    1.30
   2   3  16    9.12    1.18
   3  -3  16    4.55    0.74
   3   3 -16    4.03    0.70
  -3   3  16    4.95    0.73
  -3  -3  16    5.51    0.77
  -3  -3  16    5.93    0.83
   3   3  16    5.47    0.83
   4   3 -16   14.80    1.46
  -4   3  16   17.28    1.49
  -4  -3  16   15.63    1.46
   0   4  16   11.98    1.18
   0  -4  16    9.54    1.23
   0   4  16   10.63    1.20
   0   4  16    9.81    1.14
   1   4 -16   23.19    2.20
  -1   4  16   21.10    1.97
   1  -4  16   19.57    2.02
   1  -4  16   24.49    2.12
   1   4  16   21.77    2.07
   1   4  16   21.42    2.03
  -1  -4  16   22.02    2.06
   1   4  16   19.67    1.95
  -1  -4  16   22.05    2.06
   2   4 -16   15.96    1.61
   2  -4  16   15.43    1.61
  -2   4  16   14.37    1.44
   2  -4  16   15.60    1.49
   2   4  16   13.33    1.48
  -2  -4  16   14.34    1.50
  -2  -4  16   13.34    1.49
   2   4  16   14.31    1.53
   2   4  16   13.59    1.49
   3  -4  16    0.31    0.32
  -3   4  16    0.46    0.29
   3   4 -16    0.07    0.22
   3  -4  16   -0.24    0.32
  -3  -4  16    0.29    0.33
  -3  -4  16    0.12    0.28
   3   4  16    0.40    0.41
   0  -5  16   16.25    1.69
   0   5  16   16.60    1.62
   0   5  16   17.70    1.74
   0  -5  16   18.72    1.78
   1  -5  16    1.64    0.59
   1  -5  16    2.06    0.51
  -1   5  16    2.26    0.55
  -1   5  16    2.18    0.49
   1   5 -16    2.03    0.60
  -1  -5  16    1.92    0.56
   1   5  16    2.95    0.61
   1   5  16    1.72    0.46
   1   5  16    2.11    0.53
  -1  -5  16    1.87    0.50
   2   5 -16    2.39    0.60
   2  -5  16    2.00    0.54
   2  -5  16    2.02    0.61
  -2   5  16    1.89    0.48
   2  -5  16    1.94    0.49
  -2  -5  16    3.74    0.67
   2   5  16    3.94    0.68
   2   5  16    2.47    0.55
   2   5  16    2.79    0.62
  -3   5  16   28.69    2.63
   3   5 -16   31.32    2.72
   3  -5  16   33.05    2.84
   3   5  16   29.69    2.75
  -3  -5  16   34.40    2.73
   0  -6  16    5.02    0.75
   0   6  16    5.02    0.79
   1  -6  16    6.79    0.93
   1   6 -16    7.10    1.02
  -1   6  16    7.69    0.96
   1  -6  16    6.81    0.91
   1   6  16    8.11    0.98
  -1  -6  16    7.88    0.96
   1   6  16    5.26    1.04
   2  -6  16    8.63    1.04
   2   6 -16    9.28    1.11
   2  -6  16    9.57    1.10
   2   6  16    9.66    1.12
   2   6  16    7.82    1.11
  -2  -6  16    9.94    1.10
   3   6 -16    0.42    0.24
   3  -6  16    0.37    0.34
  -3   6 -16    0.28    0.38
  -3  -6  16    0.40    0.29
   0   7  16    0.10    0.27
   0  -7  16    0.17    0.27
   1   7 -16    0.11    0.31
  -1   7  16    0.25    0.28
   1  -7  16    0.54    0.33
   1  -7  16    0.38    0.30
   1   7  16    0.49    0.31
  -1  -7  16    0.74    0.35
   2   7 -16    1.82    0.47
   2  -7  16    2.23    0.51
   2   7  16    1.78    0.47
  -2  -7  16    2.20    0.51
  -3   7 -16    3.67    0.81
   0  -8  16    8.18    0.96
   0  -8  16    7.67    0.93
   0   8  16    7.13    0.92
   1   8 -16   15.10    1.59
  -1   8  16   16.49    1.56
   1  -8  16   14.66    1.51
   1  -8  16   15.77    1.56
  -1  -8  16   15.87    1.57
   1   8  16   17.26    1.59
   2  -8  16    1.42    0.59
   2   8 -16    1.35    0.38
   2   8  16    1.68    0.42
  -2  -8  16    2.18    0.48
   0  -9  16    0.17    0.32
   0   9  16    0.47    0.28
  -1   9  16   29.95    2.75
   1   9  16   33.04    2.80
  -1  -9  16   35.27    2.82
   0   0  17    0.26    0.27
   0   0  17    0.34    0.29
   1   0  17    0.25    0.27
  -1   0  17    0.44    0.33
  -1   0  17    0.05    0.25
   1   0  17    0.06    0.26
  -2   0  17    0.56    0.31
   2   0  17    0.50    0.32
   2   0  17    0.69    0.40
   3   0  17   37.44    3.28
  -3   0  17   39.32    3.27
  -4   0  17    1.39    0.39
   0   1  17    4.65    0.71
   0  -1  17    4.78    0.73
   0  -1  17    6.28    0.80
   0   1  17    2.88    0.63
   1  -1  17   35.07    2.94
   1  -1  17   29.29    2.86
  -1   1  17   30.62    2.85
  -1   1  17   37.84    2.88
   1   1 -17   26.36    2.93
  -1  -1  17   33.09    2.89
  -1  -1  17   38.01    2.94
   1   1  17   28.45    2.85
   1   1  17   39.86    2.97
   2  -1  17   13.26    1.34
   2  -1  17   13.16    1.44
  -2   1  17   13.02    1.33
   2   1  17   12.86    1.36
  -2  -1  17   11.21    1.30
  -2  -1  17   12.54    1.34
   2   1  17   12.67    1.41
   3  -1  17   12.11    1.31
  -3   1  17   12.56    1.29
  -3  -1  17   12.84    1.32
   3   1  17   12.76    1.33
  -4   1  17   19.88    2.04
   0   2  17    0.19    0.29
   0  -2  17    0.30    0.29
   0   2  17    0.25    0.30
   0  -2  17    0.27    0.30
   0   2  17    0.26    0.28
   1  -2  17   14.03    1.58
   1  -2  17   14.98    1.62
  -1   2  17   14.83    1.56
   1   2  17   19.41    1.68
  -1  -2  17   16.23    1.62
   1   2  17   16.90    1.64
   1   2  17   15.77    1.60
  -1  -2  17   18.28    1.67
   2  -2  17   15.57    1.51
   2   2 -17   14.11    1.59
   2  -2  17   16.01    1.62
  -2   2  17   14.45    1.47
  -2  -2  17   14.74    1.51
   2   2  17   14.62    1.54
   2   2  17   14.12    1.51
  -2  -2  17   14.02    1.48
   3   2 -17    2.71    0.57
   3  -2  17    3.53    0.66
  -3   2  17    4.25    0.62
  -3  -2  17    2.97    0.59
   3   2  17    3.38    0.66
   0  -3  17    5.19    0.84
   0   3  17    5.83    0.79
   0  -3  17    4.56    0.76
   0   3  17    5.32    0.77
   0   3  17    4.97    0.77
   1  -3  17    0.21    0.34
  -1   3  17    0.22    0.29
   1  -3  17    0.33    0.27
   1   3 -17    0.13    0.34
   1   3  17    0.83    0.37
  -1  -3  17    1.04    0.39
   1   3  17    0.87    0.35
  -1  -3  17    1.00    0.41
   1   3  17    0.75    0.37
  -2   3  17    1.98    0.47
   2  -3  17    2.05    0.59
   2   3 -17    1.47    0.49
   2  -3  17    1.85    0.48
   2   3  17    0.89    0.45
  -2  -3  17    1.51    0.49
   2   3  17    0.77    0.40
  -2  -3  17    1.53    0.45
   3   3 -17    1.20    0.38
   3  -3  17    1.24    0.40
  -3   3  17    1.47    0.37
  -3  -3  17    0.88    0.40
   3   3  17    0.66    0.43
  -3   3 -17    0.82    0.47
   0   4  17    7.50    0.95
   0  -4  17    8.00    0.96
   0   4  17    7.33    0.93
   0  -4  17    6.63    1.00
  -1   4  17   14.18    1.50
   1  -4  17   15.63    1.65
   1   4 -17   13.74    1.64
   1  -4  17   15.92    1.57
   1   4  17   16.15    1.59
   1   4  17   15.59    1.58
   1   4  17   15.75    1.54
  -1  -4  17   16.27    1.61
  -1  -4  17   18.29    1.64
   2   4 -17    5.11    0.84
   2  -4  17    5.68    0.94
  -2   4  17    5.71    0.78
   2  -4  17    6.19    0.82
  -2  -4  17    5.54    0.86
   2   4  17    5.83    0.84
   2   4  17    6.40    0.88
  -2  -4  17    7.10    0.87
   2   4  17    5.42    0.87
  -3   4  17   10.70    1.10
   3  -4  17   11.27    1.15
   3   4 -17   10.15    1.11
  -3  -4  17   10.14    1.14
  -3  -4  17   11.05    1.12
  -3   4 -17    8.58    1.21
   3   4  17   12.11    1.24
   0  -5  17    0.12    0.49
   0  -5  17    0.03    0.25
   0   5  17    0.38    0.32
   0   5  17    0.15    0.26
  -1   5  17    7.50    0.91
   1  -5  17    8.04    1.26
   1   5 -17    8.69    1.09
   1  -5  17    8.87    0.98
   1   5  17    6.75    0.93
   1   5  17    5.84    0.93
  -1  -5  17    8.41    0.99
   1   5  17    7.16    0.95
   2   5 -17   10.82    1.18
  -2   5  17    8.80    1.04
   2  -5  17   10.19    1.11
   2   5  17    9.85    1.18
   2   5  17    8.49    1.11
  -2  -5  17   10.95    1.16
   2   5  17   10.04    1.14
   3   5 -17    0.36    0.25
  -3   5 -17    0.33    0.38
   0   6  17    0.55    0.31
   0  -6  17    0.51    0.31
   1  -6  17    9.04    1.00
   1   6 -17    7.36    1.05
  -1   6  17    8.62    1.03
  -1  -6  17    8.67    1.03
   1   6  17    7.96    1.01
   2  -6  17   29.21    2.69
   2   6 -17   31.50    2.77
   2   6  17   29.93    2.74
  -2  -6  17   36.90    2.81
   0   7  17   26.38    2.44
   0  -7  17   29.17    2.46
   1   7 -17    1.98    0.52
   1  -7  17    2.70    0.48
   1   7  17    1.23    0.42
  -1  -7  17    1.77    0.46
  -2  -7  17   22.44    1.89
   2   7  17   18.52    1.85
   0   8  17    5.63    0.73
   0  -8  17    5.07    0.74
  -1  -8  17    3.71    0.63
   1   8  17    2.93    0.56
   0   0  18   18.66    1.81
   0   0  18   19.99    1.86
  -1   0  18   43.68    3.77
   1   0  18   45.67    3.83
  -1   0  18   46.52    3.82
   1   0  18   46.15    3.84
  -2   0  18    7.93    0.98
   2   0  18    7.90    1.05
   2   0  18    7.72    0.96
   3   0  18    2.20    0.49
  -3   0  18    2.60    0.53
   0   1  18   13.08    1.33
   0  -1  18   11.93    1.32
   0   1  18   11.98    1.29
   0  -1  18   12.11    1.29
  -1   1  18    7.54    0.95
   1  -1  18    7.96    0.98
   1  -1  18    8.42    1.01
  -1   1  18    6.70    0.93
   1   1  18    8.58    1.00
   1   1  18    8.58    0.99
  -1  -1  18    8.27    0.99
  -1  -1  18    8.84    0.99
  -2   1  18   17.01    1.67
   2  -1  18   17.78    1.78
   2  -1  18   16.78    1.69
   2   1  18   17.50    1.75
  -2  -1  18   18.11    1.71
   2   1  18   18.18    1.72
  -3   1  18   26.12    2.17
   3  -1  18   25.17    2.18
   3   1 -18   20.88    2.14
  -3  -1  18   25.64    2.18
   3   1  18   24.90    2.19
   0  -2  18    1.00    0.40
   0   2  18    0.81    0.35
   0  -2  18    1.12    0.38
   0   2  18    0.73    0.36
  -1   2  18    0.79    0.36
   1  -2  18    1.12    0.39
   1  -2  18    1.02    0.40
   1   2  18    1.18    0.40
   1   2  18    0.85    0.36
  -1  -2  18    0.91    0.38
  -1  -2  18    0.85    0.36
  -2   2  18    2.60    0.54
   2  -2  18    2.54    0.55
   2  -2  18    2.85    0.64
   2   2 -18    2.43    0.61
  -2  -2  18    3.12    0.58
  -2  -2  18    3.31    0.60
   2   2  18    3.88    0.67
   2   2  18    3.37    0.65
  -3   2  18   12.97    1.29
   3   2 -18   12.57    1.30
   3  -2  18   14.63    1.35
  -3  -2  18   13.63    1.34
   3   2  18   12.47    1.33
   0   3  18   17.01    1.61
   0  -3  18   15.14    1.62
   0  -3  18   16.94    1.63
   0   3  18   16.87    1.61
  -1   3  18   21.73    2.17
   1  -3  18   23.71    2.27
   1  -3  18   23.82    2.21
   1   3  18   25.07    2.25
   1   3  18   25.66    2.28
  -1  -3  18   25.22    2.25
   1   3  18   25.20    2.22
  -1  -3  18   27.06    2.28
   2  -3  18    0.87    0.42
   2   3 -18    0.73    0.38
  -2   3  18    0.67    0.32
   2  -3  18    1.04    0.36
  -2  -3  18    0.94    0.36
  -2  -3  18    0.74    0.40
   2   3  18    0.65    0.36
   2   3  18    0.51    0.34
  -3   3  18    3.62    0.77
   3   3  18    3.99    0.69
   0   4  18    0.39    0.29
   0   4  18    0.07    0.29
   0  -4  18    0.38    0.38
   0  -4  18    0.35    0.27
   1   4 -18    0.86    0.42
   1  -4  18    1.20    0.49
   1  -4  18    1.12    0.37
  -1   4  18    1.16    0.38
  -1  -4  18    0.74    0.34
   1   4  18    0.51    0.33
   1   4  18    0.52    0.33
  -1  -4  18    0.14    0.39
   1   4  18    0.55    0.35
   2  -4  18   16.20    1.74
  -2   4  18   17.75    1.63
   2   4 -18   17.40    1.72
   2  -4  18   18.46    1.67
  -2  -4  18   21.84    1.73
   2   4  18   16.47    1.63
  -2  -4  18   17.02    1.68
   2   4  18   16.35    1.68
   0   5  18    8.99    1.04
   0  -5  18   10.50    1.12
   0   5  18   10.60    1.14
   1   5 -18    9.68    1.18
  -1   5  18    9.03    1.05
   1  -5  18   10.84    1.08
   1   5  18    7.83    1.34
   1   5  18    8.88    1.32
   1   5  18   11.87    1.16
   2  -5  18   20.61    1.86
   2   5 -18   19.37    1.99
  -2  -5  18   22.46    1.91
   0   6  18    0.16    0.25
   0  -6  18    0.10    0.25
   1  -6  18    1.43    0.39
   1   6  18    1.96    0.46
  -1  -6  18    2.20    0.50
   0   7  18    0.25    0.25
   0  -7  18    0.18    0.26
  -1  -7  18    0.04    0.30
   0   0  19    0.02    0.26
   0   0  19   -0.24    0.25
  -1   0  19    2.69    0.56
   1   0  19    3.54    0.65
   1   0  19    3.59    0.62
  -1   0  19    3.20    0.58
   2   0  19    2.89    0.57
   2   0  19    2.45    0.54
  -2   0  19    2.81    0.53
   0  -1  19   38.96    3.18
   0   1  19   35.40    3.15
   0   1  19   37.41    3.17
   0  -1  19   37.81    3.19
   1  -1  19   15.62    1.49
  -1   1  19   15.65    1.43
   1  -1  19   15.07    1.43
  -1  -1  19   12.41    1.36
   1   1  19   13.61    1.43
  -1  -1  19   13.56    1.41
   1   1  19   14.37    1.43
   2  -1  19   11.73    1.18
  -2   1  19    9.64    1.12
   2  -1  19   11.61    1.22
  -2  -1  19   11.93    1.18
   2   1  19   10.40    1.17
   2   1  19   11.40    1.20
   0  -2  19    9.05    1.03
   0   2  19    8.59    1.00
   0   2  19    8.98    1.02
   0  -2  19    8.82    1.00
  -1   2  19   20.05    1.89
   1  -2  19   21.16    1.93
   1  -2  19   21.13    1.98
   1   2  19   21.18    1.94
  -1  -2  19   20.99    1.91
  -1  -2  19   20.96    1.94
   1   2  19   21.83    1.96
   2  -2  19   12.36    1.28
   2  -2  19   13.11    1.25
  -2   2  19   13.29    1.22
  -2  -2  19   11.11    1.23
   2   2  19   10.86    1.23
   2   2  19   11.27    1.21
   0   3  19   -0.09    0.26
   0  -3  19    0.27    0.25
   0  -3  19    0.05    0.31
   1  -3  19    6.30    0.81
  -1   3  19    5.17    0.80
   1  -3  19    6.91    0.95
   1   3  19    6.43    0.87
  -1  -3  19    7.05    0.89
   1   3  19    6.57    0.84
  -1  -3  19    7.59    0.86
  -2   3  19    4.12    0.66
   2  -3  19    6.11    0.71
   2  -3  19    4.62    0.77
  -2  -3  19    4.23    0.88
   2   3  19    3.98    0.66
   2   3  19    4.52    0.69
   0  -4  19    4.20    0.72
   0   4  19    4.73    0.69
   0  -4  19    5.54    0.69
   1  -4  19    0.29    0.26
   1  -4  19    0.32    0.45
  -1   4  19    0.47    0.31
   1   4  19    0.44    0.35
   1   4  19    0.38    0.36
  -1  -4  19    0.32    0.28
  -1  -4  19    0.29    0.41
   0  -5  19   11.91    1.19
   1  -5  19    3.11    0.54
  -1  -5  19    3.61    0.58
   0   0  20   16.50    1.54
   0   0  20   16.06    1.53
   1   0  20    4.82    0.75
   1   0  20    5.24    0.71
  -1   0  20    5.27    0.72
   0  -1  20    0.30    0.28
   0   1  20    0.58    0.33
   0  -1  20    0.57    0.30
   0   1  20    0.61    0.29
   1  -1  20    8.17    1.03
   1  -1  20    9.43    1.00
  -1   1  20    8.54    0.96
   1   1  20    9.12    1.04
  -1  -1  20    8.96    0.99
   1   1  20    9.55    1.01
   0   2  20    2.82    0.49
   0  -2  20    2.47    0.49
   0  -2  20    2.94    0.54
   1  -2  20    0.27    0.26
  -1   2  20    0.46    0.30
   1  -2  20    0.15    0.34
   1   2  20    0.60    0.35
  -1  -2  20    0.14    0.38
   0  -3  20    0.62    0.29
   0   0   0    0.00    0.00
;
_shelx_hkl_checksum              81533
_shelx_res_file
;
TITL csa21-final in P2(1)2(1)2(1)
 shelx.res created by SHELXL-2016/4 at 12:49:56 on 09-Feb-2017
CELL  1.54178   6.1673  13.0059  17.6433   90.000   90.000   90.000
ZERR     4.00   0.0003   0.0007   0.0009    0.000    0.000    0.000
LATT  -1
SYMM  1/2 + X, 1/2 - Y, - Z
SYMM  - X, 1/2 + Y, 1/2 - Z
SYMM  1/2 - X, - Y, 1/2 + Z
SFAC  C    H    O    S    CL   N
UNIT  52 44 8 4 8 4
MERG   2
OMIT     0   1   1
DFIX 0.88 0.02 N1 H1
FMAP   2
PLAN   20
ACTA
BOND
BOND   $H
CONF
L.S.  50
TEMP  -173.00
WGHT    0.115000
FVAR       0.19729
CL1   5    0.462475    0.271871    0.713320    11.00000    0.02621    0.04428 =
         0.02247    0.00367    0.00114   -0.00916
CL2   5    0.958405    0.598552    0.788175    11.00000    0.04620    0.02923 =
         0.03404   -0.01372    0.00172   -0.00013
S1    4    1.174450    0.359531    0.547473    11.00000    0.01870    0.01869 =
         0.01993   -0.00056    0.00171    0.00119
O1    3    1.363574    0.422354    0.554892    11.00000    0.01880    0.02905 =
         0.02305   -0.00008   -0.00152   -0.00218
O2    3    1.192471    0.249071    0.544332    11.00000    0.02793    0.01945 =
         0.02931   -0.00026    0.00354    0.00557
C4    1    0.724183    0.434040    0.743745    11.00000    0.02793    0.03681 =
         0.01965    0.00608    0.00222    0.00488
AFIX  43
H4    2    0.628893    0.449882    0.784407    11.00000   -1.20000
AFIX   0
C5    1    0.903176    0.493584    0.729849    11.00000    0.03069    0.02221 =
         0.02225   -0.00077   -0.00210   -0.00057
C6    1    1.046255    0.472886    0.670045    11.00000    0.02772    0.02153 =
         0.02885    0.00050   -0.00315   -0.00197
AFIX  43
H6    2    1.170170    0.514515    0.661025    11.00000   -1.20000
AFIX   0
C1    1    0.998717    0.389081    0.624786    11.00000    0.01986    0.02251 =
         0.01547    0.00200    0.00037    0.00410
N1    6    1.049068    0.390858    0.469417    11.00000    0.02297    0.02044 =
         0.02045    0.00014   -0.00140   -0.00348
C7    1    1.005315    0.497257    0.453150    11.00000    0.02598    0.02126 =
         0.01262   -0.00267   -0.00597   -0.00159
C12   1    0.800410    0.537261    0.466231    11.00000    0.02396    0.03837 =
         0.01885   -0.00234    0.00051   -0.00180
AFIX  43
H12   2    0.689690    0.495458    0.487485    11.00000   -1.20000
AFIX   0
C11   1    0.758766    0.639748    0.447784    11.00000    0.02974    0.03971 =
         0.02413    0.00278   -0.00021    0.01179
AFIX  43
H11   2    0.618169    0.667346    0.456150    11.00000   -1.20000
AFIX   0
C10   1    0.919579    0.701891    0.417423    11.00000    0.04704    0.02557 =
         0.01858   -0.00291   -0.00707    0.01084
C13   1    0.868200    0.812298    0.395053    11.00000    0.07640    0.02611 =
         0.02863    0.00141   -0.01141    0.01526
AFIX 137
H13A  2    0.788698    0.812679    0.346961    11.00000   -1.50000
H13B  2    1.003609    0.850936    0.389253    11.00000   -1.50000
H13C  2    0.779222    0.844344    0.434548    11.00000   -1.50000
AFIX   0
C3    1    0.685198    0.350216    0.697195    11.00000    0.02382    0.02607 =
         0.02062    0.00574   -0.00528   -0.00044
C2    1    0.819795    0.326803    0.637069    11.00000    0.02705    0.02372 =
         0.01857   -0.00098   -0.00364   -0.00151
AFIX  43
H2    2    0.790606    0.269702    0.605079    11.00000   -1.20000
AFIX   0
C9    1    1.126068    0.659976    0.405348    11.00000    0.02940    0.02691 =
         0.02149    0.00484   -0.00275   -0.00694
AFIX  43
H9    2    1.237690    0.701855    0.384760    11.00000   -1.20000
AFIX   0
C8    1    1.169693    0.557814    0.423126    11.00000    0.02296    0.02768 =
         0.02031   -0.00194   -0.00275   -0.00286
AFIX  43
H8    2    1.310023    0.529869    0.414837    11.00000   -1.20000
AFIX   0
H1    2    0.943982    0.348499    0.460275    11.00000    0.02235
HKLF 4  1.0  1.00  0.00  0.00  0.00  1.00  0.00  0.00  0.00  1.00
REM  csa21-final in P2(1)2(1)2(1)
REM R1 =  0.0515 for    2210 Fo > 4sig(Fo)  and  0.0526 for all    2292 data
REM    177 parameters refined using      1 restraints
END
WGHT      0.0989      0.0000
REM Highest difference peak  0.424,  deepest hole -0.589,  1-sigma level  0.131
Q1    1   0.5124  0.2351  0.6752  11.00000  0.05    0.42
Q2    1   0.5274  0.3116  0.6837  11.00000  0.05    0.41
Q3    1   1.0862  0.5937  0.8029  11.00000  0.05    0.39
Q4    1   0.6966  0.6479  0.4823  11.00000  0.05    0.37
Q5    1   1.1009  0.6164  0.7586  11.00000  0.05    0.37
Q6    1   1.3076  0.3771  0.5314  11.00000  0.05    0.37
Q7    1   1.4723  0.3133  0.5324  11.00000  0.05    0.36
Q8    1   1.0442  0.6023  0.7375  11.00000  0.05    0.36
Q9    1   0.7510  0.5422  0.4964  11.00000  0.05    0.36
Q10   1   0.5009  0.3186  0.7346  11.00000  0.05    0.35
Q11   1   0.4620  0.2260  0.7534  11.00000  0.05    0.35
Q12   1   0.9886  0.6441  0.7620  11.00000  0.05    0.35
Q13   1   1.4441  0.4165  0.5532  11.00000  0.05    0.35
Q14   1   0.6342  0.6057  0.4006  11.00000  0.05    0.34
Q15   1   0.6404  0.5017  0.5411  11.00000  0.05    0.34
Q16   1   0.4163  0.3301  0.6816  11.00000  0.05    0.34
Q17   1   0.7578  0.5706  0.4825  11.00000  0.05    0.34
Q18   1   0.7069  0.6065  0.4219  11.00000  0.05    0.34
Q19   1   0.8912  0.5985  0.7459  11.00000  0.05    0.33
Q20   1   1.2040  0.5473  0.7365  11.00000  0.05    0.32
;
_shelx_res_checksum              65125
loop_
_space_group_symop_operation_xyz
'x, y, z'
'x+1/2, -y+1/2, -z'
'-x, y+1/2, -z+1/2'
'-x+1/2, -y, z+1/2'
loop_
_atom_site_type_symbol
_atom_site_label
_atom_site_fract_x
_atom_site_fract_y
_atom_site_fract_z
_atom_site_U_iso_or_equiv
_atom_site_adp_type
_atom_site_calc_flag
_atom_site_occupancy
Cl CL1 0.4625(2) 0.27187(11) 0.71332(6) 0.0310(4) Uani d 1
Cl CL2 0.9584(2) 0.59855(10) 0.78818(7) 0.0365(4) Uani d 1
S S1 1.17445(18) 0.35953(9) 0.54747(6) 0.0191(4) Uani d 1
O O1 1.3636(5) 0.4224(3) 0.55489(18) 0.0236(8) Uani d 1
O O2 1.1925(6) 0.2491(3) 0.54433(18) 0.0256(8) Uani d 1
C C4 0.7242(9) 0.4340(4) 0.7437(3) 0.0281(12) Uani d 1
H H4 0.628893 0.449882 0.784407 0.034 Uiso calc 1
C C5 0.9032(9) 0.4936(4) 0.7298(3) 0.0250(11) Uani d 1
C C6 1.0463(9) 0.4729(4) 0.6700(3) 0.0260(11) Uani d 1
H H6 1.170170 0.514515 0.661025 0.031 Uiso calc 1
C C1 0.9987(8) 0.3891(4) 0.6248(2) 0.0193(10) Uani d 1
N N1 1.0491(7) 0.3909(3) 0.4694(2) 0.0213(9) Uani d 1
C C7 1.0053(8) 0.4973(4) 0.4532(2) 0.0200(10) Uani d 1
C C12 0.8004(9) 0.5373(4) 0.4662(3) 0.0271(11) Uani d 1
H H12 0.689690 0.495458 0.487485 0.032 Uiso calc 1
C C11 0.7588(9) 0.6397(5) 0.4478(3) 0.0312(12) Uani d 1
H H11 0.618169 0.667346 0.456150 0.037 Uiso calc 1
C C10 0.9196(10) 0.7019(4) 0.4174(3) 0.0304(13) Uani d 1
C C13 0.8682(13) 0.8123(4) 0.3951(3) 0.0437(16) Uani d 1
H H13A 0.788698 0.812679 0.346961 0.066 Uiso calc 1
H H13B 1.003609 0.850936 0.389253 0.066 Uiso calc 1
H H13C 0.779222 0.844344 0.434548 0.066 Uiso calc 1
C C3 0.6852(8) 0.3502(4) 0.6972(3) 0.0235(11) Uani d 1
C C2 0.8198(8) 0.3268(4) 0.6371(3) 0.0231(11) Uani d 1
H H2 0.790606 0.269702 0.605079 0.028 Uiso calc 1
C C9 1.1261(9) 0.6600(4) 0.4053(3) 0.0259(11) Uani d 1
H H9 1.237690 0.701855 0.384760 0.031 Uiso calc 1
C C8 1.1697(8) 0.5578(4) 0.4231(2) 0.0236(10) Uani d 1
H H8 1.310023 0.529869 0.414837 0.028 Uiso calc 1
H H1 0.944(7) 0.348(3) 0.460(3) 0.022(14) Uiso d 1
loop_
_atom_site_aniso_label
_atom_site_aniso_U_11
_atom_site_aniso_U_22
_atom_site_aniso_U_33
_atom_site_aniso_U_12
_atom_site_aniso_U_13
_atom_site_aniso_U_23
CL1 0.0262(6) 0.0443(8) 0.0225(6) -0.0092(6) 0.0011(5) 0.0037(5)
CL2 0.0462(8) 0.0292(7) 0.0340(7) -0.0001(6) 0.0017(6) -0.0137(5)
S1 0.0187(6) 0.0187(6) 0.0199(6) 0.0012(5) 0.0017(4) -0.0006(4)
O1 0.0188(16) 0.0291(19) 0.0231(16) -0.0022(15) -0.0015(14) -0.0001(14)
O2 0.0279(19) 0.0195(18) 0.0293(17) 0.0056(15) 0.0035(15) -0.0003(14)
C4 0.028(3) 0.037(3) 0.020(2) 0.005(2) 0.002(2) 0.006(2)
C5 0.031(3) 0.022(2) 0.022(2) -0.001(2) -0.002(2) -0.001(2)
C6 0.028(3) 0.022(3) 0.029(2) -0.002(2) -0.003(2) 0.000(2)
C1 0.020(2) 0.023(2) 0.015(2) 0.004(2) 0.0004(18) 0.0020(17)
N1 0.0230(19) 0.020(2) 0.020(2) -0.0035(19) -0.0014(17) 0.0001(16)
C7 0.026(2) 0.021(2) 0.0126(19) -0.002(2) -0.006(2) -0.0027(17)
C12 0.024(2) 0.038(3) 0.019(2) -0.002(2) 0.001(2) -0.002(2)
C11 0.030(3) 0.040(3) 0.024(3) 0.012(3) 0.000(2) 0.003(2)
C10 0.047(3) 0.026(3) 0.019(2) 0.011(3) -0.007(2) -0.003(2)
C13 0.076(5) 0.026(3) 0.029(3) 0.015(3) -0.011(3) 0.001(2)
C3 0.024(2) 0.026(3) 0.021(2) 0.000(2) -0.005(2) 0.0057(19)
C2 0.027(3) 0.024(3) 0.019(2) -0.002(2) -0.004(2) -0.0010(18)
C9 0.029(3) 0.027(3) 0.021(2) -0.007(2) -0.003(2) 0.005(2)
C8 0.023(2) 0.028(3) 0.020(2) -0.003(2) -0.0027(19) -0.002(2)
loop_
_atom_type_symbol
_atom_type_description
_atom_type_scat_dispersion_real
_atom_type_scat_dispersion_imag
_atom_type_scat_source
C C 0.0181 0.0091 'International Tables Vol C Tables 4.2.6.8 and 6.1.1.4'
H H 0.0000 0.0000 'International Tables Vol C Tables 4.2.6.8 and 6.1.1.4'
O O 0.0492 0.0322 'International Tables Vol C Tables 4.2.6.8 and 6.1.1.4'
S S 0.3331 0.5567 'International Tables Vol C Tables 4.2.6.8 and 6.1.1.4'
Cl Cl 0.3639 0.7018 'International Tables Vol C Tables 4.2.6.8 and 6.1.1.4'
N N 0.0311 0.0180 'International Tables Vol C Tables 4.2.6.8 and 6.1.1.4'
loop_
_geom_angle_atom_site_label_1
_geom_angle_atom_site_label_2
_geom_angle_atom_site_label_3
_geom_angle
O1 S1 O2 120.7(2)
O1 S1 N1 108.7(2)
O2 S1 N1 104.7(2)
O1 S1 C1 107.6(2)
O2 S1 C1 106.9(2)
N1 S1 C1 107.7(2)
C5 C4 C3 118.6(5)
C5 C4 H4 120.7
C3 C4 H4 120.7
C4 C5 C6 122.2(5)
C4 C5 CL2 119.6(4)
C6 C5 CL2 118.2(4)
C1 C6 C5 116.9(5)
C1 C6 H6 121.5
C5 C6 H6 121.5
C6 C1 C2 122.6(5)
C6 C1 S1 118.9(4)
C2 C1 S1 118.5(4)
C7 N1 S1 119.8(3)
C7 N1 H1 116(4)
S1 N1 H1 111(4)
C12 C7 C8 121.1(5)
C12 C7 N1 119.9(5)
C8 C7 N1 119.0(4)
C7 C12 C11 119.2(5)
C7 C12 H12 120.4
C11 C12 H12 120.4
C10 C11 C12 121.0(5)
C10 C11 H11 119.5
C12 C11 H11 119.5
C11 C10 C9 118.8(5)
C11 C10 C13 120.1(6)
C9 C10 C13 121.1(6)
C10 C13 H13A 109.5
C10 C13 H13B 109.5
H13A C13 H13B 109.5
C10 C13 H13C 109.5
H13A C13 H13C 109.5
H13B C13 H13C 109.5
C2 C3 C4 121.6(5)
C2 C3 CL1 118.2(4)
C4 C3 CL1 120.2(4)
C3 C2 C1 118.0(4)
C3 C2 H2 121.0
C1 C2 H2 121.0
C8 C9 C10 120.9(5)
C8 C9 H9 119.6
C10 C9 H9 119.6
C9 C8 C7 119.1(5)
C9 C8 H8 120.4
C7 C8 H8 120.4
loop_
_geom_bond_atom_site_label_1
_geom_bond_atom_site_label_2
_geom_bond_distance
CL1 C3 1.734(5)
CL2 C5 1.743(5)
S1 O1 1.430(4)
S1 O2 1.442(4)
S1 N1 1.631(4)
S1 C1 1.784(5)
C4 C5 1.371(8)
C4 C3 1.386(8)
C4 H4 0.9500
C5 C6 1.402(8)
C6 C1 1.383(7)
C6 H6 0.9500
C1 C2 1.386(7)
N1 C7 1.439(6)
N1 H1 0.87(3)
C7 C12 1.386(7)
C7 C8 1.389(7)
C12 C11 1.396(8)
C12 H12 0.9500
C11 C10 1.387(9)
C11 H11 0.9500
C10 C9 1.402(8)
C10 C13 1.523(7)
C13 H13A 0.9800
C13 H13B 0.9800
C13 H13C 0.9800
C3 C2 1.381(7)
C2 H2 0.9500
C9 C8 1.391(8)
C9 H9 0.9500
C8 H8 0.9500
loop_
_geom_hbond_atom_site_label_D
_geom_hbond_atom_site_label_H
_geom_hbond_atom_site_label_A
_geom_hbond_site_symmetry_A
_geom_hbond_distance_DH
_geom_hbond_distance_HA
_geom_hbond_distance_DA
_geom_hbond_angle_DHA
_geom_hbond_publ_flag
N1 H1 O2 2_456 0.87(4) 2.00(4) 2.866(6) 171(5) yes
C12 H12 O1 1_455 0.95 2.52 3.455(6) 167 yes
C4 H4 Cg 4_665 0.95 2.80 3.602(6) 143 yes
loop_
_geom_torsion_atom_site_label_1
_geom_torsion_atom_site_label_2
_geom_torsion_atom_site_label_3
_geom_torsion_atom_site_label_4
_geom_torsion
C3 C4 C5 C6 0.5(8)
C3 C4 C5 CL2 -179.2(4)
C4 C5 C6 C1 0.2(7)
CL2 C5 C6 C1 179.9(4)
C5 C6 C1 C2 -0.4(7)
C5 C6 C1 S1 179.7(4)
O1 S1 C1 C6 10.0(4)
O2 S1 C1 C6 141.0(4)
N1 S1 C1 C6 -107.0(4)
O1 S1 C1 C2 -169.9(3)
O2 S1 C1 C2 -39.0(4)
N1 S1 C1 C2 73.0(4)
O1 S1 N1 C7 -49.1(4)
O2 S1 N1 C7 -179.3(4)
C1 S1 N1 C7 67.2(4)
S1 N1 C7 C12 -100.5(5)
S1 N1 C7 C8 80.6(5)
C8 C7 C12 C11 0.9(7)
N1 C7 C12 C11 -177.9(4)
C7 C12 C11 C10 -0.6(7)
C12 C11 C10 C9 0.1(8)
C12 C11 C10 C13 177.8(5)
C5 C4 C3 C2 -1.0(7)
C5 C4 C3 CL1 179.3(4)
C4 C3 C2 C1 0.8(7)
CL1 C3 C2 C1 -179.4(3)
C6 C1 C2 C3 -0.1(7)
S1 C1 C2 C3 179.8(4)
C11 C10 C9 C8 0.2(7)
C13 C10 C9 C8 -177.4(4)
C10 C9 C8 C7 0.0(7)
C12 C7 C8 C9 -0.6(6)
N1 C7 C8 C9 178.2(4)

_cod_database_fobs_code 1545557
