#------------------------------------------------------------------------------
#$Date: 2017-07-11 14:26:40 +0300 (Tue, 11 Jul 2017) $
#$Revision: 198632 $
#$URL: file:///home/coder/svn-repositories/cod/cif/1/54/51/1545187.cif $
#------------------------------------------------------------------------------
#
# This file is available in the Crystallography Open Database (COD),
# http://www.crystallography.net/
#
# All data on this site have been placed in the public domain by the
# contributors.
#
data_1545187
loop_
_publ_author_name
'Sinclair, Geoffrey S.'
'Yang, Tianyu'
'Wang, Sunmeng'
'Chen, Wei H.'
'Schipper, Derek J.'
_publ_section_title
;
 Copper-Mediated Nucleophilic Addition/Cascade Cyclization of Aryl Diynes.
;
_journal_issue                   4
_journal_name_full               'Organic letters'
_journal_page_first              802
_journal_page_last               805
_journal_paper_doi               10.1021/acs.orglett.6b03787
_journal_volume                  19
_journal_year                    2017
_chemical_formula_sum            'C32 H27 N O4 S2'
_chemical_formula_weight         553.66
_chemical_name_systematic
;
 ?
;
_space_group_crystal_system      monoclinic
_space_group_IT_number           14
_space_group_name_Hall           '-P 2ybc'
_space_group_name_H-M_alt        'P 1 21/c 1'
_symmetry_space_group_name_Hall  '-P 2ybc'
_symmetry_space_group_name_H-M   'P 1 21/c 1'
_atom_sites_solution_hydrogens   geom
_audit_creation_method           SHELXL-2014
_cell_angle_alpha                90
_cell_angle_beta                 105.7060(14)
_cell_angle_gamma                90
_cell_formula_units_Z            4
_cell_length_a                   10.9530(2)
_cell_length_b                   26.2844(6)
_cell_length_c                   9.7874(2)
_cell_measurement_reflns_used    842
_cell_measurement_temperature    296(2)
_cell_measurement_theta_max      30
_cell_measurement_theta_min      1.5
_cell_volume                     2712.52(10)
_computing_cell_refinement       'Bruker  APEX II'
_computing_data_collection       'Bruker Kappa APEX II'
_computing_data_reduction        'SADABS Bruker APEX II'
_computing_molecular_graphics    Mercury
_computing_structure_refinement  'SHELXL-2013 (Sheldrick, 2013)'
_computing_structure_solution    'Direct method'
_diffrn_ambient_temperature      296(2)
_diffrn_measured_fraction_theta_full 0.999
_diffrn_measured_fraction_theta_max 0.993
_diffrn_measurement_device_type  'Bruker Kappa APEX II'
_diffrn_measurement_method       'Omega and phi scan'
_diffrn_radiation_type           MoK\a
_diffrn_radiation_wavelength     0.71073
_diffrn_reflns_av_R_equivalents  0.0815
_diffrn_reflns_av_unetI/netI     0.1156
_diffrn_reflns_Laue_measured_fraction_full 0.999
_diffrn_reflns_Laue_measured_fraction_max 0.993
_diffrn_reflns_limit_h_max       13
_diffrn_reflns_limit_h_min       -14
_diffrn_reflns_limit_k_max       34
_diffrn_reflns_limit_k_min       -34
_diffrn_reflns_limit_l_max       12
_diffrn_reflns_limit_l_min       -12
_diffrn_reflns_number            25875
_diffrn_reflns_point_group_measured_fraction_full 0.999
_diffrn_reflns_point_group_measured_fraction_max 0.993
_diffrn_reflns_theta_full        25.242
_diffrn_reflns_theta_max         28.000
_diffrn_reflns_theta_min         1.549
_exptl_absorpt_coefficient_mu    0.236
_exptl_absorpt_correction_T_max  0.7460
_exptl_absorpt_correction_T_min  0.6928
_exptl_absorpt_correction_type   multi-scan
_exptl_absorpt_process_details   SADABS
_exptl_crystal_colour            orange
_exptl_crystal_density_diffrn    1.356
_exptl_crystal_description       needle
_exptl_crystal_F_000             1160
_exptl_crystal_size_max          0.400
_exptl_crystal_size_mid          0.040
_exptl_crystal_size_min          0.010
_refine_diff_density_max         0.272
_refine_diff_density_min         -0.260
_refine_diff_density_rms         0.048
_refine_ls_extinction_coef       0.0000(3)
_refine_ls_extinction_expression Fc^*^=kFc[1+0.001xFc^2^\l^3^/sin(2\q)]^-1/4^
_refine_ls_extinction_method     SHELXL
_refine_ls_goodness_of_fit_ref   1.042
_refine_ls_hydrogen_treatment    constr
_refine_ls_matrix_type           full
_refine_ls_number_parameters     353
_refine_ls_number_reflns         6502
_refine_ls_number_restraints     0
_refine_ls_restrained_S_all      1.042
_refine_ls_R_factor_all          0.1839
_refine_ls_R_factor_gt           0.0637
_refine_ls_shift/su_max          0.781
_refine_ls_shift/su_mean         0.002
_refine_ls_structure_factor_coef Fsqd
_refine_ls_weighting_details
'w=1/[\s^2^(Fo^2^)+(0.0238P)^2^+1.8105P] where P=(Fo^2^+2Fc^2^)/3'
_refine_ls_weighting_scheme      calc
_refine_ls_wR_factor_gt          0.0923
_refine_ls_wR_factor_ref         0.1279
_reflns_Friedel_coverage         0.000
_reflns_number_gt                2741
_reflns_number_total             6502
_reflns_threshold_expression     'I > 2\s(I)'
_cod_data_source_file            ol6b03787_si_001.cif
_cod_data_source_block           c25h21no2s2_0ma_a
_cod_depositor_comments
;Adding full bibliography for 1545187.cif.

The following automatic conversions were performed:

'_exptl_absorpt_correction_type' value 'multi-scan'' was replaced
with the value 'multi-scan' as specified in the replacement file
'src/cod-tools/trunk/data/replacement-values/replacement_values.lst'.

Automatic conversion script
Id: cif_fix_values 5376 2017-05-30 11:51:03Z andrius 
;
_cod_database_code               1545187
#BEGIN Tags that were not found in dictionaries:
_shelx_space_group_comment
;
The symmetry employed for this shelxl refinement is uniquely defined
by the following loop, which should always be used as a source of
symmetry information in preference to the above space-group names.
They are only intended as comments.
;
_shelx_estimated_absorpt_t_min   0.912
_shelx_estimated_absorpt_t_max   0.998
_shelxl_version_number           2014-3
_shelx_res_file
;
REM Solution 1  R1  0.215  Rweak  0.048,  Alpha = 0.0400  in P2(1)/c
REM Formula:  C30 N4 O3 S2
TITL C25H21NO2S2_0ma in P2(1)/c
CELL  0.71073  10.9530  26.2844   9.7874   90.000  105.706   90.000
ZERR    4.00   0.00020   0.00060   0.00020   0.0000   0.0014   0.0000
LATT  1
SYMM -X, 1/2+Y, 1/2-Z
SFAC C H N O S
UNIT 128 108 4 16 8
TEMP 23.000
SIZE 0.01 0.04 0.40
L.S. 10
BOND $H
OMIT -3 56

ACTA
LIST 6
FMAP 2
PLAN 5

WGHT    0.023780    1.810500
EXTI    0.000000
FVAR       0.37350
S1    5    0.463318    0.361448    0.080798    11.00000    0.04097    0.06019 =
         0.05214   -0.00761    0.00688   -0.00155
S2    5    0.929770    0.398998    0.132716    11.00000    0.05757    0.06443 =
         0.06620   -0.00184    0.03681   -0.00593
O1    4    0.376812    0.324195    0.104454    11.00000    0.04831    0.05823 =
         0.07779   -0.01231    0.00798   -0.01572
O2    4    0.465677    0.372440   -0.062685    11.00000    0.06525    0.10085 =
         0.04512   -0.00166    0.01143    0.00650
O3    4    1.056854    0.387609    0.210176    11.00000    0.04474    0.08281 =
         0.11784   -0.00062    0.03674   -0.00524
O4    4    0.899025    0.407047   -0.016986    11.00000    0.11711    0.08456 =
         0.06127    0.00023    0.05826   -0.00762
N1    3    0.843884    0.352550    0.162642    11.00000    0.04028    0.06044 =
         0.05277    0.00293    0.01907   -0.00341
C1    1    1.178301    0.284577    0.804651    11.00000    0.04993    0.07077 =
         0.05854    0.01115    0.00202    0.00112
AFIX  43
H1B   2    1.257455    0.279124    0.867909    11.00000   -1.20000
AFIX   0
C2    1    1.144315    0.258565    0.678710    11.00000    0.04575    0.05955 =
         0.06515    0.00436    0.01583    0.01479
AFIX  43
H2B   2    1.199907    0.235167    0.656902    11.00000   -1.20000
AFIX   0
C3    1    1.095640    0.318694    0.837605    11.00000    0.06284    0.05928 =
         0.04544   -0.00241    0.00625   -0.00921
AFIX  43
H3B   2    1.119186    0.336259    0.923224    11.00000   -1.20000
AFIX   0
C4    1    0.977971    0.327107    0.744704    11.00000    0.05802    0.04597 =
         0.04884   -0.00418    0.02027    0.00190
AFIX  43
H4B   2    0.922387    0.350060    0.768405    11.00000   -1.20000
AFIX   0
C5    1    1.027106    0.267188    0.584058    11.00000    0.04730    0.05183 =
         0.04856   -0.00460    0.01523    0.00656
AFIX  43
H5A   2    1.005136    0.249793    0.498115    11.00000   -1.20000
AFIX   0
C6    1    0.941837    0.301292    0.615042    11.00000    0.04442    0.03494 =
         0.04672    0.00027    0.01528   -0.00066
C7    1    0.817832    0.310628    0.513485    11.00000    0.04011    0.03116 =
         0.04806   -0.00443    0.01570    0.00202
C8    1    0.795703    0.318622    0.373099    11.00000    0.03347    0.03913 =
         0.04904   -0.00808    0.01522    0.00087
C9    1    0.887975    0.318597    0.284770    11.00000    0.04120    0.04987 =
         0.05354   -0.00396    0.01791    0.00379
AFIX  23
H9A   2    0.970413    0.329776    0.341891    11.00000   -1.20000
H9B   2    0.896836    0.284332    0.251912    11.00000   -1.20000
AFIX   0
C10   1    0.713294    0.347804    0.080957    11.00000    0.05040    0.07414 =
         0.04744   -0.00231    0.01720   -0.00110
AFIX  23
H10A  2    0.704409    0.317560    0.022285    11.00000   -1.20000
H10B  2    0.690979    0.376933    0.018295    11.00000   -1.20000
AFIX   0
C11   1    0.621093    0.344426    0.172619    11.00000    0.03704    0.04339 =
         0.04661   -0.00976    0.01201   -0.00359
C12   1    0.660635    0.329045    0.308275    11.00000    0.04437    0.03858 =
         0.04792   -0.00928    0.01859   -0.00363
C13   1    0.598056    0.321676    0.424294    11.00000    0.04081    0.03803 =
         0.05083   -0.00649    0.02066   -0.00349
C14   1    0.472548    0.320674    0.428611    11.00000    0.04567    0.05396 =
         0.05905   -0.00104    0.02103   -0.00358
AFIX  43
H14A  2    0.407394    0.327398    0.347424    11.00000   -1.20000
AFIX   0
C15   1    0.445696    0.309457    0.556262    11.00000    0.04681    0.06233 =
         0.08050   -0.00560    0.03372   -0.00787
AFIX  43
H15A  2    0.361754    0.308454    0.559879    11.00000   -1.20000
AFIX   0
C16   1    0.540396    0.299910    0.676141    11.00000    0.06981    0.05300 =
         0.06834   -0.00040    0.04477   -0.00039
AFIX  43
H16A  2    0.520230    0.292990    0.760648    11.00000   -1.20000
AFIX   0
C17   1    0.666161    0.300372    0.673870    11.00000    0.06096    0.04548 =
         0.05258    0.00175    0.02541    0.00663
AFIX  43
H17A  2    0.730410    0.293467    0.755737    11.00000   -1.20000
AFIX   0
C18   1    0.694475    0.311224    0.548368    11.00000    0.04446    0.03554 =
         0.04904   -0.00437    0.02159    0.00172
C19   1    0.434292    0.419206    0.157675    11.00000    0.03945    0.04706 =
         0.05711    0.00165    0.01213   -0.00385
C20   1    0.329116    0.424110    0.206254    11.00000    0.06202    0.05241 =
         0.09384   -0.00537    0.03583   -0.00991
AFIX  43
H20A  2    0.275310    0.396516    0.203276    11.00000   -1.20000
AFIX   0
C21   1    0.510975    0.460661    0.160601    11.00000    0.05513    0.06137 =
         0.13288   -0.00715    0.04233   -0.00859
AFIX  43
H21A  2    0.581435    0.457951    0.125254    11.00000   -1.20000
AFIX   0
C22   1    0.484395    0.506209    0.215442    11.00000    0.06881    0.05245 =
         0.14251   -0.01078    0.03563   -0.01418
AFIX  43
H22A  2    0.537420    0.533965    0.217036    11.00000   -1.20000
AFIX   0
C23   1    0.303206    0.470022    0.259553    11.00000    0.07933    0.06497 =
         0.09819   -0.00415    0.05139   -0.00111
AFIX  43
H23A  2    0.230650    0.473107    0.290962    11.00000   -1.20000
AFIX   0
C24   1    0.380918    0.511335    0.267814    11.00000    0.07323    0.05123 =
         0.09019   -0.00480    0.02856   -0.00008
C25   1    0.353785    0.561266    0.328764    11.00000    0.14199    0.05622 =
         0.14970   -0.01820    0.05937    0.00728
AFIX  33
H25A  2    0.418770    0.585350    0.325293    11.00000   -1.50000
H25B  2    0.272992    0.573898    0.274387    11.00000   -1.50000
H25C  2    0.352278    0.556417    0.425510    11.00000   -1.50000
AFIX   0
C26   1    0.882785    0.453957    0.207312    11.00000    0.05727    0.05095 =
         0.05002   -0.00083    0.02194   -0.00824
C27   1    0.872995    0.453871    0.343121    11.00000    0.14897    0.05628 =
         0.06788    0.00804    0.05193    0.00851
AFIX  43
H27A  2    0.887187    0.423928    0.395680    11.00000   -1.20000
AFIX   0
C28   1    0.857825    0.497985    0.132323    11.00000    0.12893    0.06435 =
         0.06203    0.00566    0.03716   -0.00422
AFIX  43
H28A  2    0.861510    0.498894    0.038534    11.00000   -1.20000
AFIX   0
C29   1    0.827093    0.541254    0.194878    11.00000    0.14340    0.05365 =
         0.07977    0.00934    0.03331    0.01016
AFIX  43
H29A  2    0.811704    0.571114    0.142012    11.00000   -1.20000
AFIX   0
C30   1    0.842466    0.497448    0.402876    11.00000    0.15687    0.06164 =
         0.06559   -0.00841    0.05209    0.00062
AFIX  43
H30A  2    0.837990    0.496581    0.496390    11.00000   -1.20000
AFIX   0
C31   1    0.818371    0.542155    0.329556    11.00000    0.07964    0.05448 =
         0.06825   -0.01059    0.01944   -0.00463
C32   1    0.784359    0.589493    0.396025    11.00000    0.12581    0.06618 =
         0.09797   -0.01469    0.03498    0.00459
AFIX  33
H32A  2    0.783078    0.582363    0.491826    11.00000   -1.50000
H32B  2    0.846084    0.615442    0.396210    11.00000   -1.50000
H32C  2    0.702107    0.601028    0.342663    11.00000   -1.50000

AFIX   0
HKLF 4

REM  C25H21NO2S2_0ma in P2(1)/c
REM R1 =  0.0637 for    2741 Fo > 4sig(Fo)  and  0.1839 for all    6502 data
REM    353 parameters refined using      0 restraints

END

WGHT      0.0782      0.4109

REM Highest difference peak  0.272,  deepest hole -0.260,  1-sigma level  0.048
Q1    1   0.6747  0.5832  0.4280  11.00000  0.05    0.27
Q2    1   0.7782  0.6155  0.3195  11.00000  0.05    0.21
Q3    1   0.7183  0.5586  0.3602  11.00000  0.05    0.20
Q4    1   0.4750  0.4575  0.0027  11.00000  0.05    0.19
Q5    1   0.3802  0.5852  0.2339  11.00000  0.05    0.19
;
_shelx_res_checksum              73235
_shelx_hkl_file
;
   0   0   1   -2.80    1.20
   0   0   1   -2.20    1.20
   0   0   1    0.30    1.20
   0   0  -1   -3.30    1.30
   0   0  -1   -1.60    1.50
   0   0  -1   -1.70    1.20
   0   0  -1   -3.50    1.10
   0   0   2 1961.50   35.00
   0   0  -2 1953.00   34.30
   0   0  -2 1911.31   34.80
   0   0   2 1900.51   34.10
   0   0   2 1971.50   34.40
   0   0  -2 1995.10   34.20
   0   0  -2 1972.90   34.30
   0   0   3    1.60    4.00
   0   0  -3    4.00    3.70
   0   0   3   -3.00    3.60
   0   0  -3   -8.50    3.30
   0   0  -3   -4.30    4.20
   0   0   3   -1.50    3.30
   0   0  -3   -2.90    3.40
   0   0  -4  999.10   21.50
   0   0  -4 1003.70   21.30
   0   0   4  982.50   22.30
   0   0  -4 1014.40   21.30
   0   0  -4 1020.80   22.80
   0   0   4 1029.30   21.70
   0   0   4 1000.40   21.00
   0   0  -5   -5.90    4.50
   0   0   5   -2.80    5.40
   0   0   5    3.10    4.40
   0   0   5    2.30    2.50
   0   0  -5   -4.60    4.20
   0   0  -6    7.90    4.90
   0   0  -6    2.40    5.70
   0   0   6   -0.60    4.70
   0   0   6   -1.20    2.60
   0   0   6   -7.10    5.40
   0   0   7    2.60    5.60
   0   0  -7   11.10    6.60
   0   0   7    0.30    2.90
   0   0   7    4.60    7.10
   0   0   8   55.89    4.00
   0   0   8   63.69   10.10
   0   0   8   57.09    8.40
   0   0   9   -3.10   10.10
   0   0   9    3.30    7.70
   0   0  -9   -0.40    3.50
   0   0  10   16.80    9.70
   0   0 -10    1.70    4.20
   0   0  11    2.50    9.80
   0   0 -11   -2.20    4.40
   0   0  12   -3.40   10.30
   0   0 -12   10.50    5.80
   0   0  13   -0.30   10.70
   0   0 -13   -5.90    5.70
   0   1   0    0.00    0.10
   0  -1   0    0.00    0.10
   0   1  -1  770.52   13.50
   0   1  -1  703.23   13.00
   0   1   1  679.53   13.30
   0   1  -1  675.13   12.90
   0   1  -1  663.83   13.20
   0   1   1  710.43   13.30
   0  -1  -1  725.03   13.40
   0  -1  -1  709.73   13.30
   0  -1   1  720.93   13.00
   0  -1   1  822.92   13.30
   0  -1   1  738.03   13.00
   0  -1   1  753.52   13.40
   0   1  -2 3876.21   64.89
   0   1   2 3779.02   65.69
   0   1  -2 3887.11   65.79
   0   1  -2 3881.91   65.09
   0   1  -2 3885.51   64.99
   0   1   2 3840.12   65.29
   0  -1  -2 3876.31   64.79
   0  -1   2 3908.11   64.89
   0  -1   2 3827.72   64.89
   0  -1   2 3749.22   65.59
   0  -1   2 3872.41   65.19
   0  -1  -2 3828.52   65.29
   0  -1  -2 3802.62   65.69
   0   1  -3  341.47    9.80
   0   1  -3  342.27   10.90
   0   1  -3  367.86    9.90
   0   1  -3  336.67    9.60
   0   1   3  332.87   10.70
   0   1   3  343.47   10.00
   0  -1  -3  362.36    9.60
   0  -1   3  323.57   10.60
   0  -1   3  349.47    9.70
   0  -1   3  342.97    9.60
   0  -1  -3  337.47    9.90
   0  -1  -3  317.97   10.70
   0   1  -4    9.40    4.80
   0   1  -4    2.70    3.80
   0   1   4   10.90    4.50
   0   1  -4    5.60    4.10
   0   1   4   16.50    4.90
   0  -1   4   15.30    4.40
   0  -1  -4    4.20    4.00
   0  -1  -4   13.90    5.20
   0  -1  -4   15.90    4.10
   0  -1  -4   10.60    5.00
   0  -1   4    0.00    3.90
   0   1  -5    3.70    5.10
   0   1   5    4.00    4.60
   0   1  -5    6.00    4.10
   0   1   5   17.70    6.10
   0   1   5   12.10    2.90
   0  -1  -5    3.00    4.40
   0  -1  -5   10.00    5.50
   0  -1   5    8.00    4.60
   0  -1   5    5.40    2.50
   0  -1   5    1.20    4.30
   0   1  -6   42.90    7.20
   0   1   6   33.10    6.10
   0   1   6   42.60    3.80
   0   1   6   24.60    6.40
   0   1  -6   30.60    5.40
   0  -1  -6   37.70    7.00
   0  -1   6   45.20    6.30
   0  -1   6   42.20    3.60
   0  -1   6   37.60    6.80
   0   1  -7   11.90    6.30
   0   1   7   10.10    7.40
   0   1   7   -2.00    2.90
   0   1   7    3.10    6.00
   0  -1   7    4.50    7.30
   0  -1   7    1.90    2.60
   0  -1   7   -8.40    5.20
   0  -1  -7   -1.10    6.00
   0   1   8   -1.00    3.20
   0   1   8    2.00    7.70
   0   1   8   -5.50    6.30
   0  -1   8    5.30    7.20
   0  -1   8    4.30    6.30
   0  -1  -8    0.30    3.30
   0   1   9   -3.50    6.90
   0   1   9  -10.20    8.00
   0  -1  -9    1.10    3.70
   0  -1   9  -10.00    8.40
   0   1  10    2.60    8.20
   0   1 -10    8.80    4.20
   0  -1  10   14.50   10.20
   0  -1 -10   11.60    4.50
   0   1 -11    0.40    4.50
   0   1  11    2.60    9.80
   0  -1  11   -8.00    8.90
   0  -1 -11    0.00    4.80
   0   1 -12    2.60    5.30
   0   1  12   -9.80   10.10
   0  -1  12   -6.20   10.00
   0  -1 -12   -0.70    5.60
   0   1  13   16.00   11.40
   0   1 -13    0.60    5.80
   0  -1 -13   -3.50    5.80
   0  -1  13   16.00   12.10
   0   2   0   -1.10    0.70
   0  -2   0   -2.90    0.90
   0   2   1 2437.66   41.00
   0   2   1 2405.16   40.70
   0   2   1 2416.56   41.30
   0   2  -1 2444.06   40.80
   0   2  -1 2443.56   41.10
   0   2  -1 2438.06   41.30
   0  -2  -1 2353.76   40.70
   0  -2   1 2425.56   41.30
   0  -2   1 2463.55   40.80
   0  -2  -1 2423.36   41.30
   0  -2  -1 2424.66   41.10
   0   2   2 1004.80   19.90
   0   2  -2 1044.30   19.70
   0   2  -2 1013.00   19.10
   0   2  -2 1054.39   20.30
   0   2  -2 1017.80   19.10
   0   2   2 1026.80   19.90
   0  -2   2  995.20   19.90
   0  -2   2 1003.90   19.80
   0  -2  -2 1011.70   19.80
   0  -2   2 1030.70   19.10
   0  -2  -2 1048.00   20.10
   0  -2   2 1011.60   19.10
   0  -2  -2 1019.00   18.10
   0   2   3  238.48    8.80
   0   2  -3  258.37    8.40
   0   2  -3  243.68    8.60
   0   2   3  241.98    9.30
   0   2  -3  240.78    8.20
   0   2  -3  238.28    9.40
   0  -2   3  256.87    8.30
   0  -2  -3  240.38    5.40
   0  -2  -3  241.58    8.00
   0  -2  -3  246.88    9.40
   0  -2   3  248.38    8.30
   0  -2   3  251.47    8.90
   0  -2  -3  234.08    8.80
   0   2   4   20.60    4.80
   0   2  -4   25.80    5.40
   0   2   4   27.00    4.80
   0   2  -4   19.90    4.40
   0   2  -4   25.10    4.20
   0  -2  -4   17.60    4.10
   0  -2   4   26.30    4.50
   0  -2  -4   24.80    2.20
   0  -2  -4   26.10    5.40
   0  -2   4   28.60    4.50
   0   2   5  219.78    7.00
   0   2   5  220.28   10.60
   0   2  -5  223.08   11.10
   0   2   5  223.08   11.10
   0   2  -5  230.88    9.60
   0  -2   5  227.98    6.30
   0  -2  -5  214.28    5.80
   0  -2   5  232.48   10.20
   0  -2   5  229.48    9.90
   0  -2  -5  211.28    9.80
   0  -2  -5  228.58   11.30
   0   2  -6   25.40    6.80
   0   2   6   26.80    3.80
   0   2   6   26.20    6.10
   0   2   6   24.90    6.30
   0   2  -6   21.40    5.10
   0  -2  -6   22.50    2.90
   0  -2   6   26.10    3.00
   0  -2   6   24.50    5.70
   0  -2  -6   24.30    6.40
   0  -2   6   22.60    5.70
   0   2  -7   57.29    8.30
   0   2   7   64.29    4.70
   0   2   7   58.69    8.00
   0   2   7   75.29    9.30
   0  -2   7   64.99    7.60
   0  -2   7   72.49    4.20
   0  -2  -7   65.39    8.90
   0  -2  -7   62.69    4.40
   0  -2   7   76.99    9.40
   0   2   8   35.90    8.30
   0   2   8   26.90    7.80
   0   2   8   53.89    4.60
   0  -2   8   48.10    9.00
   0  -2   8   43.20    7.60
   0  -2  -8   50.09    4.50
   0   2   9   11.20    9.10
   0   2   9   22.10    7.90
   0  -2  -9   20.40    4.30
   0  -2   9   37.90    9.90
   0   2  10    5.80    9.40
   0   2 -10   11.00    4.10
   0  -2  10   -4.80    9.50
   0  -2 -10    3.20    4.60
   0   2  11   -2.40   10.10
   0   2 -11    2.00    4.50
   0  -2 -11    9.90    5.20
   0  -2  11   -4.70    9.30
   0   2 -12   -0.20    5.00
   0   2  12   -3.40    9.90
   0  -2  12   -4.90   10.70
   0  -2 -12   -7.60    5.10
   0   2  13   -7.20   11.30
   0   2 -13   -0.50    5.60
   0  -2  13   -2.30   11.70
   0  -2 -13    4.70    5.90
   0   3   0   -5.00    1.50
   0  -3   0   -1.80    1.70
   0   3  -1   12.90    2.00
   0   3   1   14.40    2.10
   0   3   1   15.50    2.10
   0   3   1    9.60    2.70
   0   3  -1   12.00    2.30
   0  -3  -1    7.60    2.40
   0  -3  -1   15.40    2.10
   0  -3   1   13.10    2.50
   0  -3   1   15.40    2.00
   0  -3  -1   16.90    2.30
   0   3   2 1340.27   25.20
   0   3  -2 1341.17   24.00
   0   3  -2 1327.87   24.90
   0   3  -2 1320.27   24.90
   0   3  -2 1330.27   24.10
   0   3   2 1342.47   24.90
   0  -3   2 1305.37   25.00
   0  -3  -2 1333.17   25.00
   0  -3   2 1331.17   24.10
   0  -3  -2 1305.67   23.00
   0  -3  -2 1329.27   24.10
   0  -3  -2 1307.67   25.10
   0   3  -3   24.90    3.90
   0   3   3   40.10    5.00
   0   3   3   38.50    5.00
   0   3  -3   47.30    4.40
   0   3  -3   43.00    4.90
   0   3  -3   38.00    5.10
   0  -3  -3   37.30    2.60
   0  -3   3   36.80    4.80
   0  -3  -3   39.50    4.90
   0  -3   3   42.30    4.40
   0  -3   3   44.70    4.30
   0  -3  -3   38.10    5.00
   0   3  -4  436.06   13.40
   0   3   4  423.36   12.90
   0   3   4  398.56   14.90
   0   3   4  401.06   12.70
   0   3   4  419.56   10.30
   0   3  -4  427.76   11.80
   0   3  -4  420.76   11.70
   0  -3  -4  412.66   13.40
   0  -3  -4  425.46   11.50
   0  -3   4  417.56   12.40
   0  -3  -4  420.16    8.90
   0  -3   4  441.06   12.00
   0  -3   4  409.26   11.60
   0   3   5  198.08   10.00
   0   3   5  204.78    7.00
   0   3  -5  202.68   10.60
   0   3   5  197.08    9.80
   0   3  -5  189.38    8.60
   0  -3   5  211.28    6.00
   0  -3   5  206.58   10.10
   0  -3   5  201.08    9.20
   0  -3  -5  208.68    6.00
   0  -3  -5  203.98    9.70
   0  -3  -5  207.78   11.00
   0   3   6   60.09    8.10
   0   3   6   52.79    4.50
   0   3  -6   50.89    6.20
   0   3  -6   53.59    7.40
   0   3   6   52.29    7.10
   0  -3   6   54.49    6.70
   0  -3   6   51.39    6.40
   0  -3   6   52.49    3.60
   0  -3  -6   47.30    7.30
   0  -3  -6   66.99    4.50
   0   3   7   -5.00    3.40
   0   3  -7    1.60    6.30
   0   3   7    5.50    6.40
   0   3   7    2.00    6.10
   0  -3  -7    4.40    3.00
   0  -3   7    1.40    5.40
   0  -3   7   -0.60    5.70
   0  -3  -7   -1.60    6.60
   0  -3   7   -0.90    2.30
   0   3   8    4.00    8.10
   0   3   8    7.50    7.10
   0   3   8   13.30    3.80
   0  -3   8   13.10    7.40
   0  -3   8    6.30    6.20
   0  -3  -8    3.20    3.60
   0   3   9   20.20    8.10
   0   3   9   16.20    9.10
   0  -3   9   -0.30    9.10
   0  -3  -9    8.70    4.20
   0   3  10   10.20    9.40
   0  -3 -10   -0.20    4.50
   0  -3  10   -6.30    9.30
   0   3  11    2.50    9.90
   0   3 -11    3.00    4.40
   0  -3 -11   17.80    5.30
   0  -3  11   11.30   11.00
   0   3  12    1.80   10.90
   0   3 -12   -1.60    5.10
   0  -3 -12   -5.80    5.30
   0  -3  12    4.20   10.90
   0   3  13    8.50   11.60
   0   3 -13   -0.10    5.70
   0  -3  13    1.60   11.80
   0  -3 -13   -3.40    6.00
   0   4   0  792.22   15.00
   0  -4   0  777.32   15.00
   0   4   1  344.37    8.10
   0   4   1  349.96    7.70
   0   4  -1  349.27    8.70
   0   4  -1  350.96    7.70
   0   4   1  348.17    9.00
   0  -4  -1  344.97    8.20
   0  -4   1  344.77    8.70
   0  -4  -1  354.26    7.70
   0   4  -2 1028.60   20.30
   0   4  -2  988.30   19.80
   0   4  -2 1008.80   19.20
   0   4   2 1008.90   19.70
   0   4   2  997.40   20.50
   0   4   2 1018.90   19.20
   0  -4  -2 1024.70   19.90
   0  -4  -2 1010.10   18.30
   0  -4   2 1023.10   20.40
   0  -4  -2 1012.50   19.30
   0  -4   2 1003.30   19.10
   0  -4  -2  984.10   20.40
   0   4  -3  336.57   10.60
   0   4   3  311.67   10.60
   0   4   3  316.07   10.70
   0   4  -3  312.97   10.30
   0   4  -3  332.57    9.50
   0   4  -3  325.87    9.20
   0  -4  -3  332.87   10.80
   0  -4   3  304.07   10.20
   0  -4   3  329.37    9.40
   0  -4  -3  322.17   10.70
   0  -4  -3  317.87    9.30
   0  -4  -3  320.77    7.60
   0   4   4  162.18    9.10
   0   4  -4  154.98    7.80
   0   4   4  159.88    6.70
   0   4   4  166.98    8.60
   0   4  -4  163.98    9.10
   0   4   4  158.08    8.90
   0   4  -4  158.88    7.70
   0  -4   4  161.98    7.80
   0  -4   4  158.88    8.90
   0  -4  -4  154.48    9.60
   0  -4   4  164.48    7.70
   0  -4  -4  159.58    5.50
   0   4   5   20.90    5.70
   0   4   5   24.00    3.90
   0   4  -5   17.20    5.50
   0   4  -5   25.60    4.70
   0   4   5   21.30    6.00
   0  -4   5   21.20    2.90
   0  -4   5   18.20    4.60
   0  -4  -5   21.30    2.90
   0  -4  -5   23.20    6.00
   0  -4   5   20.30    4.50
   0  -4   5   19.20    5.40
   0   4   6   46.80    7.60
   0   4  -6   45.80    7.20
   0   4   6   50.29    4.70
   0   4   6   48.00    6.90
   0   4  -6   42.80    5.80
   0  -4   6   44.80    3.40
   0  -4   6   39.20    6.60
   0  -4  -6   38.20    3.70
   0  -4   6   38.50    5.90
   0  -4  -6   36.70    7.20
   0   4   7   15.40    6.90
   0   4  -7   14.50    6.80
   0   4   7   23.30    4.20
   0   4   7   23.00    7.70
   0  -4  -7   11.50    6.80
   0  -4  -7   15.00    3.70
   0  -4   7   21.80    6.70
   0  -4   7   22.20    2.70
   0  -4   7   19.10    6.00
   0   4   8   -2.80    6.80
   0   4   8   16.00    7.30
   0   4   8    1.40    3.70
   0  -4   8    5.30    6.80
   0  -4   8    3.50    6.30
   0  -4   8    8.80    7.30
   0  -4  -8    5.00    3.90
   0   4   9   31.90   10.00
   0   4   9   36.00    9.20
   0   4   9   59.59    5.70
   0  -4   9   46.60    9.50
   0  -4  -9   45.10    5.40
   0   4  10    4.00    9.10
   0  -4 -10   -2.60    4.30
   0  -4  10   -9.50    9.30
   0   4  11   -1.50    9.70
   0  -4 -11    4.70    5.00
   0  -4  11    1.50   10.00
   0   4 -12    2.30    5.10
   0   4  12   12.70   12.00
   0  -4  12    6.10    9.40
   0  -4 -12   -0.50    5.60
   0   4  13  -14.10   11.10
   0   4 -13    0.20    5.60
   0  -4  13    0.40   11.40
   0  -4 -13   -7.10    6.00
   0   5   0   -2.30    2.80
   0  -5   0    4.20    3.10
   0   5   1 5743.33   93.59
   0   5  -1 5529.85   93.39
   0   5   1 5503.55   91.89
   0   5   1 5467.05   92.69
   0  -5   1 5533.35   93.49
   0  -5  -1 5510.45   92.79
   0   5   2    6.60    3.90
   0   5  -2   11.40    4.00
   0   5  -2    7.50    3.50
   0   5   2    7.20    3.10
   0   5   2   15.00    3.30
   0  -5  -2   12.00    4.40
   0  -5   2   14.40    4.50
   0  -5   2   14.30    3.30
   0  -5  -2   12.20    2.90
   0  -5  -2   12.20    3.40
   0  -5  -2   17.40    3.80
   0   5   3   23.90    4.70
   0   5  -3   27.40    4.90
   0   5  -3   35.10    4.20
   0   5  -3   34.50    4.10
   0   5   3   35.70    4.70
   0  -5   3   38.20    5.20
   0  -5   3   40.20    4.20
   0  -5  -3   37.80    3.20
   0  -5  -3   38.60    4.30
   0  -5  -3   40.00    5.00
   0   5   4  166.28    9.40
   0   5   4  184.98    9.00
   0   5   4  172.88    7.00
   0   5   4  171.18    9.50
   0   5  -4  174.88    9.30
   0   5  -4  178.78    7.90
   0   5  -4  174.18    7.80
   0  -5  -4  186.68    9.90
   0  -5  -4  168.68    5.90
   0  -5   4  178.68    9.10
   0  -5  -4  173.98    7.90
   0  -5   4  177.88    8.00
   0   5   5    4.40    5.20
   0   5   5   -2.00    5.00
   0   5   5    1.80    3.40
   0   5  -5    6.30    5.10
   0   5  -5    6.70    4.10
   0  -5   5    9.00    4.10
   0  -5  -5   -2.90    4.10
   0  -5  -5    7.00    5.40
   0  -5   5    6.20    2.50
   0  -5  -5    3.10    2.60
   0  -5   5   16.60    5.40
   0   5  -6    4.70    4.40
   0   5  -6   11.20    6.20
   0   5   6   13.50    6.00
   0   5   6   14.10    4.00
   0   5   6   11.50    6.60
   0  -5   6    8.80    2.60
   0  -5  -6    2.30    5.90
   0  -5  -6    7.70    4.70
   0  -5   6   10.10    5.80
   0  -5  -6    8.50    3.10
   0   5   7    2.40    6.40
   0   5   7    6.60    4.20
   0   5   7   -3.20    7.20
   0   5  -7    9.90    6.80
   0  -5   7   12.40    2.60
   0  -5  -7   10.00    5.30
   0  -5   7   14.20    6.50
   0  -5  -7   17.50    3.60
   0  -5  -7    3.10    6.50
   0   5   8   -2.30    7.70
   0   5   8    9.00    7.30
   0   5   8    1.40    4.00
   0  -5  -8    7.20    3.90
   0  -5   8   -4.30    6.50
   0   5   9    4.70    8.20
   0   5   9   -5.60    3.90
   0   5   9    6.50    7.90
   0  -5   9   10.10    8.60
   0  -5  -9    5.90    4.40
   0   5  10   17.50    9.80
   0  -5 -10    7.00    4.90
   0  -5  10    5.90    9.90
   0   5  11    7.30    9.80
   0  -5  11  -15.90    9.70
   0  -5 -11   -1.00    5.20
   0   5  12   -8.30   10.40
   0   5 -12   -2.00    4.90
   0  -5 -12   -8.70    5.50
   0  -5  12  -15.50    9.80
   0   5  13   -0.40   11.40
   0   5 -13    3.70    5.70
   0  -5 -13   13.10    6.80
   0  -5  13  -21.20   10.70
   0   6   0 4042.40   68.49
   0  -6   0 3974.90   68.49
   0   6   1 2019.70   35.10
   0   6  -1 2086.59   37.20
   0   6   1 2096.69   37.30
   0   6   1 2040.10   36.50
   0  -6  -1 2033.60   36.60
   0  -6   1 2045.90   37.30
   0   6   2   -4.20    4.10
   0   6  -2   -3.80    3.20
   0   6   2   -2.70    3.10
   0   6  -2    4.10    4.10
   0   6   2   -0.70    3.20
   0  -6  -2    1.40    2.70
   0  -6  -2    5.20    4.40
   0  -6   2   -2.10    4.50
   0  -6   2   -0.30    3.00
   0  -6  -2    0.00    3.40
   0  -6  -2   -1.80    3.30
   0   6  -3  124.19    6.60
   0   6  -3  127.89    7.80
   0   6   3  131.09    7.50
   0   6   3  106.99    7.40
   0   6  -3  120.09    6.50
   0   6   3  103.79    7.00
   0  -6   3  115.79    6.40
   0  -6   3  116.09    8.40
   0  -6  -3  113.39    5.50
   0  -6  -3  118.09    7.80
   0  -6  -3  107.19    6.70
   0   6  -4    5.30    3.80
   0   6   4   -0.90    4.80
   0   6  -4    4.10    3.70
   0   6   4    5.10    5.20
   0   6   4    6.10    4.20
   0   6   4    3.30    3.60
   0   6  -4    4.00    4.80
   0  -6   4    0.00    3.50
   0  -6  -4    5.90    4.70
   0  -6   4    3.60    2.70
   0  -6  -4    0.90    2.80
   0  -6   4    7.30    4.80
   0  -6  -4    1.40    3.80
   0   6   5   50.39    6.80
   0   6  -5   53.09    5.50
   0   6   5   55.09    5.20
   0   6  -5   53.99    6.60
   0   6   5   62.39    6.90
   0  -6  -5   54.49    7.00
   0  -6  -5   53.79    5.60
   0  -6  -5   57.89    4.20
   0  -6   5   51.49    5.50
   0  -6   5   61.09    3.90
   0  -6   5   52.09    6.50
   0   6  -6  203.98    9.80
   0   6   6  176.48   11.80
   0   6   6  185.48    8.30
   0   6  -6  198.68   11.80
   0   6   6  189.78   11.50
   0  -6   6  202.78   11.50
   0  -6  -6  200.98   12.40
   0  -6   6  182.68    9.60
   0  -6   6  190.28    6.40
   0  -6  -6  210.38   10.10
   0  -6  -6  200.38    7.50
   0   6   7   17.40    6.70
   0   6  -7   25.40    7.40
   0   6   7   14.00    7.80
   0   6   7   11.80    4.20
   0  -6  -7   14.00    3.90
   0  -6  -7    9.50    5.40
   0  -6   7   13.50    2.80
   0  -6   7    2.80    6.10
   0  -6  -7   10.80    7.20
   0   6   8   21.40    7.90
   0   6   8   19.50    7.80
   0   6   8   19.00    4.70
   0  -6   8   29.10    7.90
   0  -6  -8   22.50    4.60
   0   6   9    6.50    8.00
   0   6   9    6.60    8.60
   0   6   9   13.70    4.60
   0  -6  -9    4.90    4.70
   0  -6   9    6.30    7.80
   0   6  10    0.20    9.00
   0  -6  10   -9.80    7.90
   0  -6 -10   -4.70    4.70
   0   6  11  -14.90    9.00
   0  -6  11   -5.40    9.20
   0  -6 -11   10.70    5.50
   0   6  12    4.20   10.10
   0  -6 -12   12.80    6.60
   0  -6  12  -18.60   10.50
   0   6 -13   10.50    5.80
   0   6  13    9.70   12.00
   0  -6  13   13.10   12.00
   0  -6 -13  -15.40    6.30
   0   7   0    2.90    3.30
   0  -7   0    1.80    3.80
   0   7   1 2247.98   39.00
   0   7   1 2280.67   41.00
   0   7  -1 2356.06   41.80
   0  -7  -1 2315.97   41.00
   0  -7   1 2279.57   41.70
   0   7   2  584.74   14.90
   0   7   2  562.34   12.70
   0   7  -2  542.75   12.70
   0   7   2  566.84   13.00
   0  -7  -2  561.34   13.40
   0  -7   2  556.04   12.80
   0  -7   2  566.24   14.80
   0  -7  -2  554.44   12.50
   0   7  -3   74.39    5.70
   0   7   3   62.19    4.90
   0   7   3   75.09    5.40
   0   7   3   69.99    5.50
   0   7   3   60.49    5.90
   0  -7  -3   68.29    5.30
   0  -7   3   70.19    5.00
   0  -7  -3   67.59    4.60
   0  -7  -3   70.49    5.80
   0  -7   3   66.29    6.40
   0   7   4  259.67   11.10
   0   7   4  238.98   11.10
   0   7   4  245.68    9.90
   0   7  -4  266.17    9.50
   0   7  -4  238.78   10.60
   0   7  -4  245.88    8.90
   0   7   4  258.77    9.20
   0  -7   4  254.17    9.20
   0  -7  -4  264.47    9.60
   0  -7   4  257.77    7.60
   0  -7  -4  255.97    8.10
   0  -7  -4  269.67   11.00
   0  -7   4  253.37   11.20
   0   7  -5  214.18    9.40
   0   7  -5  207.18   10.50
   0   7   5  209.78   11.30
   0   7   5  205.58    8.50
   0   7   5  224.98   11.30
   0  -7   5  217.48    6.90
   0  -7  -5  216.58   11.00
   0  -7  -5  215.18    9.40
   0  -7  -5  211.28    7.60
   0  -7   5  203.68   11.10
   0  -7   5  222.88    9.40
   0   7  -6   43.90    5.90
   0   7  -6   46.00    7.30
   0   7   6   49.00    8.10
   0   7   6   51.29    5.60
   0   7   6   47.60    7.40
   0  -7  -6   41.70    7.30
   0  -7   6   50.89    6.10
   0  -7   6   50.89    7.40
   0  -7  -6   60.39    6.40
   0  -7   6   54.69    4.00
   0  -7  -6   37.60    4.40
   0   7  -7   40.20    8.10
   0   7   7   47.10    5.60
   0   7   7   38.40    8.50
   0   7   7   35.40    7.70
   0  -7   7   37.80    7.80
   0  -7  -7   43.60    6.50
   0  -7  -7   43.00    4.90
   0  -7  -7   25.90    7.80
   0  -7   7   42.30    3.60
   0   7   8    5.10    4.40
   0   7   8   13.20    7.50
   0   7   8    7.50    8.10
   0  -7   8    4.90    7.30
   0  -7  -8    7.10    4.40
   0   7   9   24.20    5.30
   0   7   9   47.40   10.20
   0   7   9   34.40    9.30
   0  -7   9   50.19    9.40
   0  -7  -9   28.40    5.50
   0   7  10   -1.80    9.10
   0  -7  10  -19.80    9.00
   0  -7 -10   -2.60    5.10
   0   7  11    8.30   10.00
   0  -7  11   12.00   10.60
   0  -7 -11    9.50    6.00
   0   7  12   14.80   10.90
   0  -7 -12    7.30    6.50
   0  -7  12   -2.10   10.90
   0   7 -13   12.40    5.80
   0   7  13   30.60   12.90
   0  -7 -13    1.90    6.60
   0  -7  13    9.70   12.80
   0   8   0 1851.91   34.20
   0  -8   0 1805.42   34.20
   0   8   1  884.41   16.20
   0   8   1  895.71   18.60
   0  -8  -1  882.21   18.70
   0  -8   1  855.71   19.20
   0   8   2  116.29    6.80
   0   8   2  107.39    5.90
   0   8   2  126.69    8.40
   0   8  -2  113.09    6.00
   0  -8  -2  110.79    7.20
   0  -8   2  117.39    7.70
   0  -8  -2  115.79    6.40
   0   8   3  588.54   14.50
   0   8   3  606.54   15.90
   0   8   3  582.34   14.30
   0   8  -3  588.34   14.60
   0   8   3  579.04   15.30
   0  -8   3  572.74   15.70
   0  -8   3  609.84   14.00
   0  -8   3  596.64   13.40
   0  -8  -3  559.34   14.40
   0  -8  -3  584.24   13.50
   0   8   4   -3.50    3.80
   0   8   4    2.90    3.90
   0   8   4   -3.20    5.00
   0   8   4   -7.50    5.10
   0   8  -4    4.00    3.70
   0   8  -4   -1.80    4.10
   0  -8   4   -1.80    3.00
   0  -8   4    3.60    3.50
   0  -8  -4   -0.50    3.20
   0  -8  -4    4.80    4.00
   0  -8   4    1.10    5.30
   0  -8  -4    1.20    4.50
   0   8   5   24.50    5.80
   0   8   5   24.70    4.60
   0   8   5   23.30    6.60
   0   8  -5   23.70    4.90
   0   8  -5   28.20    5.80
   0  -8  -5   29.90    4.20
   0  -8  -5   34.70    6.30
   0  -8  -5   22.60    4.90
   0  -8   5   22.00    4.70
   0  -8   5   20.10    6.30
   0  -8   5   32.80    3.80
   0   8  -6  140.99   10.10
   0   8   6  128.49    9.90
   0   8   6  126.89    7.90
   0   8  -6  135.09    9.20
   0   8   6  152.98   11.10
   0  -8  -6  143.89   11.60
   0  -8   6  133.29    5.90
   0  -8   6  140.49    9.00
   0  -8   6  153.08   12.10
   0  -8  -6  139.99    7.50
   0  -8  -6  128.39    9.00
   0   8   7   13.50    5.00
   0   8   7    8.30    7.40
   0   8  -7   14.20    7.00
   0   8   7   17.30    7.00
   0  -8   7   19.90    7.30
   0  -8  -7    0.10    4.00
   0  -8   7    6.80    2.90
   0  -8   7   11.00    5.30
   0  -8  -7    3.90    5.30
   0   8   8    3.90    4.60
   0   8   8    6.70    7.60
   0   8   8   -4.60    7.40
   0  -8  -8   -3.10    4.30
   0  -8   8    9.70    7.50
   0   8   9   85.19    7.10
   0   8   9   96.79   11.40
   0   8   9   72.09   10.90
   0  -8   9   62.99   10.20
   0  -8  -9   74.39    7.10
   0   8  10  -22.60    8.60
   0  -8 -10    7.80    5.40
   0   8  11  -14.50    9.90
   0  -8  11   -7.70   10.10
   0  -8 -11    2.70    5.90
   0   8  12    7.50   11.30
   0  -8  12   18.70   12.10
   0  -8 -12   -0.60    6.60
   0  -9   0   -0.30    4.30
   0   9   1  252.67    9.00
   0   9   1  258.57    6.40
   0  -9  -1  249.68    9.70
   0  -9   1  260.37    9.90
   0   9   2    9.80    4.50
   0   9  -2   -4.10    3.00
   0   9   2   -1.60    3.80
   0   9   2    2.90    2.90
   0   9   2   -4.60    4.70
   0  -9   2    0.80    4.40
   0  -9   2   -1.50    3.30
   0  -9  -2    4.70    3.40
   0  -9  -2   -1.20    4.00
   0   9  -3   27.80    4.50
   0   9   3   18.20    5.80
   0   9   3   28.00    4.30
   0   9   3   20.80    4.50
   0  -9  -3   23.90    3.80
   0  -9  -3   16.50    4.40
   0  -9   3   22.10    6.00
   0  -9   3   26.90    4.10
   0  -9   3   20.60    3.80
   0   9   4    2.60    3.90
   0   9  -4    3.20    4.50
   0   9   4   -1.30    5.20
   0   9  -4    0.90    4.20
   0   9   4   -0.20    4.70
   0   9   4    0.00    4.00
   0  -9  -4    3.10    3.50
   0  -9   4   -2.10    3.70
   0  -9   4    0.50    5.40
   0  -9   4    2.60    3.10
   0  -9  -4    1.00    4.10
   0   9  -5   33.50    6.10
   0   9   5   24.20    5.00
   0   9   5   34.50    6.80
   0   9   5   42.10    7.50
   0  -9   5   25.10    6.30
   0  -9  -5   29.00    5.30
   0  -9  -5   25.80    4.40
   0  -9   5   32.70    5.00
   0  -9   5   30.00    4.00
   0   9  -6    2.60    5.90
   0   9   6    1.10    4.60
   0   9   6    4.30    6.60
   0   9   6   -4.20    5.90
   0   9  -6   -4.60    4.60
   0  -9   6   -0.20    6.40
   0  -9  -6   -1.90    4.70
   0  -9  -6    3.70    4.20
   0  -9   6   10.10    4.80
   0  -9   6   10.80    3.40
   0   9   7    8.00    5.00
   0   9   7   11.00    7.30
   0   9  -7    6.60    6.60
   0   9   7   -3.80    7.50
   0  -9  -7   16.80    4.80
   0  -9   7   13.80    5.50
   0  -9   7    8.90    3.20
   0  -9  -7    5.80    6.80
   0  -9   7   12.50    7.00
   0   9   8   21.50    8.20
   0   9   8   26.60    9.20
   0   9   8   21.80    5.50
   0  -9   8   27.70    8.40
   0  -9  -8   24.50    5.30
   0   9   9   -6.20    4.80
   0   9   9    5.80    8.00
   0   9   9   10.30   10.10
   0  -9   9    0.30    8.00
   0  -9  -9   -1.90    5.00
   0   9  10   26.00    5.80
   0   9  10   24.90   10.30
   0  -9 -10   23.80    6.40
   0   9  11   29.60   12.00
   0  -9 -11   18.20    6.90
   0  -9  11    4.90   10.50
   0   9  12    3.90   11.30
   0  -9 -12   13.00    7.00
   0  -9  12    1.90   10.20
   0 -10   0  695.83   17.10
   0  10  -1  201.58    5.50
   0  10   1  192.48    5.50
   0 -10   1  212.48   10.10
   0 -10  -1  185.28    8.80
   0 -10   1  190.48    8.40
   0  10   2  103.19    5.50
   0  10   2  114.29    7.90
   0  10  -2  100.39    5.80
   0  10   2   98.99    6.80
   0 -10   2  109.49    6.50
   0 -10  -2  104.09    6.50
   0 -10  -2  112.99    7.50
   0 -10   2  103.89    7.70
   0  10   3   14.10    4.50
   0  10  -3   19.40    4.20
   0  10   3    6.80    4.90
   0  10   3   22.20    4.10
   0 -10   3   18.60    4.10
   0 -10   3   21.90    5.60
   0 -10  -3   21.50    4.70
   0 -10   3   26.50    4.30
   0 -10  -3   19.90    4.30
   0  10  -4    2.10    4.50
   0  10   4    2.00    3.90
   0  10   4    1.30    4.70
   0  10   4    8.50    4.20
   0  10   4    9.40    5.50
   0 -10  -4    4.40    4.30
   0 -10  -4    1.20    3.60
   0 -10   4   -2.30    3.20
   0 -10   4   -6.10    5.50
   0 -10   4   -5.30    3.50
   0  10   5   24.20    5.30
   0  10   5   32.70    6.60
   0  10  -5   23.50    5.70
   0  10   5   29.90    7.20
   0 -10   5   26.20    6.80
   0 -10   5   31.40    4.20
   0 -10   5   18.30    4.70
   0 -10  -5   17.00    5.10
   0 -10  -5   19.50    4.40
   0  10   6   21.90    7.40
   0  10   6   16.00    6.90
   0  10   6    3.00    5.00
   0  10  -6    4.00    6.10
   0 -10   6   14.50    3.70
   0 -10  -6   16.40    5.50
   0 -10  -6   19.50    4.70
   0 -10   6    9.70    4.80
   0 -10   6   14.20    6.90
   0  10   7    4.20    5.10
   0  10   7   -0.80    7.80
   0  10   7    8.30    7.60
   0  10  -7   12.30    7.10
   0 -10   7    3.00    5.20
   0 -10  -7   11.10    4.90
   0 -10   7    0.30    7.00
   0 -10   7    4.10    3.40
   0  10   8  100.69   10.90
   0  10   8   84.19   11.40
   0  10   8   93.59    8.00
   0 -10   8  100.09   11.10
   0 -10  -8   97.69    7.60
   0  10   9   26.20    6.00
   0  10   9   13.20    8.50
   0 -10   9    3.70    7.80
   0 -10  -9    8.30    5.60
   0  10  10    2.20    5.00
   0  10  10  -14.30    9.50
   0 -10 -10    4.10    5.90
   0  10  11    4.70   11.30
   0 -10 -11   -1.00    6.20
   0 -10  11   20.00   11.00
   0  10  12   26.60   12.90
   0 -10 -12   20.90    7.50
   0 -10  12   21.90   12.20
   0 -11   0    5.70    5.00
   0 -11   0    9.90    4.20
   0  11  -1  644.44   12.30
   0  11   1  625.04   12.20
   0  11   1  628.14   15.90
   0 -11   1  635.94   16.70
   0 -11  -1  636.74   16.30
   0 -11   1  642.54   15.80
   0  11   2    1.10    4.10
   0  11   2    2.30    2.80
   0  11  -2    1.10    3.00
   0  11   2   -4.80    4.70
   0 -11  -2   -4.80    3.40
   0 -11  -2   -1.90    4.10
   0 -11   2   -2.60    3.80
   0 -11   2    3.20    4.80
   0  11   3   41.20    5.60
   0  11  -3   53.69    5.00
   0  11   3   51.29    6.90
   0  11   3   47.50    4.70
   0 -11  -3   49.00    5.70
   0 -11   3   47.20    5.00
   0 -11  -3   49.30    4.80
   0 -11   3   52.39    7.20
   0 -11   3   40.20    5.00
   0  11   4    5.00    3.90
   0  11  -4   -9.20    4.00
   0  11   4   -1.60    5.00
   0  11   4    2.60    4.60
   0 -11   4    5.30    4.00
   0 -11  -4   -2.40    3.70
   0 -11   4   -2.50    3.50
   0 -11   4    7.50    6.30
   0 -11  -4   -0.70    4.20
   0  11  -5   10.60    5.40
   0  11   5   13.50    6.40
   0  11   5   15.10    5.20
   0  11   5    9.10    5.80
   0 -11   5   15.10    4.50
   0 -11   5    9.90    3.80
   0 -11  -5   12.90    5.10
   0 -11  -5   10.90    4.40
   0 -11   5   10.40    6.00
   0  11   6   28.40    7.90
   0  11  -6   20.20    6.70
   0  11   6   15.70    7.10
   0  11   6   10.80    5.30
   0 -11   6   17.90    5.00
   0 -11  -6   17.20    4.90
   0 -11   6   11.90    3.90
   0 -11  -6   28.60    6.00
   0 -11   6    5.70    7.10
   0  11  -7  319.27   15.70
   0  11   7  298.27   16.30
   0  11   7  318.57   16.50
   0  11   7  315.77   12.30
   0 -11   7  293.07   16.30
   0 -11   7  302.17    9.50
   0 -11  -7  305.37   12.20
   0  11   8    1.60    5.50
   0  11   8   12.40    7.70
   0  11   8    6.30    8.50
   0 -11   8    7.50    8.00
   0 -11  -8    5.80    5.60
   0  11   9    6.30    9.00
   0  11   9   -0.30    5.40
   0 -11   9    4.80    8.10
   0 -11  -9   -2.70    5.60
   0  11  10    4.80    9.80
   0  11  10    9.20    5.60
   0 -11 -10    1.60    6.30
   0  11  11   17.20   11.40
   0 -11 -11   -5.40    6.60
   0  11  12    2.00   12.10
   0 -11 -12    0.80    7.00
   0 -11  12    5.70   10.80
   0 -12   0  174.08    9.10
   0 -12   0  178.98    9.20
   0  12   1    6.30    4.60
   0  12  -1    4.60    2.10
   0  12   1    8.40    2.20
   0 -12  -1    0.90    4.50
   0 -12   1    2.00    4.80
   0 -12   1    7.30    4.10
   0 -12  -1   14.30    5.10
   0  12  -2   15.20    3.30
   0  12   2   20.80    5.40
   0  12   2   20.80    5.60
   0  12   2   13.30    3.10
   0 -12  -2    6.10    4.70
   0 -12   2   21.60    4.80
   0 -12  -2   15.30    4.30
   0 -12   2   15.50    5.20
   0  12   3   13.90    3.60
   0  12   3   14.70    5.00
   0  12   3    5.80    5.00
   0  12  -3    9.90    3.90
   0 -12   3   10.20    4.20
   0 -12   3   13.20    4.20
   0 -12  -3    2.40    4.60
   0 -12   3    9.80    6.30
   0 -12  -3   18.80    4.30
   0  12   4    8.80    5.40
   0  12   4   12.10    4.30
   0  12   4    9.70    5.10
   0  12  -4   19.10    4.70
   0 -12   4   10.70    6.00
   0 -12  -4   17.70    5.10
   0 -12   4   12.50    4.20
   0 -12   4   15.70    4.30
   0 -12  -4   11.50    4.50
   0  12   5   43.20    7.10
   0  12   5   54.69    6.70
   0  12  -5   55.79    6.60
   0 -12   5   44.70    7.70
   0 -12  -5   49.10    5.60
   0 -12   5   45.00    5.20
   0 -12   5   56.19    5.90
   0 -12  -5   55.99    6.70
   0  12   6    9.40    6.90
   0  12   6    6.20    7.40
   0  12  -6   -5.50    5.80
   0  12   6    4.60    5.40
   0 -12   6    1.50    7.00
   0 -12  -6   -7.50    5.20
   0 -12  -6    5.90    4.80
   0 -12   6   -3.20    4.60
   0 -12   6    8.50    4.10
   0  12   7   51.79    9.10
   0  12   7   46.90    9.50
   0  12   7   41.70    6.80
   0  12  -7   39.60    8.10
   0 -12   7   37.10    4.70
   0 -12   7   37.60    9.30
   0 -12  -7   42.10    6.40
   0  12   8   39.90    6.80
   0  12   8   31.70    9.00
   0  12   8   44.20    9.70
   0 -12  -8   18.70    6.00
   0 -12   8   30.70    9.10
   0 -12   8   29.00    5.40
   0  12   9   -7.90    5.30
   0  12   9    3.70    9.80
   0 -12  -9   -8.10    5.60
   0 -12   9   -6.30    8.00
   0  12  10   -3.50    9.80
   0  12  10    9.30    5.80
   0 -12 -10    4.00    6.40
   0  12  11   -9.50   10.10
   0 -12 -11   17.00    7.10
   0  12  12   -5.90   11.60
   0 -12 -12   -0.40    7.10
   0 -12  12    0.50   11.00
   0  13   0   15.00    5.40
   0 -13   0    1.20    5.30
   0 -13   0    0.30    4.20
   0  13   1  360.46    7.90
   0  13   1  360.86   12.20
   0  13  -1  369.46    7.80
   0 -13   1  348.37   13.60
   0 -13   1  367.56   12.30
   0 -13  -1  367.86   12.20
   0 -13  -1  374.96   13.00
   0  13  -2   50.79    3.90
   0  13   2   48.30    5.90
   0  13   2   39.30    3.60
   0  13   2   48.70    7.00
   0 -13  -2   32.10    6.10
   0 -13   2   36.00    6.30
   0 -13   2   34.70    5.10
   0 -13  -2   40.40    5.90
   0 -13  -2   47.60    5.30
   0  13   3   17.10    4.90
   0  13   3   24.40    6.40
   0  13   3   14.10    3.70
   0  13  -3   18.50    4.00
   0 -13   3   13.00    4.50
   0 -13  -3   14.60    5.20
   0 -13  -3   17.40    4.30
   0 -13  -3   12.50    6.60
   0 -13   3   22.40    6.10
   0  13   4    5.00    5.90
   0  13  -4   11.40    4.60
   0  13   4    7.40    5.20
   0 -13  -4   11.10    4.70
   0 -13  -4    0.10    4.90
   0 -13   4    8.00    6.80
   0 -13   4    2.10    4.10
   0 -13   4    2.40    4.20
   0  13   5    9.70    5.90
   0  13   5   -1.40    5.20
   0  13  -5    4.10    5.20
   0 -13  -5   10.10    5.40
   0 -13  -5    9.00    4.60
   0 -13   5    8.40    4.60
   0 -13   5   10.80    7.90
   0 -13   5   12.50    4.50
   0  13   6   59.29    8.50
   0  13   6   50.59    9.00
   0  13   6   58.49    7.30
   0  13  -6   47.30    7.60
   0 -13   6   53.69    9.20
   0 -13  -6   53.09    6.40
   0 -13   6   53.99    6.50
   0 -13   6   54.19    5.60
   0 -13  -6   48.20    7.20
   0  13   7   -0.80    7.30
   0  13   7    4.10    5.80
   0  13  -7   -0.80    6.80
   0  13   7    2.30    7.80
   0 -13   7    0.30    7.90
   0 -13  -7    3.30    5.30
   0 -13   7    3.50    4.00
   0  13   8   21.80    6.30
   0  13   8   10.90    8.00
   0 -13   8   15.90    4.00
   0 -13   8    7.40    8.80
   0 -13  -8    8.70    6.00
   0  13   9    0.60    9.40
   0  13   9    7.10    6.10
   0 -13  -9   16.70    6.80
   0  13  10    7.20    6.20
   0  13  10    1.70   10.40
   0 -13 -10   20.00    7.30
   0  13  11  -14.10   10.20
   0 -13 -11   11.80    7.40
   0  13  12   -8.40   11.60
   0 -13  12    9.60   11.10
   0 -13 -12   -7.10    7.10
   0  14   0  520.65   14.80
   0 -14   0  482.65   15.90
   0 -14   0  517.35   15.40
   0  14  -1  148.29    4.40
   0  14   1  134.69    9.50
   0 -14  -1  136.09    8.70
   0 -14   1  147.99   10.60
   0 -14   1  145.49    8.90
   0 -14  -1  117.59    9.40
   0  14   2   21.60    3.10
   0  14   2   33.00    5.50
   0  14  -2   32.70    3.50
   0  14   2   25.70    6.00
   0 -14   2   25.70    5.30
   0 -14   2   25.10    6.60
   0 -14  -2   16.90    5.60
   0 -14  -2   25.70    6.00
   0  14   3   86.59    7.80
   0  14   3   87.19    8.80
   0  14  -3   79.39    5.60
   0 -14   3   77.39    8.80
   0 -14   3   83.49    7.00
   0 -14  -3   90.69    6.90
   0 -14  -3   69.49    7.30
   0 -14  -3   82.49    7.40
   0  14  -4    1.00    4.30
   0  14   4    8.40    4.80
   0  14   4    9.70    6.20
   0 -14   4    4.50    4.40
   0 -14  -4    0.30    5.00
   0 -14  -4   -1.90    4.40
   0 -14   4   -0.20    4.30
   0 -14   4   -1.50    5.90
   0 -14  -4   -0.20    5.30
   0  14   5   71.29    8.80
   0  14   5   65.69    7.40
   0  14  -5   82.09    7.80
   0 -14   5   69.19    6.70
   0 -14  -5   76.69    7.80
   0 -14   5   70.59    6.40
   0 -14   5   80.39   10.30
   0 -14  -5   70.49    7.10
   0  14   6   19.00    7.80
   0  14   6   34.30    6.80
   0  14  -6   34.50    7.10
   0 -14   6   36.20    5.50
   0 -14  -6   37.80    6.20
   0 -14  -6   28.90    6.60
   0 -14   6   32.00    6.90
   0 -14   6   34.30    8.80
   0  14  -7   21.50    7.60
   0  14   7   36.80    9.10
   0  14   7   29.50    6.60
   0 -14   7   29.30    9.20
   0 -14  -7   25.70    6.50
   0 -14   7   24.50    4.90
   0  14   8   16.00    6.60
   0  14   8   12.90    8.90
   0 -14   8    9.80    8.70
   0 -14  -8   19.80    6.50
   0 -14   8   19.70    4.50
   0  14   9    2.80    9.30
   0  14   9   -2.30    5.90
   0 -14  -9    2.70    6.40
   0  14  10   -1.40    9.70
   0  14  10   -5.90    5.60
   0 -14 -10    4.00    6.70
   0  14  11  -16.80   10.70
   0  14  11    1.50    7.40
   0 -14 -11   -7.80    7.20
   0  14  12    4.30   11.80
   0 -14 -12  -10.90    7.30
   0  15   0    4.20    5.30
   0 -15   0    4.30    5.10
   0 -15   0    6.10    5.30
   0  15   1   30.10    6.50
   0  15  -1   33.10    6.40
   0 -15  -1   36.20    6.60
   0 -15  -1   30.50    6.30
   0 -15   1   34.70    6.00
   0 -15   1   20.20    6.70
   0  15   2  155.48   10.10
   0  15   2  146.29    9.80
   0  15  -2  160.48    6.30
   0 -15  -2  150.38   10.10
   0 -15   2  149.29    9.10
   0 -15  -2  160.88   10.70
   0 -15   2  143.39   10.50
   0  15   3   24.40    6.60
   0  15   3   37.40    6.70
   0  15  -3   24.50    4.30
   0 -15  -3   27.70    6.10
   0 -15  -3   27.50    6.20
   0 -15  -3   25.00    5.30
   0 -15   3   18.90    6.70
   0 -15   3   20.20    5.40
   0  15  -4    1.00    4.50
   0  15   4   -3.20    5.40
   0  15   4   -6.20    6.00
   0 -15  -4   -4.30    5.30
   0 -15  -4   -5.90    4.40
   0 -15   4    1.70    4.70
   0 -15   4    0.50    4.50
   0 -15  -4    2.80    5.90
   0 -15   4    3.70    7.40
   0  15  -5   11.50    5.60
   0  15   5   11.20    7.40
   0  15   5    9.90    6.00
   0 -15  -5   14.70    5.40
   0 -15   5   15.50    5.10
   0 -15  -5   12.30    6.20
   0 -15   5    7.00    4.80
   0 -15   5   -0.80    7.80
   0  15  -6   19.70    6.50
   0  15   6   15.40    6.50
   0  15   6   16.40    7.00
   0 -15  -6   12.50    7.90
   0 -15   6    6.60    4.90
   0 -15  -6   16.50    5.60
   0 -15   6    3.70    8.00
   0  15   7   91.09   11.10
   0  15   7   82.99    9.10
   0  15  -7   75.29    9.30
   0 -15   7   76.49    6.70
   0 -15   7   66.59   10.70
   0 -15  -7   84.29    8.20
   0  15   8    7.30    6.70
   0 -15   8    8.70    4.30
   0 -15  -8    2.00    5.90
   0 -15   8    7.40    9.20
   0  15   9    8.70   10.10
   0  15   9    3.80    6.40
   0 -15  -9    3.60    6.70
   0  15  10    4.00    6.40
   0  15  10    4.90   10.70
   0 -15 -10   12.60    7.20
   0  15  11  -12.10   10.60
   0  15  11   -2.70    6.30
   0 -15 -11    2.40    7.50
   0  15  12  -19.50   10.60
   0 -15 -12   17.90    8.20
   0  16   0  146.19    9.00
   0 -16   0  125.49    9.00
   0 -16   0  137.09   10.90
   0  16   1  163.28   10.60
   0  16  -1  160.38    9.30
   0 -16  -1  160.78   10.70
   0 -16   1  140.49    9.80
   0 -16   1  147.69   11.50
   0 -16  -1  137.89    9.80
   0  16   2   92.49    8.50
   0  16  -2   85.29    5.30
   0  16   2   67.59    7.60
   0 -16  -2   86.59    8.30
   0 -16   2   92.99    9.40
   0 -16  -2   83.79    7.90
   0 -16   2   74.09    7.50
   0  16  -3    1.60    3.60
   0  16   3    2.30    6.00
   0  16   3   -5.90    5.70
   0 -16  -3   -2.10    4.60
   0 -16  -3    3.20    5.60
   0 -16  -3   -1.30    5.90
   0 -16   3    3.00    7.10
   0 -16   3   -3.50    4.90
   0  16   4    5.40    5.90
   0  16   4   13.40    7.00
   0  16  -4   11.70    4.80
   0 -16  -4   -0.60    6.00
   0 -16   4    4.90    5.10
   0 -16   4   11.00    8.30
   0 -16  -4    7.80    5.30
   0 -16   4   14.80    5.00
   0 -16  -4   -4.00    5.40
   0  16   5   15.00    6.40
   0  16   5   19.50    7.90
   0  16  -5   29.90    6.10
   0 -16   5   16.20    5.50
   0 -16   5   20.40    5.60
   0 -16   5   29.30    9.10
   0 -16  -5   29.40    6.90
   0 -16  -5   12.80    5.50
   0  16   6   25.50    8.40
   0  16   6   25.90    7.00
   0 -16   6   24.00    5.50
   0 -16  -6   23.30    6.40
   0 -16   6   26.60    9.20
   0  16   7    8.50    6.40
   0 -16  -7    6.00    6.20
   0 -16   7    7.20    8.60
   0 -16   7   -2.30    4.60
   0  16   8    6.20    6.70
   0 -16   8   11.90    4.60
   0 -16  -8   -7.50    6.00
   0  16   9    7.90    6.80
   0 -16  -9    6.20    6.70
   0  16  10   -6.30    6.10
   0 -16 -10   -4.20    6.60
   0  16  11   11.90    6.80
   0 -16 -11   11.20    7.50
   0  17   0   -3.60    5.30
   0 -17   0    4.70    6.40
   0 -17   0    3.20    5.80
   0  17  -1  205.48   10.70
   0  17   1  204.68   11.80
   0 -17   1  221.38   12.30
   0 -17  -1  211.28   11.90
   0 -17  -1  221.98   12.30
   0 -17   1  196.28   11.20
   0  17   2    0.10    5.80
   0  17  -2    2.60    5.70
   0  17   2    4.40    5.40
   0 -17  -2    7.50    6.10
   0 -17   2    2.60    7.00
   0 -17  -2    3.20    6.20
   0 -17   2    2.50    5.20
   0  17   3    8.80    5.90
   0  17   3   -7.90    5.90
   0 -17  -3   16.80    7.00
   0 -17  -3    6.60    6.20
   0 -17   3   12.10    8.00
   0 -17   3   12.10    5.70
   0  17   4   15.50    6.60
   0  17   4   20.60    6.80
   0 -17  -4    6.20    5.50
   0 -17   4   14.00    8.70
   0 -17  -4   20.70    6.80
   0 -17   4    7.60    5.10
   0 -17  -4    8.50    6.70
   0 -17   4    6.30    5.50
   0  17   5   -0.90    6.20
   0  17   5   -3.20    7.00
   0 -17   5    9.70    5.20
   0 -17   5   -9.90    7.10
   0 -17   5   -5.30    4.70
   0 -17  -5   -6.00    6.00
   0 -17  -5   -0.30    5.30
   0  17   6   55.49    9.90
   0  17   6   43.50    8.00
   0 -17   6   55.29    6.80
   0 -17   6   57.29   10.40
   0 -17  -6   47.80    6.90
   0  17   7   25.70    7.50
   0 -17  -7    2.70    6.20
   0 -17   7    1.30    4.80
   0 -17   7   27.00   10.20
   0  17   8   -2.40    6.40
   0 -17  -8   -4.40    6.20
   0 -17   8    9.80    4.80
   0  17   9   -1.00    6.60
   0 -17  -9   -4.50    6.60
   0  17  10   -4.30    6.70
   0 -17 -10   -5.30    7.10
   0  17  11    0.80    6.60
   0 -17 -11   -1.20    7.40
   0  18   0   47.60    7.80
   0 -18   0   55.79    8.20
   0 -18   0   39.90    6.90
   0  18  -1   21.30    6.00
   0  18   1   33.40    7.40
   0 -18  -1   28.90    6.60
   0 -18   1   24.30    7.00
   0 -18  -1   33.50    7.70
   0 -18   1   20.40    6.60
   0  18   2  144.59   10.70
   0  18   2  144.29   11.10
   0  18  -2  129.89    9.60
   0 -18  -2  138.69   10.80
   0 -18   2  154.08   11.70
   0 -18  -2  159.18   11.60
   0 -18   2  137.09   10.40
   0  18   3    6.20    6.70
   0  18   3   -6.60    6.10
   0 -18   3   -5.30    8.00
   0 -18  -3   -8.50    6.00
   0 -18   3   -3.90    5.10
   0 -18  -3    5.50    6.20
   0  18   4  -10.30    6.00
   0  18   4    1.40    6.90
   0 -18   4   -6.70    7.00
   0 -18  -4   -2.60    6.20
   0 -18   4    3.80    5.50
   0 -18   4   -2.00    5.00
   0 -18  -4    2.00    7.90
   0 -18  -4   -1.00    5.20
   0  18   5  -11.40    6.50
   0  18   5    5.90    6.70
   0 -18  -5    9.70    5.90
   0 -18  -5    5.00    6.70
   0 -18   5    3.80    7.90
   0 -18   5   -5.40    5.20
   0  18   6    9.90    8.10
   0  18   6    7.00    6.70
   0 -18   6    0.20    5.20
   0 -18  -6    3.90    5.90
   0 -18   6    6.10    9.20
   0  18   7    2.50    6.70
   0 -18  -7    3.90    6.00
   0 -18   7   -3.90    5.10
   0  18   8   11.80    7.50
   0 -18   8    5.00    4.90
   0 -18  -8    8.50    6.70
   0  18   9    1.70    7.10
   0 -18  -9    4.70    7.20
   0  18  10   -3.90    7.00
   0 -18 -10   -8.20    7.20
   0  18  11    8.40    7.20
   0 -18 -11  -12.10    7.80
   0  19   0   -1.40    5.50
   0 -19   0    5.60    5.90
   0 -19   0   -6.90    6.90
   0  19   1   59.89    7.90
   0  19  -1   78.39    8.30
   0  19   1   71.79    8.90
   0 -19   1   70.49    8.80
   0 -19  -1   83.29    9.30
   0 -19  -1   55.49    7.90
   0 -19   1   71.99    9.10
   0  19   2  409.86   16.40
   0  19   2  401.46   17.00
   0 -19  -2  416.26   16.80
   0 -19   2  418.36   18.50
   0 -19  -2  430.36   16.70
   0 -19   2  440.46   16.00
   0  19   3   -2.40    6.40
   0  19   3    4.50    7.00
   0 -19  -3   10.40    7.50
   0 -19  -3   10.80    6.90
   0 -19   3   -2.80    8.30
   0 -19   3    4.50    6.20
   0  19   4    7.10    7.10
   0  19   4    2.00    6.80
   0 -19   4   25.20    9.60
   0 -19   4   -2.30    5.30
   0 -19   4    1.80    5.70
   0 -19  -4   -0.80    6.60
   0 -19  -4   -7.90    5.30
   0  19   5   12.70    6.80
   0  19   5    7.40    6.80
   0 -19  -5   -0.20    6.90
   0 -19   5    1.30    5.90
   0 -19  -5    1.60    5.80
   0 -19   5   18.40    8.60
   0  19   6   -3.50    6.80
   0 -19  -6    8.70    6.20
   0 -19   6  -11.20    9.50
   0 -19   6    1.40    5.50
   0  19   7   12.20    7.30
   0 -19  -7   -5.60    6.10
   0 -19   7    6.20    5.40
   0  19   8   -1.50    7.10
   0 -19  -8   -4.30    6.50
   0 -19   8    0.30    5.10
   0  19   9   11.70    7.50
   0 -19  -9    2.30    6.70
   0  19  10    9.30    7.50
   0 -19 -10   14.30    7.40
   0  19  11    3.00    7.50
   0 -19 -11    1.90    7.60
   0  20   0  116.29   10.40
   0 -20   0   93.89   10.50
   0 -20   0  109.59   10.60
   0  20   1   10.70    6.50
   0  20  -1   14.80    6.70
   0  20   1   10.50    6.50
   0 -20  -1   20.00    7.70
   0 -20   1   21.80    7.30
   0 -20   1   14.80    7.80
   0 -20  -1   18.80    7.50
   0  20   2   10.70    6.60
   0  20   2    0.70    6.60
   0 -20  -2   12.70    7.20
   0 -20   2    6.60    8.20
   0 -20   2    0.70    6.40
   0 -20  -2   -3.90    6.90
   0  20   3   12.40    6.90
   0  20   3   -3.70    6.00
   0 -20  -3   -5.90    6.60
   0 -20  -3    9.80    7.40
   0 -20   3  -15.10    8.30
   0 -20   3    2.80    6.30
   0  20   4   42.00    8.30
   0  20   4   86.29   10.40
   0 -20   4   56.69    8.20
   0 -20   4   62.99    8.10
   0 -20  -4   64.79    9.10
   0 -20   4   72.39   10.70
   0  20   5    0.70    7.00
   0  20   5    7.20    7.70
   0 -20   5    4.00   10.00
   0 -20  -5    5.50    6.70
   0 -20   5   -4.10    5.90
   0 -20  -5   17.20    8.70
   0  20   6   28.40    8.60
   0 -20  -6   50.39    8.60
   0 -20   6   42.70    7.40
   0  20   7    7.20    7.80
   0 -20  -7   -3.10    6.90
   0 -20   7   26.50    6.60
   0  20   8    8.20    7.50
   0 -20  -8   10.30    6.80
   0 -20   8   -0.40    5.00
   0  20   9   13.60    8.10
   0 -20  -9    8.10    7.80
   0  20  10    4.60    7.80
   0 -20 -10   -0.60    7.90
   0  20  11    6.20    7.70
   0 -20 -11   -5.20    8.20
   0  21   0   14.70    7.30
   0 -21   0    2.50    7.70
   0 -21   0    2.70    6.30
   0  21   1    1.30    7.00
   0  21   1  -15.40    6.20
   0  21  -1   -4.70    5.80
   0 -21   1   -6.10    7.70
   0 -21  -1    4.80    6.50
   0 -21   1    2.20    6.80
   0 -21  -1   -1.30    7.50
   0  21   2  120.99   11.60
   0  21   2   94.99   10.10
   0 -21  -2  115.39   11.20
   0 -21   2  122.99   11.20
   0 -21  -2  134.09   11.10
   0 -21   2  127.09   12.80
   0  21   3   12.10    8.20
   0  21   3   14.40    7.80
   0 -21  -3    0.10    7.40
   0 -21   3   -2.20    6.20
   0 -21   3   17.80    9.50
   0 -21  -3    8.90    7.30
   0  21   4   43.40    8.60
   0  21   4   65.69    9.80
   0 -21   4   48.20    8.50
   0 -21  -4   66.89    9.50
   0 -21   4   42.00   10.00
   0  21   5    6.50    7.50
   0 -21   5    0.90    6.30
   0 -21   5    4.20    8.80
   0  21   6    3.50    7.60
   0 -21   6    4.70    6.40
   0  21   7    0.90    7.60
   0 -21  -7    4.10    7.80
   0 -21   7   -6.40    5.50
   0  21   8    3.70    7.70
   0 -21   8   -3.90    5.50
   0 -21  -8   -7.80    7.00
   0  21   9   -1.30    7.70
   0 -21  -9  -10.50    7.00
   0  21  10    1.00    8.00
   0 -21 -10    5.90    8.10
   0  22   0  407.16   16.60
   0 -22   0  389.86   18.40
   0 -22   0  407.96   17.60
   0  22  -1   10.40    6.60
   0  22   1   13.90    7.90
   0  22   1    9.90    7.10
   0 -22   1    9.40    8.60
   0 -22   1   14.40    7.00
   0 -22  -1   -1.00    7.70
   0 -22  -1   -0.50    7.50
   0  22   2   60.49    9.60
   0  22   2   37.60    8.20
   0 -22  -2   46.20    9.10
   0 -22  -2   41.60    9.00
   0 -22   2   29.60   10.10
   0 -22   2   35.30    8.60
   0  22   3   11.00    7.70
   0  22   3   -1.60    6.90
   0 -22  -3   -1.30    6.80
   0 -22   3    3.00    8.30
   0 -22  -3   10.80    7.90
   0 -22   3   11.00    6.70
   0  22   4   20.20    8.20
   0  22   4    6.10    8.50
   0 -22  -4   15.00    8.00
   0 -22   4   16.50    7.00
   0 -22   4    1.20    8.70
   0  22   5    7.90    7.90
   0 -22   5    4.50    6.80
   0  22   6   11.70    8.20
   0 -22   6   31.60    7.70
   0  22   7    7.90    7.90
   0 -22   7    8.80    6.40
   0  22   8   -4.50    7.60
   0 -22   8    4.30    5.80
   0  22   9   -8.10    7.90
   0  22  10   10.50    8.70
   0  23   0    0.20    7.60
   0 -23   0  -11.80    8.10
   0 -23   0    8.90    8.10
   0  23   1   21.10    7.50
   0  23  -1   17.30    7.20
   0  23   1   11.40    7.50
   0 -23  -1   32.30    9.00
   0 -23  -1    9.70    7.70
   0 -23   1   16.50    9.20
   0 -23   1   32.80    7.70
   0  23   2    5.70    7.60
   0  23   2    5.20    7.10
   0 -23   2    7.90    8.30
   0 -23  -2    3.50    8.20
   0 -23   2   11.70    7.80
   0 -23  -2   19.90    7.70
   0  23   3  -11.80    7.30
   0  23   3    7.80    7.90
   0 -23  -3    4.40    8.00
   0 -23  -3   13.70    8.40
   0 -23   3   10.90   10.00
   0 -23   3    1.80    7.00
   0  23   4   49.30    9.50
   0 -23  -4   60.69   10.10
   0 -23   4   47.80    8.60
   0  23   5   12.70    8.30
   0 -23   5    1.30    6.90
   0  23   6   10.00    7.90
   0 -23   6    9.10    7.00
   0  23   7   10.00    8.20
   0 -23   7    0.60    6.40
   0  23   8   -4.60    7.90
   0 -23   8   -0.40    6.20
   0  23   9   12.40    8.60
   0  23  10   -5.00    8.00
   0  24   0   25.90    8.40
   0 -24   0    4.50    7.20
   0 -24   0    3.20    8.80
   0  24   1    7.80    8.00
   0  24   1    6.60    7.90
   0 -24   1   22.70    8.90
   0 -24  -1   10.20    8.30
   0 -24  -1    7.40    7.50
   0 -24   1    3.60    7.40
   0  24   2   43.40    9.50
   0  24   2   53.69    9.40
   0 -24   2   50.59    9.70
   0 -24  -2   54.39    9.90
   0 -24  -2   37.30    9.00
   0 -24   2   19.80    9.30
   0  24   3  147.09   13.70
   0 -24   3  116.39   11.50
   0 -24   3  155.68   16.40
   0 -24  -3  135.19   12.90
   0 -24  -3  122.79   12.80
   0  24   4    4.70    8.60
   0 -24   4    8.50    7.50
   0 -24  -4   -3.10    7.90
   0  24   5   -9.80    7.50
   0 -24   5   12.50    7.60
   0  24   6   -0.20    8.00
   0 -24   6   15.70    7.60
   0  24   7   -1.20    8.30
   0 -24   7    4.40    6.70
   0  24   8   18.60    8.80
   0 -24   8    5.60    6.80
   0  24   9   10.00    8.90
   0  24  10    1.00    8.80
   0  25   0   -3.60    6.90
   0 -25   0   -7.20    8.40
   0 -25   0    0.70    7.90
   0  25   1    5.00    7.80
   0  25   1   35.50    9.40
   0 -25   1   20.40    8.80
   0 -25  -1   14.30    9.00
   0 -25  -1   21.60    9.30
   0 -25   1   22.30   10.10
   0  25   2   19.90    8.50
   0 -25  -2   26.50    9.40
   0 -25   2   52.39   12.20
   0 -25   2   31.90    9.10
   0 -25  -2   25.00    9.70
   0  25   3    3.50    8.70
   0 -25   3    7.00    8.10
   0 -25  -3    3.80    8.30
   0 -25  -3   -1.90    8.90
   0  25   4    1.10    8.20
   0 -25   4   11.50    7.80
   0  25   5   34.90    9.60
   0 -25   5   10.00    7.70
   0  25   6    4.60    8.50
   0 -25   6    0.90    7.30
   0  25   7   13.30    9.30
   0 -25   7    4.00    7.40
   0  25   8   -5.50    8.10
   0 -25   8   -1.20    7.00
   0  25   9    3.20    8.70
   0  26   0    3.30    7.60
   0  26   0    4.00    8.10
   0 -26   0   19.80    9.60
   0 -26   0   -6.00    8.10
   0  26   1   62.19   10.00
   0 -26   1   68.79   11.20
   0 -26  -1   81.89   11.10
   0 -26  -1   58.69   11.10
   0  26   2    5.80    8.80
   0 -26   2  -15.80    7.50
   0 -26  -2    5.10    8.70
   0 -26  -2    9.20    9.40
   0  26   3   13.80    9.10
   0 -26  -3   27.80    9.10
   0 -26  -3   24.80    9.70
   0 -26   3   20.00    8.80
   0  26   4   -0.60    8.20
   0 -26   4  -10.80    7.20
   0  26   5   -0.20    7.60
   0 -26   5   -2.40    7.90
   0  26   6   24.20    9.50
   0 -26   6   13.90    8.40
   0  26   7   15.10    9.00
   0 -26   7    9.60    7.80
   0  26   8   27.40    9.90
   0 -26   8   13.50    7.60
   0  26   9   -4.30    8.90
   0  27   0   13.90    9.10
   0 -27   0    6.40    8.00
   0  27   1  -18.90    8.10
   0 -27  -1   -3.40    9.20
   0 -27   1    3.30    8.60
   0  27   2   16.20    9.80
   0 -27  -2  -11.60    9.90
   0 -27  -2    9.10    8.50
   0 -27   2    7.00    8.90
   0  27   3   69.29   11.60
   0 -27  -3   66.29   10.80
   0 -27   3   67.49   11.10
   0 -27  -3   83.69   13.70
   0  27   4   19.00    9.50
   0 -27   4   13.60    8.60
   0  27   5    6.50    9.30
   0 -27   5    1.40    8.30
   0  27   6    0.80    9.10
   0 -27   6   13.60    8.00
   0  27   7   -6.40    8.00
   0 -27   7   -7.30    7.60
   0  27   8   22.10    9.90
   0 -27   8   -2.80    7.30
   0  27   9    0.50    9.10
   0  28   0   45.30    9.80
   0 -28   0   38.70   10.30
   0  28   1    8.40    8.40
   0 -28   1  -11.50    8.00
   0 -28  -1  -10.10    8.80
   0  28   2    0.10    8.70
   0 -28   2    4.70    8.90
   0 -28  -2   19.90   10.30
   0  28   3   -2.40    9.00
   0 -28  -3    6.20    9.60
   0 -28   3   -2.40    8.30
   0  28   4    0.40    9.40
   0 -28   4    7.00    8.10
   0  28   5    4.20    8.50
   0 -28   5   20.70    9.20
   0  28   6   -9.20    8.70
   0 -28   6    1.20    8.50
   0  28   7   -8.70    8.40
   0 -28   7   -9.80    7.50
   0  28   8   -4.40    9.00
   0 -28   8   11.50    7.70
   0 -29   0   14.70   10.40
   0  29   1   19.10   10.00
   0 -29  -1   13.70   10.00
   0 -29   1   20.60    9.00
   0  29   2    8.10    8.90
   0 -29   2   35.90   10.30
   0 -29  -2   16.00   10.00
   0  29   3   -6.50    9.50
   0 -29   3    0.50    8.60
   0 -29  -3   -4.40    9.50
   0  29   4   15.70    9.70
   0 -29   4  -14.30    8.20
   0  29   5   -8.80    9.30
   0 -29   5    7.90    8.70
   0  29   6  -12.70    8.90
   0 -29   6  -17.70    8.10
   0  29   7    2.60    9.70
   0 -29   7   -9.60    8.20
   0  29   8   10.60    9.80
   0 -29   8    2.10    8.20
   0 -30   0   -3.50    9.50
   0  30   1    4.50    8.50
   0 -30  -1   11.70   10.70
   0 -30   1   -5.10    8.30
   0  30   2  -20.80    8.90
   0 -30   2   -2.50    9.10
   0 -30  -2  -20.50    8.80
   0  30   3   48.70   12.00
   0 -30   3   30.20   10.40
   0 -30  -3   66.39   12.80
   0  30   4   17.80   10.00
   0 -30   4    6.80    9.00
   0  30   5   -5.50    9.40
   0 -30   5    6.30    9.10
   0  30   6   -9.00    9.40
   0 -30   6   -2.90    9.20
   0  30   7    7.60   10.40
   0 -30   7    7.20    8.80
   0 -31   0   -9.30    8.50
   0  31   1   21.40   10.70
   0 -31   1    5.70   10.00
   0 -31  -1   -4.40    8.60
   0  31   2   25.60   11.00
   0 -31   2   25.20   10.80
   0 -31  -2   31.30   11.80
   0  31   3  -17.70    9.40
   0 -31  -3   -9.10    8.60
   0 -31   3  -14.00    8.50
   0  31   4   -7.20    9.50
   0 -31   4   11.70    9.80
   0  31   5    1.90    9.30
   0 -31   5  -16.40    8.50
   0  31   6   -1.80    9.80
   0 -31   6    9.40    9.80
   0  31   7   -6.90    9.90
   0 -31   7  -14.30    8.00
   0 -32   0   15.10   10.70
   0  32   1   14.30   10.30
   0 -32   1  -14.60    9.80
   0 -32  -1    8.90   10.80
   0  32   2   10.10   10.30
   0 -32  -2   26.70   11.30
   0 -32   2    9.60   10.40
   0  32   3   -1.50    9.60
   0 -32  -3    7.50   12.80
   0 -32   3    0.50   10.00
   0  32   4   -1.10    9.80
   0 -32   4   12.40   10.20
   0  32   5   17.00    9.70
   0 -32   5    2.90    9.60
   0  32   6  -13.90   10.00
   0 -32   6   26.90   10.20
   0 -33   0    9.90   10.60
   0  33   1   22.50   13.80
   0 -33   1    3.10   10.30
   0 -33  -1   29.30   12.10
   0  33   2   -5.50   10.50
   0 -33  -2   -3.40   10.60
   0 -33   2   -1.30   10.20
   0  33   3    6.50   10.30
   0 -33   3  -13.80    9.10
   0  33   4  -13.00    9.60
   0 -33   4   -6.10    9.70
   0  33   5   -7.90    9.50
   0 -33   5   16.00   10.40
   0  33   6   -7.20   10.20
   0 -33   6  -10.20    8.70
   0 -34   0   16.90   11.80
   0 -34   1   14.00   11.00
   0 -34  -1  -10.60    9.30
   0  34   2  -17.80    9.90
   0 -34  -2    0.90   11.20
   0 -34   2    3.00   10.40
   0  34   3   18.10   11.70
   0 -34   3  -15.20    9.00
   0  34   4   -9.40   10.40
   0 -34   4    0.00   10.10
   0  34   5   18.00   11.10
   0 -34   5    8.70   10.20
   0 -35   0   -8.80   10.30
   0 -35   1  -12.70   10.30
   0 -35  -1   24.00   12.30
   0  35   2   -0.90   11.00
   0 -35   2  -10.30    9.60
   0 -35  -2   11.30   11.80
   0  35   3   -2.70   10.20
   0 -35   3   29.80   11.60
   0  35   4    5.40   11.10
   0 -35   4   -5.00    9.60
   0 -36   0  -10.30   10.10
   0 -36   1    1.70   11.10
   0 -36  -1    0.20   12.00
   0  36   2   -4.30   10.60
   0 -36   2  -24.60    9.60
   0 -36  -2    4.30   12.40
   0  36   3   12.20   11.30
   0 -36   3   22.70   11.40
   0 -37   0   -6.60   11.60
  -1   0  13   -1.40   11.60
   1   0 -13    3.70    5.20
  -1   0  12   13.40   11.30
   1   0 -12   10.10    5.10
   1   0 -11    3.50    4.00
  -1   0  11  -13.80    8.90
   1   0 -10   -6.90    3.30
  -1   0  10   -7.60    8.50
  -1   0   9   -2.40    8.10
  -1   0   8  135.19   12.50
  -1   0   8  123.09    9.40
  -1   0   7   -7.50    5.00
  -1   0   7    5.60    6.60
   1   0  -7   -4.20    5.90
  -1   0   6  224.58   10.10
  -1   0   6  227.18   11.60
   1   0  -6  195.48   10.70
   1   0  -5    6.10    5.10
   1   0  -5    0.40    4.30
   1   0  -5    5.30    4.50
  -1   0   5   -2.60    5.50
  -1   0   5    7.30    4.20
  -1   0   5    3.80    3.80
  -1   0   4  127.99    7.00
  -1   0   4  131.79    6.20
   1   0  -4  138.19    6.70
   1   0  -4  151.78    8.80
   1   0  -4  125.09    7.80
   1   0  -4  118.79    6.70
  -1   0   3   -4.20    3.60
   1   0  -3   -0.90    3.20
   1   0  -3   -1.90    2.80
  -1   0   3    6.00    3.10
  -1   0   3    0.10    2.70
   1   0  -3   -2.40    3.60
  -1   0   2  730.23   13.80
   1   0  -2  734.53   13.80
  -1   0   2  719.03   14.80
   1   0  -2  734.93   13.40
   1   0  -2  737.43   15.10
  -1   0   2  740.73   13.50
  -1   0   1   -0.50    0.80
   1   0  -1    0.10    1.80
  -1   0   1    0.20    1.70
   1   0  -1   -0.50    0.90
  -1   0   0    2.60    1.30
   1   0   0   -4.60    1.10
  -1   0  -1   -3.60    2.60
  -1   0  -1    0.20    2.40
   1   0   1   -2.40    2.40
   1   0   2  333.67    9.90
  -1   0  -2  342.57    9.70
   1   0   2  338.97    9.80
  -1   0  -2  341.57    9.70
  -1   0  -3    5.80    4.20
  -1   0  -3    6.10    4.10
   1   0   3   -3.30    3.80
   1   0   3   -0.20    4.30
   1   0   4   83.79    5.50
   1   0   4   87.39    6.60
  -1   0  -4   80.69    5.70
   1   0   4   74.09    6.60
  -1   0  -4   83.49    7.30
   1   0   5    1.40    4.90
  -1   0  -5   -0.80    4.00
   1   0   5   -4.60    5.20
   1   0   5   -0.20    3.10
  -1   0  -5   -2.40    5.00
   1   0   6  347.97   14.10
   1   0   6  343.67   14.40
   1   0   6  333.47    9.90
  -1   0  -6  334.17   14.70
  -1   0  -6  345.57   12.50
   1   0   7   -7.70    6.50
   1   0   7    1.00    6.10
   1   0   7   -0.90    3.70
  -1   0  -7   -0.30    3.30
   1   0   8  366.06   16.80
  -1   0  -8  362.56   11.10
   1   0   8  377.16   11.10
   1   0   8  398.06   17.20
   1   0   9    5.60    8.00
   1   0   9    2.60    7.60
  -1   0  -9    3.00    4.40
   1   0   9    3.00    5.60
   1   0  10    0.80    9.20
  -1   0 -10   12.40    5.10
   1   0  11   12.50   10.10
  -1   0 -11   -3.70    5.20
   1   0  12   -0.50   10.80
  -1   0 -12   14.80    6.50
  -1   1  13    4.30   11.50
   1   1 -13   -6.70    5.10
   1  -1 -13    7.20    5.50
  -1  -1  13   -0.60   11.40
   1   1 -12    5.90    4.70
  -1   1  12    5.50   10.60
   1  -1 -12    9.00    5.30
  -1  -1  12   15.80   11.00
   1   1 -11    3.10    4.10
  -1   1  11    3.90    9.80
   1  -1 -11    5.70    4.40
  -1  -1  11    3.80    8.80
  -1   1  10   12.20    9.80
   1  -1 -10   10.80    3.90
  -1  -1  10    8.20    8.30
  -1   1   9   16.60    9.10
  -1  -1   9    7.10    8.00
   1  -1  -9   18.10    3.40
  -1   1   8   -2.30    7.50
  -1   1   8    8.60    6.40
  -1  -1   8    4.80    7.40
  -1  -1   8    1.90    5.70
   1   1  -7   30.20    7.20
  -1   1   7   38.50    8.00
  -1   1   7   31.10    6.50
  -1  -1   7   33.50    8.20
   1  -1  -7   20.00    6.70
  -1  -1   7   44.50    6.40
  -1   1   6    7.90    6.20
   1   1  -6   -0.30    5.30
  -1   1   6    8.10    2.00
  -1   1   6    9.00    5.00
  -1  -1   6   -1.90    4.30
  -1  -1   6  -11.10    5.80
   1  -1  -6   13.60    5.70
  -1  -1   6    6.70    4.40
   1   1  -5  890.81   19.60
  -1   1   5  888.11   20.10
  -1   1   5  909.81   21.90
   1   1  -5  888.61   20.80
   1   1  -5  898.51   22.00
   1  -1  -5  891.31   22.20
   1  -1  -5  905.01   21.20
  -1  -1   5  895.51   19.50
  -1  -1   5  916.01   22.10
  -1  -1   5  922.01   19.80
   1  -1  -5  877.21   19.00
  -1   1   4   81.19    6.50
   1   1  -4   84.69    6.00
   1   1  -4   74.69    6.40
   1   1  -4   85.29    6.00
   1   1  -4   79.89    5.80
  -1  -1   4   83.29    6.20
  -1  -1   4   81.29    6.00
   1  -1  -4   93.29    7.10
   1  -1  -4   81.49    5.70
   1  -1  -4   70.39    5.50
   1  -1  -4   82.79    6.40
  -1  -1   4   98.19    7.10
  -1   1   3  794.12   16.20
  -1   1   3  772.52   15.00
   1   1  -3  780.72   17.00
   1   1  -3  796.12   15.70
   1   1  -3  769.22   15.50
   1  -1  -3  779.12   17.20
  -1  -1   3  765.92   15.70
   1  -1  -3  788.62   15.20
  -1  -1   3  789.72   17.10
  -1  -1   3  775.82   15.50
   1  -1  -3  783.82   16.20
   1   1  -2   -0.20    2.00
  -1   1   2    2.10    2.60
   1   1  -2    1.10    2.20
   1   1  -2    3.30    3.20
  -1   1   2    1.70    1.60
  -1  -1   2    1.10    1.90
   1  -1  -2    3.90    3.20
  -1  -1   2    2.30    2.30
  -1  -1   2    7.30    3.10
   1  -1  -2    4.20    2.60
   1  -1  -2    0.40    1.70
   1   1  -1  814.22   14.50
   1   1  -1  829.22   15.20
  -1   1   1  811.32   15.10
  -1  -1   1  822.92   15.10
   1  -1  -1  810.22   15.00
  -1  -1   1  828.72   14.50
   1  -1   0  587.14   12.20
  -1  -1   0  772.12   12.50
   1   1   1  288.57    7.40
  -1   1  -1  290.67    7.50
  -1   1  -1  289.77    7.40
   1  -1   1  280.77    7.60
   1  -1   1  282.17    7.60
  -1  -1  -1  292.77    7.60
   1   1   2  142.89    7.20
  -1   1  -2  139.59    6.90
  -1   1  -2  132.49    6.90
   1   1   2  139.29    6.50
  -1   1  -2  144.99    5.20
   1  -1   2  143.49    7.00
   1  -1   2  138.89    6.90
  -1  -1  -2  142.09    4.70
  -1  -1  -2  152.28    6.10
  -1  -1  -2  132.89    7.00
   1  -1   2  141.39    6.50
   1   1   3  274.07   10.10
   1   1   3  298.67   10.30
  -1   1  -3  271.67    8.40
  -1   1  -3  289.67    9.80
  -1   1  -3  298.07   10.70
  -1  -1  -3  283.27   10.00
   1  -1   3  286.57   10.10
   1  -1   3  283.37   10.00
  -1  -1  -3  289.97    7.10
  -1  -1  -3  295.67    9.70
   1  -1   3  283.67   10.20
   1   1   4   -2.40    4.60
   1   1   4   -3.60    4.50
  -1   1  -4    1.60    3.50
  -1   1  -4    3.70    5.00
   1   1   4   -5.80    3.00
  -1  -1  -4   -2.60    5.00
   1  -1   4    4.20    4.70
   1  -1   4    4.60    3.20
   1  -1   4    3.70    4.80
   1  -1   4    0.00    4.30
  -1   1  -5   15.40    4.40
  -1   1  -5   11.90    5.80
   1   1   5   16.40    3.70
   1   1   5   18.20    5.60
   1   1   5   14.60    5.20
   1  -1   5   12.60    3.50
  -1  -1  -5   15.00    5.60
  -1  -1  -5   15.70    2.80
  -1  -1  -5   16.80    4.60
   1  -1   5   16.50    5.60
   1   1   6   81.59    5.60
  -1   1  -6   79.09    6.90
   1   1   6   83.29    8.30
  -1   1  -6   64.19    8.10
   1   1   6   75.99    8.40
  -1  -1  -6   80.49    5.30
   1  -1   6   76.89    5.70
   1  -1   6   79.09    8.50
   1  -1   6   90.19    8.10
  -1  -1  -6   80.29    7.10
   1   1   7   47.10    8.00
   1   1   7   61.89    8.50
   1   1   7   49.40    5.30
   1  -1   7   60.49    5.20
   1  -1   7   54.39    8.30
   1  -1   7   70.49    8.70
  -1  -1  -7   55.29    4.70
   1   1   8   15.20    7.70
   1   1   8   -4.00    7.70
   1   1   8    4.00    4.30
   1  -1   8   21.70    7.80
   1  -1   8   10.70    4.00
  -1  -1  -8   17.00    4.30
   1  -1   8    8.00    8.20
  -1   1  -9    0.00    4.20
   1   1   9    1.00    8.20
   1   1   9    1.90    7.90
   1   1   9   -1.20    4.10
   1  -1   9   -5.80    8.80
   1  -1   9    2.90    7.70
  -1  -1  -9   -0.90    4.20
   1   1  10   17.70   10.30
  -1   1 -10    8.70    4.90
   1  -1  10   14.40    9.40
  -1  -1 -10   22.40    5.40
  -1   1 -11    4.40    5.20
   1   1  11   14.60   10.40
   1  -1  11    0.30    9.80
  -1  -1 -11    0.00    5.60
   1   1  12    1.70   10.00
  -1   1 -12    2.90    5.90
   1  -1  12   -0.10   10.30
  -1  -1 -12    2.00    6.10
  -1   2  13   17.50   12.60
   1   2 -13    7.40    5.20
   1  -2 -13    6.90    5.40
  -1  -2  13    0.50   11.10
   1   2 -12   -8.60    4.20
  -1   2  12   21.20   11.10
  -1  -2  12    0.60   11.00
   1  -2 -12   -2.20    4.70
  -1   2  11   23.50   11.00
   1   2 -11   -6.10    3.70
   1  -2 -11   -2.60    4.50
  -1  -2  11    9.50   10.10
  -1   2  10    4.90    9.10
   1  -2 -10   -5.80    3.60
  -1  -2  10   20.90    9.00
  -1   2   9   33.60    9.50
  -1  -2   9   49.00   10.30
   1  -2  -9   38.10    4.20
  -1   2   8    6.60    6.50
  -1   2   8   -1.30    6.70
  -1  -2   8   10.50    7.50
  -1  -2   8    5.00    5.70
   1  -2  -8   -2.40    2.60
   1   2  -7   83.19    8.70
  -1   2   7  111.09    8.80
  -1   2   7  105.79   10.30
  -1   2   7   93.59    4.30
  -1  -2   7  102.49   10.30
  -1  -2   7   94.59    7.70
   1  -2  -7   98.59    9.50
  -1  -2   7   96.89    7.80
   1  -2  -7   98.89    4.20
  -1   2   6    1.30    5.90
   1   2  -6    3.70    5.60
   1   2  -6    1.60    5.60
  -1   2   6    7.60    4.90
  -1   2   6    5.80    2.40
  -1  -2   6    4.60    4.60
   1  -2  -6   -6.20    5.00
  -1  -2   6    3.80    4.30
   1   2  -5  236.98   11.30
  -1   2   5  247.08    7.10
   1   2  -5  255.17    9.00
   1   2  -5  245.38   10.10
  -1   2   5  246.88   11.40
  -1   2   5  258.17    9.80
   1  -2  -5  240.98   11.40
  -1  -2   5  235.48    9.50
   1  -2  -5  260.07   10.80
  -1  -2   5  261.77    9.00
   1  -2  -5  252.07    8.70
  -1  -2   5  228.88   10.00
   1   2  -4   43.00    5.00
   1   2  -4   60.89    4.90
   1   2  -4   49.40    4.40
  -1   2   4   55.09    5.30
   1   2  -4   59.69    6.20
  -1  -2   4   50.09    4.70
  -1  -2   4   56.69    4.60
   1  -2  -4   49.99    4.10
   1  -2  -4   52.89    5.20
  -1  -2   4   48.90    5.30
   1  -2  -4   48.90    5.70
   1  -2  -4   44.00    5.10
  -1   2   3   37.20    4.40
   1   2  -3   37.00    4.00
   1   2  -3   33.80    4.30
   1   2  -3   31.90    3.40
   1  -2  -3   41.80    5.10
   1  -2  -3   31.60    4.70
   1  -2  -3   30.50    3.10
  -1  -2   3   43.00    4.70
   1  -2  -3   39.50    4.30
  -1  -2   3   37.00    3.40
  -1  -2   3   37.70    3.90
   1   2  -2  967.50   18.80
   1   2  -2  969.40   18.10
  -1   2   2  976.90   18.50
   1   2  -2  968.20   16.90
  -1  -2   2  976.50   18.90
   1  -2  -2  942.91   16.80
  -1  -2   2  962.10   16.90
   1  -2  -2  970.50   19.10
  -1  -2   2  973.90   18.20
   1   2  -1  150.98    4.60
  -1   2   1  131.59    3.10
   1   2  -1  142.29    4.90
   1  -2  -1  149.19    3.20
  -1  -2   1  155.58    4.50
  -1  -2   1  149.39    4.60
   1   2   0    1.00    1.60
   1   2   0   -0.30    1.60
  -1   2   0    1.80    1.60
  -1  -2   0    2.80    1.60
   1  -2   0   -0.50    1.60
  -1  -2   0    2.40    1.70
  -1   2  -1   19.00    2.90
  -1   2  -1   20.90    3.10
  -1   2  -1   19.50    1.40
   1   2   1   24.60    3.40
  -1  -2  -1   28.10    3.30
   1  -2   1   19.60    3.40
  -1  -2  -1   20.10    3.00
   1   2   2  541.65   13.00
  -1   2  -2  545.95   11.00
  -1   2  -2  548.45   13.10
  -1   2  -2  536.15   12.70
   1   2   2  551.74   13.40
   1  -2   2  540.35   13.20
   1  -2   2  552.84   12.90
  -1  -2  -2  524.95   12.80
  -1  -2  -2  546.35   10.90
   1  -2   2  534.85   12.90
  -1   2  -3  682.33   14.60
  -1   2  -3  683.93   16.60
  -1   2  -3  687.63   16.10
   1   2   3  695.03   16.60
   1   2   3  677.53   16.30
   1  -2   3  686.13   16.10
  -1  -2  -3  692.73   15.90
   1  -2   3  683.03   16.50
  -1  -2  -3  695.03   13.60
   1  -2   3  683.23   16.40
  -1  -2  -3  690.43   16.80
  -1   2  -4  155.38    9.50
   1   2   4  178.38    9.40
   1   2   4  168.48    9.10
  -1   2  -4  156.88    7.40
   1   2   4  173.18    7.00
   1  -2   4  181.68    9.20
  -1  -2  -4  172.18    5.90
   1  -2   4  163.58    6.50
   1  -2   4  156.48    8.90
   1  -2   4  164.98    9.30
   1   2   5   21.80    6.10
   1   2   5   24.20    3.90
   1   2   5   20.20    5.80
  -1   2  -5   25.70    4.50
  -1   2  -5   29.70    6.30
  -1  -2  -5   16.40    3.10
   1  -2   5   21.00    5.50
   1  -2   5   15.90    5.50
   1  -2   5   25.20    3.70
   1   2   6    8.70    6.20
   1   2   6    9.40    6.00
   1   2   6    0.20    3.70
  -1   2  -6   -0.10    6.00
  -1   2  -6   12.70    4.60
   1  -2   6   -0.80    5.60
  -1  -2  -6    2.20    3.10
   1  -2   6    6.90    3.60
   1   2   7    6.90    7.00
   1   2   7   -2.20    6.40
   1   2   7    6.70    4.10
   1  -2   7    4.20    3.50
   1  -2   7   -5.30    6.00
   1  -2   7    2.10    6.10
  -1  -2  -7    2.20    3.50
   1   2   8   52.99    5.60
   1   2   8   52.89    9.10
   1   2   8   49.40    9.40
   1  -2   8   58.69    8.90
   1  -2   8   46.50    4.80
  -1  -2  -8   48.70    5.30
   1  -2   8   48.70   10.00
   1   2   9   52.49   10.40
   1   2   9   33.40    5.20
  -1   2  -9   48.10    5.30
   1   2   9   33.90    9.30
  -1  -2  -9   33.40    5.50
   1  -2   9   26.60   12.50
   1  -2   9   19.20    9.60
  -1   2 -10    6.30    4.80
   1   2  10   22.90    9.80
  -1  -2 -10    8.70    5.30
   1  -2  10   16.60   10.20
   1   2  11    6.30    9.90
  -1   2 -11    3.80    5.20
   1  -2  11   17.80   10.80
  -1  -2 -11    4.40    5.50
   1   2  12   20.80   10.80
  -1   2 -12   -0.40    5.60
  -1  -2 -12   -8.30    5.50
   1  -2  12   10.30   11.40
   1   3 -13    2.50    5.10
  -1   3  13   14.00   12.10
   1  -3 -13   -5.50    5.40
  -1  -3  13   -0.10   10.30
   1   3 -12   -3.00    4.30
  -1   3  12   -3.00   10.80
  -1  -3  12   -1.90   11.30
   1  -3 -12   -9.30    4.60
  -1   3  11   -9.20    9.30
  -1  -3  11   -8.10    9.70
   1  -3 -11   12.00    4.50
  -1   3  10    0.10    9.20
  -1  -3  10   -2.30    8.30
   1  -3 -10   15.90    4.40
  -1   3   9   16.40    8.20
  -1   3   9   17.40    7.40
   1  -3  -9   11.00    3.80
  -1  -3   9    7.20    8.10
  -1   3   8   12.10    4.10
  -1   3   8    8.20    6.50
  -1   3   8    8.60    8.50
  -1  -3   8   20.10    7.80
   1  -3  -8    9.50    3.10
  -1  -3   8   12.70    6.20
  -1   3   7   45.70    8.60
  -1   3   7   51.59    7.40
  -1   3   7   52.99    3.90
   1   3  -7   54.79    8.20
  -1  -3   7   57.19    8.10
   1  -3  -7   45.70    3.40
   1  -3  -7   52.59    8.10
  -1  -3   7   40.70    6.50
  -1  -3   7   51.69    6.40
  -1   3   6   21.30    6.80
  -1   3   6   21.50    3.10
   1   3  -6   23.00    6.10
  -1   3   6   32.00    5.90
   1   3  -6   11.20    5.20
  -1  -3   6   24.60    4.80
  -1  -3   6   16.60    5.00
   1  -3  -6   19.40    2.30
   1  -3  -6   13.00    6.00
   1   3  -5  204.28   10.50
   1   3  -5  211.08    9.30
  -1   3   5  199.58    9.90
   1   3  -5  204.48    8.20
  -1   3   5  187.98    9.20
  -1   3   5  196.18    6.20
   1  -3  -5  189.38   10.50
   1  -3  -5  191.28   10.00
  -1  -3   5  216.38    9.30
   1  -3  -5  192.38    7.70
  -1  -3   5  198.68    8.20
   1  -3  -5  187.48    4.70
  -1  -3   5  196.98    9.40
  -1   3   4  256.57    9.70
  -1   3   4  233.58   10.40
   1   3  -4  246.98    7.80
   1   3  -4  250.77    9.40
   1   3  -4  236.78    9.00
   1   3  -4  243.48   10.20
   1  -3  -4  248.78   10.10
  -1  -3   4  256.27    9.50
   1  -3  -4  233.08    5.10
   1  -3  -4  247.68    9.60
   1  -3  -4  239.08    7.50
  -1  -3   4  231.18    7.80
  -1  -3   4  255.07    9.20
   1  -3  -4  253.67   10.30
   1   3  -3   -0.80    2.60
   1   3  -3   -0.60    3.30
   1   3  -3    2.50    3.70
  -1   3   3    1.30    3.90
   1  -3  -3   -1.00    1.40
  -1  -3   3    5.90    3.80
   1  -3  -3    0.90    4.00
  -1  -3   3    5.90    2.70
   1  -3  -3   -0.30    2.50
   1  -3  -3   -1.80    3.70
  -1  -3   3   -1.90    3.40
  -1   3   2   -0.60    3.30
   1   3  -2    2.80    1.70
   1   3  -2    8.50    3.30
   1   3  -2    1.10    3.10
  -1  -3   2    1.80    3.20
   1  -3  -2    1.40    1.80
   1  -3  -2    2.90    1.70
  -1  -3   2    7.30    3.00
  -1   3   1  279.77    5.90
   1   3  -1  287.67    7.30
  -1  -3   1  281.97    7.20
   1  -3  -1  282.87    6.00
   1   3   0   14.10    2.30
  -1   3   0   12.90    2.30
   1   3   0   19.70    2.60
  -1  -3   0   16.60    2.60
   1  -3   0   18.30    2.50
  -1  -3   0   14.80    2.20
   1   3   1  222.58    7.30
   1   3   1  217.78    6.80
  -1   3  -1  206.78    7.20
   1  -3   1  220.28    7.40
  -1  -3  -1  217.78    7.00
   1  -3   1  208.48    4.60
  -1  -3  -1  213.28    7.10
   1   3   2   43.50    4.60
  -1   3  -2   42.40    3.10
  -1   3  -2   41.90    4.40
  -1   3  -2   50.49    5.00
   1   3   2   28.00    4.30
  -1  -3  -2   38.50    4.60
   1  -3   2   47.40    4.60
   1  -3   2   24.70    4.20
  -1  -3  -2   42.30    3.10
  -1  -3  -2   38.50    4.50
   1  -3   2   41.10    3.00
  -1   3  -3  486.85   13.50
  -1   3  -3  496.15   11.30
   1   3   3  508.55   13.80
  -1   3  -3  481.55   12.80
   1   3   3  480.05   13.30
  -1  -3  -3  489.85   10.80
   1  -3   3  491.65   13.30
   1  -3   3  477.65   12.90
   1  -3   3  493.35   13.70
   1   3   4   13.80    3.80
  -1   3  -4   19.50    5.30
   1   3   4   22.20    5.80
  -1   3  -4   10.70    3.60
   1   3   4   17.70    4.80
   1   3   4   18.30    5.30
   1  -3   4   15.10    4.90
  -1  -3  -4   10.50    2.80
   1  -3   4   23.60    5.00
   1  -3   4    8.00    4.80
   1  -3   4   19.40    3.60
   1   3   5  103.89    8.60
   1   3   5  112.29    8.50
  -1   3  -5   90.39    8.10
   1   3   5  111.79    6.40
  -1   3  -5  112.89    7.40
  -1  -3  -5  106.39    5.50
   1  -3   5   99.29    7.70
   1  -3   5  107.39    5.70
   1  -3   5  103.79    7.80
   1  -3   5  107.09    5.90
   1   3   6   49.00    7.10
   1   3   6   42.70    7.60
  -1   3  -6   38.20    5.50
  -1   3  -6   28.00    6.90
   1   3   6   38.20    4.80
  -1  -3  -6   30.50    3.90
   1  -3   6   45.20    7.00
   1  -3   6   41.80    6.80
   1  -3   6   36.30    4.20
  -1   3  -7   65.79    9.10
   1   3   7   68.89    9.40
   1   3   7   63.79    5.80
   1   3   7   58.49    8.80
  -1  -3  -7   68.99    5.40
   1  -3   7   68.19    8.30
   1  -3   7   59.19    5.10
   1   3   8    0.20    4.10
   1   3   8    1.50    7.90
   1   3   8    8.60    7.60
   1  -3   8    8.60    3.70
   1  -3   8   -6.30    6.50
   1  -3   8   -3.20    8.00
  -1  -3  -8   -1.80    4.10
   1   3   9   22.70    9.30
   1   3   9   29.00    5.30
   1   3   9   38.00    9.10
  -1  -3  -9   28.20    5.50
   1  -3   9   29.90   10.10
   1   3  10    4.30    9.10
  -1   3 -10   10.30    4.80
   1  -3  10   -2.90    9.40
  -1  -3 -10    0.80    5.20
  -1   3 -11    3.40    5.10
   1   3  11    9.60   10.20
   1  -3  11    4.90    9.90
  -1  -3 -11   10.60    5.70
   1   3  12   11.30   11.40
  -1   3 -12    2.60    5.70
  -1  -3 -12    1.10    5.90
   1  -3  12    0.60   10.30
  -1   4  13    6.40   10.60
   1   4 -13    3.70    5.20
   1  -4 -13    0.20    5.70
  -1  -4  13    2.00   10.80
   1   4 -12    0.70    4.40
  -1   4  12   25.30   11.50
   1  -4 -12    5.70    5.30
  -1  -4  12    3.60   10.00
  -1   4  11    2.60   10.20
   1  -4 -11    3.10    4.70
  -1  -4  11    5.80    9.30
  -1   4  10   -5.40    8.90
   1  -4 -10    8.90    4.20
  -1  -4  10  -12.70    7.80
  -1   4   9   -1.10    7.50
  -1   4   9   -0.10    7.20
  -1  -4   9   -4.20    8.00
   1  -4  -9    0.10    3.60
  -1   4   8   51.19    8.90
  -1   4   8   78.79    9.30
  -1   4   8   58.59    4.20
  -1  -4   8   49.80    9.90
  -1  -4   8   44.10    7.60
   1  -4  -8   50.59    4.50
   1   4  -7   62.49    8.20
  -1   4   7   69.29    4.60
  -1   4   7   80.69    9.50
  -1   4   7   74.79    8.00
   1  -4  -7   71.89    8.90
  -1  -4   7   86.79    7.20
   1  -4  -7   71.49    4.90
  -1  -4   7   71.49    7.60
   1   4  -6  378.96   13.70
   1   4  -6  370.86   14.50
  -1   4   6  382.16    9.50
  -1   4   6  393.06   14.90
  -1   4   6  361.96   13.40
   1  -4  -6  375.06    8.80
  -1  -4   6  366.96   11.50
   1  -4  -6  382.96   14.80
  -1  -4   6  374.66   13.10
  -1  -4   6  371.46   13.20
   1   4  -5    1.70    3.60
   1   4  -5   -2.30    4.60
  -1   4   5    2.50    4.60
  -1   4   5    0.30    2.80
  -1   4   5    3.80    4.80
   1   4  -5    1.40    4.00
   1  -4  -5   -1.20    2.00
  -1  -4   5   -0.80    4.40
   1  -4  -5   -1.30    4.50
   1  -4  -5    1.70    4.80
  -1  -4   5   -1.50    3.40
  -1  -4   5    1.00    4.20
   1  -4  -5   -0.10    3.20
   1   4  -4  144.59    8.60
   1   4  -4  127.39    6.10
  -1   4   4  132.49    7.90
   1   4  -4  133.99    7.90
  -1   4   4  126.19    8.50
   1  -4  -4  127.29    6.00
  -1  -4   4  146.99    6.30
  -1  -4   4  117.89    7.20
   1  -4  -4  123.99    4.30
   1  -4  -4  126.79    6.00
  -1  -4   4  133.29    7.60
   1  -4  -4  130.19    8.50
  -1   4   3  234.18    8.70
   1   4  -3  219.58    8.50
   1   4  -3  236.48    8.50
   1   4  -3  219.78    6.50
  -1  -4   3  231.48    8.80
   1  -4  -3  219.58    5.70
  -1  -4   3  221.38    8.60
   1  -4  -3  218.78    9.10
   1  -4  -3  232.18    6.60
  -1   4   2 1233.78   22.00
   1   4  -2 1288.67   23.90
   1   4  -2 1302.87   24.00
  -1   4   2 1263.77   24.10
  -1  -4   2 1234.08   23.80
  -1  -4   2 1233.48   23.80
   1  -4  -2 1259.47   22.10
   1  -4  -2 1234.88   22.10
   1   4  -1 3770.82   62.99
  -1   4   1 3643.74   61.79
   1  -4  -1 3690.53   61.89
  -1  -4   1 3706.93   62.99
   1   4   0  178.98    6.20
   1   4   0  179.98    5.70
  -1   4   0  184.78    5.80
  -1  -4   0  185.08    5.80
   1  -4   0  172.88    6.00
  -1  -4   0  182.98    6.00
   1   4   1   78.29    4.90
  -1   4  -1   88.19    6.00
   1   4   1   82.89    5.90
   1  -4   1   81.19    6.10
   1  -4   1   78.59    4.70
  -1  -4  -1   84.39    5.70
  -1  -4  -1   87.89    5.90
   1   4   2  857.31   18.80
  -1   4  -2  871.01   16.20
  -1   4  -2  876.21   18.80
   1   4   2  863.51   18.10
  -1   4  -2  848.42   18.00
   1  -4   2  892.41   19.00
   1  -4   2  844.92   17.90
  -1  -4  -2  863.71   18.50
  -1  -4  -2  860.61   16.60
   1  -4   2  861.61   16.10
  -1  -4  -2  857.21   18.10
  -1   4  -3  408.16    9.80
   1   4   3  399.96   12.40
   1   4   3  398.56   11.80
  -1   4  -3  390.36   12.20
  -1   4  -3  379.66   11.30
   1  -4   3  362.76   11.60
   1  -4   3  399.26    9.80
   1  -4   3  385.36   11.60
  -1  -4  -3  380.96    9.30
  -1  -4  -3  379.46   11.50
  -1   4  -4  210.58   10.20
  -1   4  -4  211.38    7.90
   1   4   4  224.98   10.40
   1   4   4  214.38    9.80
   1   4   4  223.78    9.90
   1   4   4  200.88    8.20
   1  -4   4  219.68    9.40
  -1  -4  -4  196.88    7.00
   1  -4   4  218.38   10.40
   1  -4   4  209.78    7.30
   1  -4   4  203.18    9.80
   1   4   5    0.00    5.10
   1   4   5   -3.40    4.30
   1   4   5    1.00    3.70
  -1   4  -5    1.10    5.20
  -1   4  -5    2.30    3.60
   1  -4   5   -4.90    4.40
   1  -4   5   -3.20    5.00
   1  -4   5    4.90    3.20
  -1  -4  -5    7.40    3.10
   1   4   6   54.39    7.70
  -1   4  -6   48.10    5.70
  -1   4  -6   44.80    7.80
   1   4   6   43.40    5.20
   1   4   6   45.10    7.70
   1  -4   6   57.79    7.20
  -1  -4  -6   39.70    4.50
   1  -4   6   50.39    4.60
   1  -4   6   33.50    7.00
   1   4   7   79.39    9.40
  -1   4  -7   71.69    9.30
   1   4   7   85.79    6.50
   1   4   7   95.89    9.90
   1  -4   7  101.29    9.90
   1  -4   7  109.89    9.40
   1  -4   7   79.19    6.00
  -1  -4  -7   94.79    6.20
   1   4   8  180.48   13.90
   1   4   8  164.28    8.80
   1   4   8  153.18   12.40
  -1  -4  -8  179.28    9.10
   1  -4   8  166.38   11.90
   1  -4   8  172.98    7.40
   1   4   9   27.20    5.30
   1   4   9    6.70    8.80
   1   4   9   20.40    8.80
  -1  -4  -9   18.50    5.30
   1  -4   9   15.20    8.40
   1   4  10   30.00   10.00
  -1  -4 -10   17.30    5.60
   1  -4  10   15.00   10.60
   1   4  11    9.30   10.50
  -1   4 -11   -0.50    5.00
   1  -4  11  -14.10   10.00
  -1  -4 -11    2.20    5.70
   1   4  12   11.10   11.40
  -1   4 -12   13.30    6.20
   1  -4  12    5.30   10.70
  -1  -4 -12   10.90    6.40
   1   5 -13   13.50    5.20
  -1   5  13    4.20   12.00
   1  -5 -13   -2.10    5.80
  -1  -5  13   -2.90    9.70
  -1   5  12   -5.80    9.20
  -1  -5  12   -7.20   10.30
   1  -5 -12    0.90    5.30
  -1   5  11   -2.20    9.30
  -1  -5  11    5.90   10.40
   1  -5 -11    7.30    4.90
  -1   5  10    3.60    8.40
  -1  -5  10    9.60   10.00
   1  -5 -10    7.80    4.40
  -1   5   9   22.10    7.80
  -1   5   9   18.90    8.90
  -1  -5   9   23.70    9.20
   1  -5  -9   29.20    4.40
  -1   5   8   12.90    7.10
  -1   5   8   12.40    8.10
  -1   5   8   19.70    3.70
   1  -5  -8   13.80    3.70
  -1  -5   8    9.80    6.50
  -1   5   7  210.98   13.20
  -1   5   7  205.08    7.30
   1   5  -7  200.48   12.60
  -1   5   7  197.08   11.80
  -1  -5   7  198.98   11.90
   1  -5  -7  185.68   12.70
   1  -5  -7  192.48    7.10
   1  -5  -7  223.18    9.90
  -1  -5   7  184.38    9.80
  -1   5   6   60.49    8.10
  -1   5   6   62.09    7.30
  -1   5   6   62.09    4.70
   1   5  -6   55.89    7.30
   1   5  -6   58.29    6.90
  -1  -5   6   57.99    6.50
   1  -5  -6   55.59    5.40
   1  -5  -6   67.79    7.80
  -1  -5   6   63.49    5.80
   1  -5  -6   69.59    4.60
  -1  -5   6   47.80    6.50
   1   5  -5    8.70    3.60
  -1   5   5    9.40    3.20
  -1   5   5   15.90    5.90
  -1   5   5   16.00    5.20
   1   5  -5    9.20    5.20
   1   5  -5   10.80    4.60
  -1  -5   5   19.40    5.10
  -1  -5   5    6.80    4.50
   1  -5  -5    3.90    5.00
   1  -5  -5   13.70    2.50
   1  -5  -5    8.40    3.60
   1  -5  -5   14.40    3.60
  -1   5   4  110.39    5.50
   1   5  -4  114.39    8.50
   1   5  -4  112.79    7.70
  -1   5   4  126.69    8.20
   1   5  -4  122.59    6.00
  -1   5   4  117.19    8.60
  -1  -5   4  121.09    7.80
   1  -5  -4  109.19    4.70
  -1  -5   4  116.39    7.90
   1  -5  -4  116.89    5.80
   1  -5  -4  119.19    8.10
   1   5  -3  140.69    5.40
   1   5  -3  136.29    7.30
  -1   5   3  143.09    7.90
   1   5  -3  161.28    8.10
  -1  -5   3  151.18    7.70
   1  -5  -3  141.79    5.80
   1  -5  -3  142.49    5.30
   1  -5  -3  131.29    7.80
  -1  -5   3  155.98    7.70
   1   5  -2  451.65   11.50
  -1   5   2  435.66    9.50
   1  -5  -2  427.86    9.70
   1  -5  -2  441.16    9.60
  -1  -5   2  444.36   11.10
  -1  -5   2  447.36   11.60
  -1   5   1  134.79    5.20
   1   5  -1  135.09    6.50
  -1  -5   1  124.29    6.60
   1  -5  -1  126.19    5.40
   1   5   0 1561.04   27.90
  -1   5   0 1552.14   28.00
   1   5   0 1539.85   28.30
   1  -5   0 1527.25   28.00
  -1  -5   0 1549.05   28.40
  -1  -5   0 1532.75   27.70
   1   5   1  159.48    7.20
  -1   5  -1  144.79    6.50
   1   5   1  134.29    6.50
  -1  -5  -1  131.59    7.00
   1  -5   1  136.39    7.50
  -1  -5  -1  131.89    6.70
   1  -5   1  144.79    5.40
   1   5   2  119.19    6.60
  -1   5  -2  117.39    8.80
   1   5   2  113.69    6.70
   1   5   2  129.69    8.00
  -1  -5  -2  120.69    7.80
   1  -5   2  115.79    4.90
   1  -5   2  113.59    7.70
  -1  -5  -2  125.89    7.10
   1  -5   2  130.79    6.30
  -1  -5  -2  123.89    5.70
  -1   5  -3   -7.50    3.90
   1   5   3    5.60    4.40
  -1   5  -3    2.20    2.90
  -1   5  -3   -4.50    3.70
   1   5   3    1.10    3.90
   1   5   3    1.10    3.50
   1  -5   3    9.90    4.90
   1  -5   3    6.80    4.00
  -1  -5  -3    1.50    2.80
   1  -5   3    4.90    2.80
  -1  -5  -3    0.60    4.10
  -1   5  -4  107.29    8.40
  -1   5  -4   98.69    6.20
   1   5   4   94.49    7.20
   1   5   4  114.69    8.10
   1   5   4  103.69    7.90
   1   5   4  102.79    6.40
   1  -5   4   99.69    6.30
  -1  -5  -4   86.49    6.60
   1  -5   4   99.39    5.60
  -1  -5  -4   96.29    5.70
   1  -5   4  103.69    7.60
   1  -5   4   80.19    6.80
   1   5   5    5.20    5.40
  -1   5  -5   11.60    5.30
  -1   5  -5    7.60    3.80
   1   5   5    4.60    4.00
   1   5   5    7.50    5.50
  -1  -5  -5    6.20    4.60
   1  -5   5    6.60    5.10
  -1  -5  -5    4.90    3.10
   1  -5   5    3.90    3.20
   1   5   6   26.70    4.80
  -1   5  -6   27.30    5.20
   1   5   6   24.30    6.60
  -1   5  -6   24.80    6.80
   1   5   6   17.30    6.40
  -1  -5  -6   20.30    4.00
   1  -5   6   24.40    4.00
   1  -5   6   14.50    6.30
  -1  -5  -6   35.30    6.30
   1   5   7   26.80    5.30
  -1   5  -7   26.10    8.00
   1   5   7   37.20    8.10
   1   5   7   45.30    8.40
  -1  -5  -7   36.90    4.80
  -1  -5  -7   35.50    7.10
   1  -5   7   29.00    4.40
   1  -5   7   29.20    7.70
   1   5   8   58.29    6.40
   1   5   8   76.69   10.50
   1   5   8   66.39    9.80
   1  -5   8   59.59    9.20
   1  -5   8   67.99    5.30
  -1  -5  -8   76.49    9.20
  -1  -5  -8   63.89    6.00
   1   5   9  118.19   12.30
   1   5   9  128.09   12.90
   1   5   9  115.99    8.40
   1  -5   9  106.39   12.40
  -1  -5  -9  108.79    7.80
   1   5  10   -1.40    9.10
   1  -5  10   -8.70    8.10
  -1  -5 -10    2.80    5.10
  -1   5 -11    0.80    5.10
   1   5  11   13.20   10.40
  -1  -5 -11    0.20    5.60
   1  -5  11   -2.40   10.30
  -1   5 -12   -0.10    5.80
   1   5  12   -2.40   10.00
  -1  -5 -12    9.60    6.60
   1  -5  12   -6.00   11.20
   1   6 -13   -1.80    4.80
  -1   6  13    6.60   11.70
   1  -6 -13   -9.10    5.90
  -1  -6  13   24.60   12.50
  -1   6  12  -20.80    9.40
   1  -6 -12   -8.90    5.50
  -1  -6  12    7.10   11.40
  -1   6  11    3.80    9.60
   1  -6 -11    6.20    5.10
  -1  -6  11    3.30   10.50
  -1   6  10    1.80    9.60
   1  -6 -10    2.40    4.60
  -1  -6  10   -9.50    9.40
  -1   6   9   12.00    9.00
  -1   6   9   22.10    8.00
   1  -6  -9   10.50    4.30
  -1   6   8    5.50    6.60
  -1   6   8    2.20    7.80
  -1   6   8    6.50    3.80
  -1  -6   8   -3.30    6.20
   1  -6  -8    5.20    3.70
  -1   6   7   28.00    6.90
   1   6  -7   11.60    6.80
  -1   6   7   19.80    4.10
  -1   6   7   17.50    7.00
   1  -6  -7   16.70    3.60
  -1  -6   7   29.50    6.50
  -1  -6   7   13.50    5.90
   1  -6  -7   26.80    8.20
   1  -6  -7   15.00    7.00
  -1   6   6    4.20    3.50
  -1   6   6   -4.20    5.60
   1   6  -6    1.00    5.60
   1   6  -6   -1.90    5.20
  -1   6   6   -1.90    6.20
   1  -6  -6    0.40    2.80
   1  -6  -6    1.30    5.70
   1  -6  -6   -2.00    3.80
  -1  -6   6    1.00    4.70
  -1  -6   6    4.10    5.10
  -1   6   5    9.20    5.80
  -1   6   5   15.70    5.40
   1   6  -5   16.00    4.60
   1   6  -5   14.50    5.30
   1   6  -5   11.60    3.60
  -1   6   5   13.10    3.70
  -1  -6   5   17.20    5.00
   1  -6  -5   15.20    3.80
  -1  -6   5   11.40    4.50
   1  -6  -5   17.20    2.90
   1  -6  -5    9.60    5.10
  -1  -6   5   12.40    2.30
   1   6  -4  103.59    7.90
  -1   6   4  133.49    8.70
  -1   6   4  120.89    8.50
  -1   6   4  119.99    6.30
   1   6  -4  121.69    6.00
   1   6  -4  131.49    8.00
  -1  -6   4  118.19    8.20
   1  -6  -4  122.89    8.10
  -1  -6   4  119.49    7.40
   1  -6  -4  109.69    6.00
   1  -6  -4  121.79    5.40
  -1   6   3  205.28    9.20
   1   6  -3  191.88    8.20
   1   6  -3  178.38    6.10
  -1   6   3  183.58    6.40
   1  -6  -3  197.28    8.40
  -1  -6   3  192.38    8.00
  -1  -6   3  189.48    8.70
   1  -6  -3  183.78    6.60
   1  -6  -3  183.38    6.30
   1   6  -2  779.72   16.90
  -1   6   2  751.52   14.90
   1  -6  -2  751.42   15.10
   1  -6  -2  747.63   14.90
   1  -6  -2  750.52   15.50
  -1  -6   2  742.23   17.00
  -1  -6   2  730.23   16.30
   1   6  -1 1729.73   32.20
  -1   6   1 1773.02   31.20
  -1  -6   1 1740.83   32.40
   1  -6  -1 1731.13   31.30
   1   6   0 2567.74   44.80
  -1   6   0 2514.35   44.30
   1   6   0 2546.45   44.30
  -1  -6   0 2502.75   44.80
   1  -6   0 2492.45   44.40
  -1   6  -1  348.47   10.40
   1   6   1  359.06   10.50
   1   6   1  365.96   10.10
   1  -6   1  341.97    8.30
  -1  -6  -1  344.67   10.30
   1  -6   1  357.96   10.90
  -1  -6  -1  356.66   10.50
   1   6   2   80.59    5.60
   1   6   2   78.79    6.30
   1   6   2   81.39    6.30
  -1  -6  -2   81.89    5.80
   1  -6   2   76.79    6.30
   1  -6   2   80.89    5.80
  -1  -6  -2   70.89    6.20
   1  -6   2   80.89    4.60
  -1  -6  -2   70.09    4.40
  -1   6  -3  425.96   12.40
   1   6   3  426.06   12.10
  -1   6  -3  423.56   11.90
   1   6   3  392.36   11.20
  -1   6  -3  408.66   10.30
   1   6   3  412.36   13.40
   1  -6   3  421.56   10.20
  -1  -6  -3  418.86   10.50
   1  -6   3  420.96   12.30
   1  -6   3  418.96   10.60
   1  -6   3  415.26   13.30
  -1  -6  -3  400.06   12.00
  -1   6  -4    5.10    3.30
   1   6   4    1.00    3.80
   1   6   4    0.50    4.90
  -1   6  -4   13.50    5.10
   1   6   4    4.90    4.50
   1   6   4    3.40    5.10
   1  -6   4    1.50    3.30
  -1  -6  -4   -0.10    4.40
   1  -6   4   -0.30    5.10
   1  -6   4    4.00    3.30
   1  -6   4   10.40    4.60
  -1  -6  -4    0.80    3.00
  -1   6  -5  116.99    7.20
   1   6   5  124.69    7.60
   1   6   5  129.09    9.50
  -1   6  -5  130.49   10.20
   1   6   5  139.19   10.10
  -1  -6  -5  116.19    6.50
   1  -6   5  124.09    6.50
   1  -6   5  112.89    8.80
  -1  -6  -5  110.19    8.30
  -1   6  -6  122.49    8.10
   1   6   6  119.19    9.80
   1   6   6  155.18   11.10
  -1   6  -6  112.39    9.50
   1   6   6  126.79    7.90
  -1  -6  -6  131.69    7.10
   1  -6   6  137.79   10.60
  -1  -6  -6  150.08    9.70
   1  -6   6  137.49    6.90
   1   6   7   26.70    5.50
   1   6   7   26.70    8.00
   1   6   7   29.60    8.10
  -1   6  -7   29.40    8.20
  -1  -6  -7   34.60    4.80
  -1  -6  -7   36.80    7.10
   1  -6   7   37.60    8.40
   1  -6   7   32.00    4.40
   1   6   8   59.99    9.20
   1   6   8   94.39   10.90
   1   6   8   75.69    6.80
   1  -6   8   77.19   10.10
  -1  -6  -8   75.49    6.50
   1  -6   8   72.29    5.20
   1   6   9   12.00    5.20
   1   6   9   20.50    9.50
   1   6   9   41.70   10.10
  -1  -6  -9   21.80    5.50
   1   6  10   22.30    6.90
   1   6  10   20.10    9.50
  -1  -6 -10   21.30    6.10
   1  -6  10    4.60    9.80
   1   6  11   -0.80    9.70
   1  -6  11   -5.20   10.80
  -1  -6 -11    7.60    6.20
   1   6  12   -3.30   10.10
  -1   6 -12   -7.60    5.50
  -1  -6 -12    5.40    6.80
   1  -6  12   -7.90   11.00
  -1   7  13   -0.70   12.60
  -1  -7  13    7.50   12.50
   1  -7 -13   13.10    6.80
  -1   7  12   -5.70   10.50
  -1  -7  12    3.60   11.20
   1  -7 -12    2.10    5.80
  -1   7  11   -6.50    8.30
   1  -7 -11   -0.90    5.10
  -1  -7  11    6.90    9.40
  -1   7  10    8.40    8.70
   1  -7 -10   -6.00    4.60
  -1  -7  10   17.30    8.80
  -1   7   9   -0.30    8.70
  -1   7   9    7.90    7.60
  -1   7   9   -8.00    3.60
   1  -7  -9    6.10    4.50
  -1   7   8   55.49    5.30
  -1   7   8   45.50    8.10
  -1   7   8   51.09    9.70
   1  -7  -8   61.99    5.40
  -1  -7   8   56.19    8.50
  -1   7   7   15.30    6.90
  -1   7   7   16.70    6.80
   1   7  -7   11.30    6.80
  -1   7   7   16.40    4.30
  -1  -7   7   12.20    5.70
  -1  -7   7   22.40    6.70
   1  -7  -7   17.60    3.90
   1  -7  -7   25.40    7.50
   1   7  -6   60.39    7.50
  -1   7   6   56.99    8.20
  -1   7   6   53.19    5.20
  -1   7   6   62.89    7.80
  -1  -7   6   51.19    7.00
   1  -7  -6   51.99    4.40
  -1  -7   6   49.80    2.90
   1  -7  -6   64.99    7.80
  -1  -7   6   46.70    6.20
   1  -7  -6   51.79    5.40
   1   7  -5   75.49    7.30
  -1   7   5   58.59    7.00
   1   7  -5   76.39    6.60
   1   7  -5   75.09    5.90
  -1   7   5   70.39    7.10
  -1   7   5   68.29    5.40
   1  -7  -5   78.39    5.30
   1  -7  -5   72.29    7.20
  -1  -7   5   61.89    6.60
  -1  -7   5   61.99    6.00
   1  -7  -5   61.59    5.20
  -1  -7   5   71.69    3.70
   1   7  -4  163.48    8.30
  -1   7   4  167.98    9.20
   1   7  -4  173.88    9.20
  -1   7   4  158.58    9.50
  -1   7   4  169.48    7.30
   1   7  -4  163.58    6.60
   1  -7  -4  168.98    6.40
  -1  -7   4  163.28    8.20
   1  -7  -4  162.08    7.00
   1  -7  -4  155.58    8.90
  -1  -7   4  167.88    9.30
  -1  -7   4  158.68    5.60
  -1   7   3  224.98    9.90
  -1   7   3  236.08    7.50
  -1   7   3  230.98    8.30
  -1  -7   3  224.18    9.60
   1  -7  -3  234.08    7.30
   1  -7  -3  224.38    7.60
  -1  -7   3  234.38    8.70
   1  -7  -3  207.18    8.70
  -1   7   2 1707.43   30.70
  -1  -7   2 1717.53   32.70
   1  -7  -2 1699.13   30.60
   1  -7  -2 1700.73   30.70
   1  -7  -2 1691.13   30.80
   1   7  -1 1192.58   23.70
  -1   7   1 1139.19   22.20
   1  -7  -1 1160.18   22.60
  -1  -7   1 1178.38   23.70
  -1   7   0 1224.38   23.70
   1   7   0 1205.08   23.80
   1   7   0 1217.48   23.40
   1  -7   0 1195.18   23.70
  -1  -7   0 1213.68   24.20
   1   7   1  193.68    8.00
   1   7   1  187.48    8.40
  -1   7  -1  204.78    8.60
   1  -7   1  199.28    8.40
   1  -7   1  194.18    6.00
  -1  -7  -1  200.28    8.50
  -1  -7  -1  197.68    8.40
   1   7   2  828.82   18.60
   1   7   2  788.72   17.20
   1  -7   2  796.22   15.70
   1  -7   2  795.62   16.70
  -1  -7  -2  784.12   17.90
   1  -7   2  794.62   18.70
  -1  -7  -2  825.82   16.80
  -1   7  -3   10.80    4.20
   1   7   3    4.90    4.20
   1   7   3   13.00    5.20
  -1   7  -3    7.00    4.70
   1   7   3    7.70    4.00
   1  -7   3   14.60    4.20
   1  -7   3   12.00    3.10
   1  -7   3   14.40    3.80
  -1  -7  -3   15.90    4.80
  -1  -7  -3   15.40    3.50
   1  -7   3    6.10    4.80
   1   7   4   94.49    7.00
  -1   7  -4   77.39    5.90
   1   7   4   95.89    8.20
   1   7   4   83.89    6.40
   1   7   4   92.59    7.40
  -1   7  -4   90.59    7.10
   1  -7   4   78.99    5.80
   1  -7   4   86.29    6.00
   1  -7   4  100.59    8.00
  -1  -7  -4   83.39    6.70
   1  -7   4   84.39    7.80
  -1  -7  -4   86.99    5.40
  -1   7  -5    3.50    5.40
   1   7   5    0.20    4.30
   1   7   5   -6.10    5.10
  -1   7  -5   -0.80    3.60
   1   7   5    1.40    4.90
   1  -7   5   -0.10    3.50
   1  -7   5   -3.80    5.60
  -1  -7  -5   -6.00    3.10
   1  -7   5   -9.50    3.20
  -1  -7  -5   -7.50    4.50
  -1   7  -6   23.30    4.80
   1   7   6   19.10    6.80
   1   7   6   14.70    4.90
   1   7   6   29.30    7.00
  -1   7  -6    8.90    6.30
   1  -7   6    8.30    6.70
  -1  -7  -6   16.40    4.30
   1  -7   6   25.10    4.20
  -1  -7  -6   19.20    5.80
  -1   7  -7  134.99   11.50
   1   7   7  120.39    8.60
   1   7   7  136.99   11.40
   1   7   7  134.59   11.60
   1  -7   7  150.58   11.90
  -1  -7  -7  115.19    9.50
   1  -7   7  138.89    7.00
  -1  -7  -7  125.69    8.20
   1   7   8   -2.20    7.80
   1   7   8    2.40    5.00
   1   7   8   -2.00    7.60
   1  -7   8   -1.50    7.50
   1  -7   8    2.40    3.60
  -1  -7  -8    6.10    4.70
   1   7   9   15.50    5.50
   1   7   9    6.30    8.70
   1  -7   9   12.40    8.60
  -1  -7  -9   13.10    5.40
   1   7  10    3.40    5.10
   1   7  10    9.00    9.90
  -1  -7 -10   11.80    6.00
   1  -7  10   -6.10    8.90
   1   7  11    6.50    9.60
   1  -7  11   -6.00   10.30
  -1  -7 -11    7.30    6.40
   1   7  12    5.70   10.30
  -1   7 -12   -3.10    5.70
   1  -7  12   -0.20   11.50
  -1  -7 -12   -6.50    6.30
  -1   8  13  -13.50   11.50
   1  -8 -13    1.30    6.80
  -1  -8  13   -5.20   12.00
  -1   8  12   14.30   11.80
  -1  -8  12  -18.70   10.30
   1  -8 -12    3.00    6.10
  -1   8  11    6.90   10.00
   1  -8 -11   -0.80    5.40
  -1  -8  11    1.60    8.80
  -1   8  10   15.20   10.40
   1  -8 -10    2.80    5.00
  -1   8   9    5.00    9.00
  -1   8   9   -6.90    7.40
  -1   8   9    0.90    4.10
  -1  -8   9   -1.60   10.20
   1  -8  -9    0.60    4.50
  -1   8   8    3.70    7.10
  -1   8   8    3.40    4.20
  -1   8   8    3.40    8.20
   1  -8  -8   -4.10    3.90
  -1  -8   8   -0.20    5.70
  -1  -8   8    6.70    6.90
  -1   8   7    0.40    7.10
   1   8  -7    2.60    6.40
  -1   8   7    4.40    6.60
  -1   8   7    4.80    4.20
   1  -8  -7    1.90    6.50
   1  -8  -7    0.40    3.80
  -1  -8   7    8.90    6.40
  -1  -8   7    1.20    5.50
  -1   8   6  175.58    8.00
  -1   8   6  172.48   11.40
   1   8  -6  208.38   11.60
  -1   8   6  174.88   11.30
   1  -8  -6  174.78   11.40
  -1  -8   6  187.58    5.50
  -1  -8   6  176.88    9.90
   1  -8  -6  187.28    7.80
  -1  -8   6  194.78   11.50
   1  -8  -6  173.98    8.90
   1   8  -5  120.29    8.70
   1   8  -5  120.69    9.10
  -1   8   5  141.19    9.80
  -1   8   5  130.69    7.10
  -1   8   5  122.19    9.30
   1   8  -5  126.89    6.70
   1  -8  -5  126.09    6.50
  -1  -8   5  119.89    9.70
   1  -8  -5  125.39    9.60
   1  -8  -5  126.59    7.20
  -1  -8   5  128.19    5.00
  -1  -8   5  140.09    8.80
  -1   8   4  127.59    6.90
   1   8  -4  137.79    6.20
  -1   8   4  127.29    9.20
  -1   8   4  128.89    8.60
   1   8  -4  135.89    8.60
   1  -8  -4  132.29    6.90
  -1  -8   4  164.08    9.50
   1  -8  -4  135.29    8.40
  -1  -8   4  123.49    5.50
  -1  -8   4  131.69    8.10
   1  -8  -4  122.89    6.30
  -1   8   3  385.76   11.80
  -1   8   3  385.06   11.20
  -1   8   3  404.16   12.80
  -1   8   3  379.86   10.10
  -1  -8   3  380.16   11.60
  -1  -8   3  388.76   12.60
   1  -8  -3  385.06   10.00
   1  -8  -3  374.26   10.90
  -1  -8   3  389.06    9.70
   1  -8  -3  373.36   10.40
  -1   8   2   -2.30    3.00
   1  -8  -2    3.60    3.10
   1  -8  -2   -1.40    3.30
   1  -8  -2    4.20    3.40
  -1  -8   2   -0.60    4.60
  -1   8   1  946.81   19.20
   1  -8  -1  944.31   16.70
   1  -8  -1  906.31   19.30
  -1  -8   1  963.70   20.70
  -1   8   0  160.58    7.80
   1   8   0  167.78    9.00
   1   8   0  164.18    7.50
   1  -8   0  166.48    8.10
  -1  -8   0  164.78    8.40
   1   8   1  223.88    9.20
   1  -8   1  231.38    9.30
  -1  -8  -1  244.78    9.30
   1  -8   1  226.68    6.40
   1   8   2   62.99    5.70
   1   8   2   42.00    4.40
   1   8   2   36.60    5.30
  -1  -8  -2   41.70    5.20
   1  -8   2   41.70    4.20
   1  -8   2   50.59    6.30
  -1  -8  -2   58.09    4.60
   1  -8   2   53.59    4.90
   1   8   3   -4.30    4.20
   1   8   3    6.20    4.00
  -1   8  -3   -3.90    4.00
   1   8   3   10.30    4.80
   1  -8   3   -2.60    3.60
  -1  -8  -3    6.70    4.40
   1  -8   3   -1.10    5.00
   1  -8   3    5.90    3.00
   1  -8   3    2.70    3.50
  -1  -8  -3   10.30    3.60
   1   8   4   94.59    7.10
   1   8   4  101.19    7.50
   1   8   4  112.09    8.20
  -1   8  -4   99.49    8.00
   1   8   4   79.09    7.40
   1  -8   4   99.79    6.20
  -1  -8  -4  121.19    6.80
   1  -8   4  105.19    6.20
  -1  -8  -4   95.89    7.10
   1  -8   4   87.89    7.70
  -1   8  -5   37.60    6.40
   1   8   5   37.00    7.10
   1   8   5   26.70    6.70
  -1   8  -5   24.00    4.60
   1   8   5   42.90    5.70
   1  -8   5   22.70    4.20
   1  -8   5   32.90    4.60
  -1  -8  -5   28.90    4.40
   1  -8   5   24.20    6.90
  -1  -8  -5   31.60    5.80
   1   8   6   14.20    6.90
   1   8   6   -4.90    4.60
  -1   8  -6   -1.80    6.00
  -1   8  -6   -2.30    4.30
   1   8   6    0.20    5.60
   1  -8   6   -2.80    3.30
  -1  -8  -6    2.40    4.10
  -1  -8  -6   -2.50    5.10
   1  -8   6    4.70    4.10
   1  -8   6   -4.20    6.60
   1   8   7   39.40    6.10
   1   8   7   32.90    8.30
  -1   8  -7   24.40    7.90
   1   8   7   25.50    8.10
   1  -8   7   17.60    4.20
  -1  -8  -7   28.00    5.20
  -1  -8  -7   33.40    7.10
   1  -8   7   19.40    7.60
   1   8   8   -8.20    7.30
   1   8   8   -4.10    7.50
   1   8   8   -4.20    5.10
   1  -8   8    3.30    7.80
   1  -8   8    1.20    3.80
  -1  -8  -8   -6.40    4.70
   1   8   9   29.20    9.60
   1   8   9    3.60    5.30
   1  -8   9   17.40    9.10
  -1  -8  -9   11.50    5.70
   1   8  10    5.70    5.40
   1   8  10    5.30    9.20
  -1  -8 -10   -5.60    5.60
   1   8  11   -6.20    9.70
  -1  -8 -11    7.30    6.50
   1  -8  11  -13.60    9.50
   1   8  12    6.20   11.00
   1  -8  12   13.50   11.90
  -1  -8 -12    7.00    7.20
  -1   9  13  -10.60   11.70
   1  -9 -13    5.80    6.90
  -1  -9  13  -13.50   10.00
  -1   9  12    4.00   11.20
   1  -9 -12    3.10    6.30
  -1  -9  12  -13.40    9.20
  -1   9  11   33.50   11.70
   1  -9 -11   17.20    6.30
  -1  -9  11   10.00    9.40
  -1   9  10  -27.70    8.10
   1  -9 -10    7.40    5.40
  -1   9   9    1.60    4.40
  -1   9   9   12.40    9.70
  -1   9   9   -4.20    7.20
  -1  -9   9   -4.90    7.30
   1  -9  -9    3.50    4.90
  -1   9   8   22.70    5.20
  -1   9   8   30.50    9.40
  -1   9   8   22.90    8.20
  -1  -9   8   14.50    7.30
   1  -9  -8   30.00    5.20
  -1  -9   8   21.10    6.80
  -1   9   7  263.47   14.20
  -1   9   7  237.38    9.90
   1   9  -7  262.67   14.30
  -1   9   7  228.98   14.90
   1  -9  -7  243.38    9.70
  -1  -9   7  254.67   13.70
  -1  -9   7  239.18    8.30
  -1  -9   7  256.57   12.40
   1  -9  -7  228.68   13.70
   1   9  -6   56.39    7.50
  -1   9   6   72.79    6.30
  -1   9   6   75.99    8.30
  -1   9   6   60.89    8.70
   1  -9  -6   64.09    5.50
  -1  -9   6   55.79    6.70
   1  -9  -6   60.09    7.70
  -1  -9   6   65.49    4.30
  -1  -9   6   58.49    7.60
   1  -9  -6   67.19    6.00
   1   9  -5    8.60    5.30
  -1   9   5   18.00    4.50
  -1   9   5   15.00    6.50
   1   9  -5    6.60    3.60
  -1   9   5   21.10    5.90
  -1  -9   5   15.70    3.00
   1  -9  -5   14.70    3.80
  -1  -9   5    7.20    4.30
  -1  -9   5   21.20    5.90
   1  -9  -5   16.90    4.30
   1  -9  -5   16.60    5.50
  -1   9   4  449.56   14.80
  -1   9   4  476.05   12.10
   1   9  -4  466.35   11.60
  -1   9   4  465.75   14.90
  -1   9   4  449.46   12.70
   1   9  -4  476.25   13.90
   1  -9  -4  477.15   13.80
   1  -9  -4  471.25   12.40
  -1  -9   4  476.05   13.40
  -1  -9   4  474.85   11.30
   1  -9  -4  475.85   12.00
  -1  -9   4  473.15   15.10
  -1   9   3  816.42   18.30
  -1   9   3  795.42   17.20
  -1   9   3  832.02   20.10
  -1  -9   3  798.32   18.30
   1  -9  -3  805.92   17.70
   1  -9  -3  783.22   17.30
  -1  -9   3  802.92   16.90
   1  -9  -3  818.72   17.10
  -1  -9   3  813.82   19.80
  -1   9   2    8.50    4.50
  -1   9   2    2.40    3.30
   1  -9  -2    7.50    3.30
   1  -9  -2    8.30    3.80
  -1  -9   2    5.20    3.50
   1  -9  -2    8.80    3.00
  -1  -9   2    4.90    5.00
  -1   9   1  165.38    7.40
   1  -9  -1  158.08    4.50
  -1  -9   1  145.09    8.10
   1  -9  -1  167.78    7.90
   1   9   0  371.76   11.00
  -1  -9   0  366.36   11.80
   1  -9   0  378.16   11.60
   1   9   1   76.09    6.30
  -1  -9  -1   68.59    5.80
   1  -9   1   83.49    6.90
   1   9   2   17.70    5.30
   1   9   2   17.50    3.70
   1   9   2   19.50    4.40
   1  -9   2   23.20    5.70
   1  -9   2   18.40    4.00
  -1  -9  -2   27.70    4.10
  -1  -9  -2   11.00    4.50
   1   9   3    8.90    3.90
   1   9   3    5.00    4.50
  -1   9  -3    4.70    4.10
   1   9   3    4.20    5.30
   1  -9   3    1.30    5.50
   1  -9   3    0.90    3.70
  -1  -9  -3   -1.30    3.50
  -1  -9  -3    1.30    4.40
   1  -9   3    4.20    3.20
   1   9   4   73.89    6.40
   1   9   4   64.29    6.80
   1   9   4   69.09    6.50
  -1   9  -4   66.39    6.50
   1   9   4   58.49    6.90
  -1  -9  -4   57.19    5.00
  -1  -9  -4   67.79    6.60
   1  -9   4   75.79    5.50
   1  -9   4   59.39    4.80
   1  -9   4   65.99    8.00
   1   9   5   15.20    6.00
  -1   9  -5    8.80    5.80
   1   9   5   17.50    5.20
   1   9   5   17.00    6.30
  -1  -9  -5   11.40    4.20
   1  -9   5    7.80    6.40
  -1  -9  -5   14.50    5.40
   1  -9   5   19.90    4.20
   1  -9   5   10.80    3.90
   1   9   6   74.89    8.80
   1   9   6   75.69    7.10
  -1   9  -6   88.69    9.00
   1   9   6   79.59    9.20
   1  -9   6   63.09    9.20
   1  -9   6   87.19    6.80
  -1  -9  -6   77.29    6.40
  -1  -9  -6   80.69    8.00
   1  -9   6   78.09    5.90
  -1   9  -7   11.90    8.30
   1   9   7   16.60    5.70
   1   9   7   22.80    8.20
   1   9   7   -1.10    7.40
  -1  -9  -7    0.90    6.20
  -1  -9  -7    4.40    4.80
   1  -9   7    9.50    4.10
   1  -9   7   -1.70    7.00
   1   9   8   20.80    9.00
   1   9   8   28.70    9.30
   1   9   8   30.40    6.30
  -1  -9  -8   31.90    6.10
   1  -9   8   26.00    8.70
   1  -9   8   28.00    4.60
   1   9   9   23.80    6.20
   1   9   9   31.90   10.40
   1  -9   9    8.20    8.70
  -1  -9  -9   10.80    5.90
   1   9  10   14.50   10.10
   1   9  10    6.80    5.60
  -1  -9 -10    6.90    6.20
   1   9  11    6.00   10.80
   1  -9  11   -0.50    9.20
  -1  -9 -11   -0.40    6.40
   1   9  12   -6.90   10.80
  -1  -9 -12   -9.70    6.60
   1  -9  12   20.70   12.40
  -1  10  12   -7.30   10.70
   1 -10 -12   -7.90    6.40
  -1 -10  12   22.60   12.10
  -1  10  11   -4.40   10.40
   1 -10 -11    5.80    6.20
  -1 -10  11   10.00    9.60
  -1  10  10   -8.60    9.60
   1 -10 -10   -1.10    5.60
  -1  10   9   -5.20    7.90
  -1  10   9    1.60    8.90
  -1  10   9   12.20    5.00
   1 -10  -9   15.20    5.50
  -1 -10   9   13.80    7.80
  -1  10   8    5.30    7.60
  -1  10   8    4.60    7.80
  -1  10   8    5.70    4.90
   1 -10  -8   -0.20    4.90
  -1 -10   8    4.20    7.30
  -1 -10   8    8.20    6.30
  -1  10   7    9.30    7.40
  -1  10   7   -0.40    7.90
  -1  10   7    3.90    4.60
   1  10  -7   15.30    6.80
   1 -10  -7   14.90    7.40
  -1 -10   7    4.10    5.40
  -1 -10   7   19.60    7.50
  -1 -10   7    8.40    2.70
   1 -10  -7    4.80    4.50
  -1  10   6   -0.30    4.40
   1  10  -6   -0.60    5.20
  -1  10   6    2.30    6.90
  -1  10   6  -14.80    5.40
  -1 -10   6   -3.60    4.80
  -1 -10   6    1.30    2.80
   1 -10  -6    4.00    5.80
   1 -10  -6   -3.70    4.30
  -1 -10   6    2.90    6.00
   1 -10  -6    5.10    4.20
   1  10  -5   17.70    3.90
   1  10  -5   27.80    6.00
  -1  10   5   27.30    6.40
  -1  10   5   21.60    4.80
  -1  10   5   28.20    6.30
  -1 -10   5   20.00    3.50
   1 -10  -5   25.10    4.40
  -1 -10   5   20.70    6.50
  -1 -10   5   26.80    5.20
   1 -10  -5   16.30    4.60
   1 -10  -5   22.20    5.70
  -1  10   4  153.78   10.10
  -1  10   4  130.39    8.70
  -1  10   4  114.79    7.80
   1  10  -4  119.69    8.10
   1 -10  -4  128.29    7.10
  -1 -10   4  125.49    7.80
   1 -10  -4  128.79    8.50
  -1 -10   4  124.39    6.20
   1 -10  -4  129.59    7.50
  -1 -10   4  128.19   10.00
  -1  10   3  260.17    8.80
  -1  10   3  266.27   10.90
  -1  10   3  238.98    9.30
  -1 -10   3  267.97    9.90
   1 -10  -3  258.97    9.20
   1 -10  -3  263.27    8.80
   1 -10  -3  245.18    9.20
  -1 -10   3  260.47    8.60
  -1 -10   3  272.17   11.60
  -1  10   2  219.68    8.20
  -1  10   2  215.68    9.20
   1 -10  -2  223.58    9.00
  -1 -10   2  230.58    8.30
  -1 -10   2  225.78   10.70
   1 -10  -2  227.38    7.20
  -1 -10   1  872.01   19.10
  -1 -10   1  888.51   20.60
   1 -10  -1  873.81   19.40
   1  10   0  320.47   10.60
   1 -10   0  332.17   10.80
  -1 -10   0  323.07   11.40
   1  10   1   16.70    5.10
   1 -10   1   22.10    5.60
   1 -10   1   12.00    4.60
  -1 -10  -1   17.40    5.00
   1  10   2  241.48    9.80
   1  10   2  231.08   10.80
   1  10   2  226.68    8.30
   1 -10   2  252.07   11.60
  -1 -10  -2  247.48    8.80
  -1 -10  -2  241.18   10.20
   1 -10   2  237.38    9.10
   1  10   3   59.99    6.90
   1  10   3   58.59    5.30
   1  10   3   52.89    5.60
  -1  10  -3   67.49    5.60
  -1 -10  -3   53.69    6.30
   1 -10   3   66.09    5.60
   1 -10   3   54.79    4.50
   1 -10   3   53.99    7.10
  -1 -10  -3   61.69    5.20
  -1  10  -4  234.28   10.50
   1  10   4  238.78   12.10
   1  10   4  235.78   10.10
   1  10   4  220.68   11.00
   1  10   4  233.18   10.20
   1 -10   4  230.08   12.50
   1 -10   4  229.18    8.90
   1 -10   4  218.98    8.40
  -1 -10  -4  246.48   11.10
  -1 -10  -4  234.28    9.10
   1  10   5    5.10    6.40
   1  10   5    3.00    4.90
   1  10   5   -5.90    5.70
  -1  10  -5    0.40    5.40
  -1 -10  -5    8.10    4.40
   1 -10   5   20.50    7.00
   1 -10   5   -1.00    3.80
   1 -10   5   12.10    4.20
  -1 -10  -5    2.50    5.20
   1  10   6   20.90    5.90
   1  10   6   30.20    8.30
  -1  10  -6   26.20    7.00
   1  10   6   36.50    7.90
  -1 -10  -6   35.20    5.50
  -1 -10  -6   35.30    6.60
   1 -10   6   36.80    5.10
   1 -10   6   31.70    5.40
   1 -10   6   40.50    8.70
   1  10   7    9.50    5.70
   1  10   7   -8.60    7.00
   1  10   7    2.60    7.60
  -1 -10  -7    5.80    5.00
  -1 -10  -7   15.70    6.60
   1 -10   7   10.00    7.90
   1 -10   7    0.00    4.00
   1  10   8   84.39   11.00
   1  10   8   56.99   10.00
   1  10   8   76.99    8.00
   1 -10   8   67.19    5.70
   1 -10   8   76.99   10.80
  -1 -10  -8   63.59    7.00
   1  10   9    4.40    5.70
   1  10   9    3.00    9.00
   1 -10   9   -3.90    8.50
  -1 -10  -9    2.60    5.80
   1  10  10   12.40    5.90
   1  10  10  -10.10    9.00
  -1 -10 -10    2.20    6.20
   1  10  11   -3.90   10.50
   1 -10  11    5.00   10.60
  -1 -10 -11    6.60    6.70
   1  10  12    2.80   11.60
  -1 -10 -12    6.90    7.50
   1 -10  12   -0.80   10.50
  -1  11  12    8.40   11.50
   1 -11 -12   -7.00    6.60
  -1 -11  12   14.40   11.10
  -1  11  11   10.50   11.30
   1 -11 -11   13.50    6.80
  -1  11  10    1.20    9.70
  -1  11  10    6.70    5.20
   1 -11 -10    6.20    5.90
  -1  11   9   32.90    9.60
  -1  11   9   36.70    6.30
  -1 -11   9   50.59    9.70
   1 -11  -9   34.00    6.30
  -1  11   8   10.00    7.60
  -1  11   8   -2.80    4.80
  -1  11   8   10.30    8.90
  -1 -11   8    7.60    7.60
   1 -11  -8   -1.80    5.00
  -1  11   7   40.00    8.40
  -1  11   7   48.20    6.10
  -1  11   7   28.40    8.30
   1  11  -7   35.10    7.60
  -1 -11   7   37.40    3.80
  -1 -11   7   27.80    6.40
  -1 -11   7   34.30    8.20
   1 -11  -7   34.00    7.90
   1 -11  -7   38.50    5.80
  -1  11   6   36.10    8.40
  -1  11   6   28.10    7.40
   1  11  -6   23.60    6.70
  -1  11   6   27.20    5.80
   1 -11  -6   25.80    5.50
  -1 -11   6   25.40    7.30
   1 -11  -6   25.00    5.20
   1 -11  -6   29.20    7.00
  -1 -11   6   36.50    6.20
  -1 -11   6   31.40    3.90
  -1  11   5   99.89    9.40
   1  11  -5   83.59    7.50
  -1  11   5   80.89    8.50
  -1  11   5   97.39    7.20
   1  11  -5   85.99    6.50
  -1 -11   5   91.09    5.80
   1 -11  -5   84.79    7.60
  -1 -11   5   82.49    7.00
   1 -11  -5   89.29    6.20
  -1 -11   5   80.09    8.60
   1 -11  -5   96.89    7.40
   1  11  -4    5.80    4.30
  -1  11   4   15.60    5.90
  -1  11   4   -0.60    4.30
   1 -11  -4    4.60    4.30
  -1 -11   4    0.60    3.20
  -1 -11   4   -2.10    3.90
   1 -11  -4    4.10    4.10
   1 -11  -4    1.10    3.60
  -1 -11   4   -0.70    5.50
  -1  11   3   75.89    7.20
  -1  11   3   82.39    6.90
  -1 -11   3   81.39    6.30
   1 -11  -3   65.69    5.70
  -1 -11   3   58.79    6.50
   1 -11  -3   80.29    5.70
  -1 -11   3   81.69    5.80
   1 -11  -3   80.99    6.30
  -1  11   2  449.26   13.20
   1 -11  -2  453.85   10.40
   1 -11  -2  437.06   12.60
  -1 -11   2  455.95   14.60
  -1 -11   2  443.06   12.20
  -1  11   1 1735.53   34.10
   1 -11  -1 1763.02   34.00
  -1 -11   1 1761.62   33.80
  -1 -11   1 1719.63   34.90
   1  11   0    0.60    4.10
  -1 -11   0   -2.70    4.30
   1 -11   0   -0.30    4.70
  -1 -11   0   -2.60    4.70
   1 -11   0    8.10    4.70
   1  11   1  673.13   17.40
   1  11   1  685.13   17.00
   1 -11   1  666.23   16.30
  -1 -11  -1  663.13   17.00
  -1 -11  -1  692.33   19.40
   1 -11   1  677.43   17.90
   1  11   2   16.70    3.70
   1  11   2    9.80    4.60
   1  11   2   10.80    5.50
  -1 -11  -2   14.90    4.20
  -1 -11  -2   28.70    5.50
   1 -11   2   15.70    6.00
   1 -11   2   18.60    4.70
   1  11   3  103.59    7.00
  -1  11  -3   99.39    7.20
   1  11   3   87.99    8.00
   1  11   3  119.19    8.20
  -1 -11  -3   92.79    7.30
   1 -11   3   98.69    7.00
   1 -11   3  103.69    6.30
   1 -11   3  112.09    9.10
  -1 -11  -3   99.09    7.20
  -1  11  -4    5.20    4.70
   1  11   4   -3.10    4.70
   1  11   4    6.30    5.70
   1  11   4    8.90    4.50
   1 -11   4    7.60    3.70
  -1 -11  -4   15.40    5.40
   1 -11   4   15.90    5.80
  -1 -11  -4   11.10    4.50
   1 -11   4    2.70    4.10
   1  11   5  197.98   11.70
  -1  11  -5  182.78   11.10
   1  11   5  185.08   10.10
   1  11   5  199.88   12.80
   1 -11   5  172.58   13.40
   1 -11   5  186.58    8.60
   1 -11   5  170.78    8.70
  -1 -11  -5  170.48    9.30
  -1 -11  -5  162.68   10.40
  -1  11  -6   22.10    6.80
   1  11   6   26.40    7.90
   1  11   6   27.90    6.30
   1  11   6   34.70    8.20
  -1 -11  -6   22.70    6.70
  -1 -11  -6   34.90    5.80
   1 -11   6   25.20    5.00
   1 -11   6   35.20    8.40
   1  11   7   91.19    8.30
   1  11   7   93.99   11.10
   1  11   7  110.89   11.50
   1 -11   7  113.99   11.60
  -1 -11  -7  118.39    9.90
   1 -11   7   88.39    6.70
  -1 -11  -7  103.09    7.90
   1  11   8   19.90    6.30
   1  11   8    3.70   13.40
   1  11   8   11.50    8.80
  -1 -11  -8    2.10    5.50
   1 -11   8    9.50    4.30
   1 -11   8   13.20    8.40
   1  11   9   12.00    9.50
   1  11   9   28.40    6.70
  -1 -11  -9   22.60    6.60
   1  11  10   -6.50    5.40
   1  11  10   13.50   10.40
  -1 -11 -10    1.60    6.30
   1  11  11    7.60   10.90
  -1 -11 -11    4.70    6.90
   1  11  12   -1.70   11.80
  -1 -11 -12  -10.20    7.20
   1 -11  12   10.00   11.80
  -1  12  12    5.20   11.80
   1 -12 -12    8.30    7.40
  -1 -12  12    1.30   11.10
  -1  12  11  -16.40   10.80
   1 -12 -11    3.20    6.60
  -1  12  10   -6.30   10.00
  -1  12  10   -2.30    5.00
   1 -12 -10    0.80    6.10
  -1  12   9    0.10    5.20
  -1  12   9    9.30   10.10
  -1 -12   9    4.10    8.10
   1 -12  -9    6.90    5.80
  -1  12   8   12.50    8.20
  -1  12   8    7.80    8.80
  -1  12   8   -0.70    5.30
   1 -12  -8    5.40    5.30
  -1 -12   8    3.40    7.20
  -1  12   7    2.30    5.10
  -1  12   7   -3.80    6.90
   1  12  -7   -4.00    6.40
  -1  12   7    4.40    8.10
  -1 -12   7    2.60    5.50
   1 -12  -7  -12.40    6.80
  -1 -12   7    6.90    3.30
   1 -12  -7   -3.50    4.90
  -1 -12   7    2.60    7.40
   1  12  -6    1.40    5.70
  -1  12   6    4.10    5.10
  -1  12   6   10.30    6.90
  -1  12   6    8.40    7.20
  -1 -12   6    7.80    3.50
   1 -12  -6   -3.40    5.90
  -1 -12   6    9.60    6.80
   1 -12  -6    9.80    4.60
  -1 -12   6    4.10    4.90
   1 -12  -6   11.30    6.00
  -1  12   5    3.10    4.70
   1  12  -5   18.10    5.80
  -1  12   5   -5.00    5.30
   1 -12  -5    7.50    4.60
   1 -12  -5   12.80    4.70
   1 -12  -5   14.30    5.40
  -1 -12   5   17.90    6.90
  -1 -12   5   10.60    5.10
  -1 -12   5   14.10    3.80
   1  12  -4   32.20    5.10
  -1  12   4   24.60    6.40
  -1  12   4   19.70    5.10
   1 -12  -4   31.00    5.00
  -1 -12   4   29.90    4.50
   1 -12  -4   19.40    4.90
   1 -12  -4   29.90    4.70
  -1 -12   4   14.30    6.60
  -1 -12   4   26.50    5.10
  -1  12   3   68.09    7.20
  -1  12   3   90.29    7.50
   1 -12  -3   84.19    5.90
  -1 -12   3   80.99    7.40
   1 -12  -3   79.89    6.30
  -1 -12   3   81.49    6.20
  -1 -12   3   97.39    7.00
   1 -12  -3   81.79    6.40
  -1  12   2  814.52   19.20
   1 -12  -2  782.82   18.60
  -1 -12   2  780.22   18.30
  -1 -12   2  778.52   20.40
  -1  12   1   63.49    6.70
  -1 -12   1   59.99    6.20
   1 -12  -1   75.99    6.70
   1 -12  -1   76.69    6.90
  -1 -12   1   55.19    6.70
   1  12   0   53.39    5.90
   1 -12   0   41.70    6.20
  -1 -12   0   40.00    6.00
   1 -12   0   35.60    5.30
  -1 -12   0   51.29    5.50
   1  12   1  663.83   17.40
   1  12   1  653.23   16.60
   1 -12   1  619.74   17.70
  -1 -12  -1  643.34   17.00
   1 -12   1  637.04   16.60
  -1 -12  -1  640.94   17.20
   1  12   2   -1.10    3.00
   1  12   2   -1.90    4.70
   1  12   2    0.00    5.20
   1 -12   2   -0.30    4.30
  -1 -12  -2    5.60    4.90
  -1 -12  -2   -2.60    4.30
   1 -12   2   -8.10    5.60
  -1 -12  -2    5.80    3.80
   1  12   3    5.70    3.80
   1  12   3   -1.80    4.30
   1  12   3    3.00    5.50
   1 -12   3   -2.00    3.30
   1 -12   3   -0.50    4.20
  -1 -12  -3    1.90    4.80
   1 -12   3   -0.90    6.00
  -1 -12  -3    5.00    4.20
   1  12   4    7.50    6.10
   1  12   4    3.30    4.10
   1  12   4   13.60    5.60
  -1  12  -4   12.70    5.00
  -1 -12  -4    6.50    4.50
  -1 -12  -4    4.80    5.30
   1 -12   4    7.50    3.70
   1 -12   4   12.10    6.10
   1 -12   4    2.80    4.30
  -1  12  -5   18.80    6.10
   1  12   5    1.60    6.70
   1  12   5   12.10    5.50
   1 -12   5   16.00    4.70
   1 -12   5   13.20    4.40
  -1 -12  -5   14.00    5.30
  -1 -12  -5   14.40    6.10
   1 -12   5   14.40    7.60
   1  12   6   60.59    7.50
   1  12   6   58.49    8.90
   1  12   6   63.59    9.40
   1 -12   6   59.29    6.20
  -1 -12  -6   61.19    7.90
  -1 -12  -6   56.89    6.70
   1 -12   6   61.29   10.00
   1  12   7    6.80    7.80
   1  12   7   14.50    8.10
   1  12   7   19.80    6.20
   1 -12   7    8.40    4.40
  -1 -12  -7   11.60    9.80
   1 -12   7   19.40    8.90
  -1 -12  -7    6.80    5.70
   1  12   8   14.60    6.40
   1  12   8   19.20    9.10
   1 -12   8    5.50    4.30
  -1 -12  -8   10.60    6.20
   1 -12   8    8.50    8.70
   1  12   9   19.40   10.10
   1  12   9   20.40    6.90
  -1 -12  -9   12.00    6.40
   1  12  10   -0.90    5.90
   1  12  10   -6.90    9.60
  -1 -12 -10    7.20    6.70
   1  12  11   -6.00    7.50
   1  12  11    2.80   11.30
  -1 -12 -11   -2.50    7.30
   1  12  12    6.40   12.40
  -1 -12 -12  -17.00    6.70
   1 -12  12   25.20   11.90
  -1  13  12  -11.50   11.90
  -1 -13  12    8.70   10.30
   1 -13 -12    7.80    7.40
  -1  13  11   -5.30   11.00
   1 -13 -11   11.60    7.00
  -1  13  10   -3.30   10.50
  -1  13  10    2.70    5.60
   1 -13 -10   -7.90    6.00
  -1  13   9    1.20    9.50
  -1  13   9    2.80    5.50
   1 -13  -9    7.70    6.20
  -1 -13   9    2.10    8.40
  -1  13   8    1.00    8.60
  -1  13   8    3.90    8.10
  -1  13   8   -0.40    5.50
   1 -13  -8    5.90    5.70
  -1 -13   8   10.90    8.50
   1  13  -7   27.60    7.60
  -1  13   7   36.40    9.60
  -1  13   7   43.50    6.80
  -1  13   7   35.40    8.70
   1 -13  -7   40.30    6.20
  -1 -13   7   43.10    4.50
  -1 -13   7   50.09    9.00
  -1 -13   7   47.10    7.20
  -1  13   6   17.30    7.40
   1  13  -6    7.10    6.00
  -1  13   6   19.10    5.80
   1 -13  -6   13.00    5.10
  -1 -13   6   13.90    5.50
   1 -13  -6    0.00    6.30
  -1 -13   6   17.10    8.10
  -1 -13   6   16.60    4.10
  -1  13   5   12.10    6.60
  -1  13   5   19.10    5.70
   1  13  -5   -1.50    4.90
  -1 -13   5    8.70    4.00
   1 -13  -5   12.30    5.60
  -1 -13   5    0.20    6.70
   1 -13  -5    8.50    4.80
   1 -13  -5    0.00    4.30
  -1 -13   5    2.30    4.70
  -1  13   4   28.50    6.50
  -1  13   4   23.20    5.60
   1  13  -4   22.40    4.90
   1 -13  -4   15.30    4.70
   1 -13  -4   15.50    4.60
  -1 -13   4   25.10    7.00
   1 -13  -4   24.70    5.20
  -1 -13   4   23.30    4.60
  -1 -13   4   25.60    5.20
  -1  13   3    5.90    5.10
  -1  13   3   -2.90    5.20
  -1 -13   3    0.60    3.90
  -1 -13   3    1.60    5.60
   1 -13  -3   -3.40    3.60
   1 -13  -3   -1.50    4.20
  -1  13   2  418.86   13.20
  -1 -13   2  433.26   12.90
   1 -13  -2  451.15   14.20
   1 -13  -2  447.86   13.50
  -1 -13   2  446.16   14.70
  -1  13   1  155.88    8.70
   1 -13  -1  152.78    9.30
  -1 -13   1  142.89    8.50
  -1 -13   1  138.79    9.30
   1 -13  -1  140.49    8.50
  -1  13   0    4.10    4.70
   1  13   0   11.50    5.50
   1  13   0   16.40    5.00
  -1 -13   0   12.60    5.10
   1 -13   0   13.20    5.50
  -1 -13   0    8.40    4.90
   1 -13   0   20.00    5.50
   1  13   1  102.09    8.10
   1  13   1   93.09    7.30
   1 -13   1   95.99    7.50
  -1 -13  -1   83.39    7.40
  -1 -13  -1   83.19    7.60
   1 -13   1  100.59    8.40
   1  13   2  109.79    8.10
   1  13   2  118.09    6.40
   1  13   2  121.49    9.00
   1 -13   2  119.89    8.20
   1 -13   2  139.99   10.00
  -1 -13  -2  127.59    8.40
  -1 -13  -2  118.39    9.30
  -1 -13  -2  141.39    7.80
   1  13   3  200.58    8.70
   1  13   3  210.18   11.90
   1  13   3  191.48   10.10
  -1 -13  -3  185.08   10.50
   1 -13   3  203.08    9.40
  -1 -13  -3  194.48    9.20
  -1 -13  -3  199.78   10.80
   1 -13   3  204.18   12.70
   1 -13   3  214.38    8.60
   1  13   4   13.00    6.20
   1  13   4   -2.50    5.20
   1  13   4    7.20    4.40
  -1 -13  -4    0.90    5.20
  -1 -13  -4   -0.20    5.40
   1 -13   4   -6.40    4.30
  -1 -13  -4    1.20    4.50
   1 -13   4   -2.70    7.10
   1 -13   4    9.50    4.00
   1  13   5   -5.40    6.20
   1  13   5    7.20    5.80
   1 -13   5   10.00    4.20
  -1 -13  -5   19.30    6.30
  -1 -13  -5   10.80    5.10
   1 -13   5   -4.20    7.20
   1 -13   5    5.30    4.60
   1  13   6    3.00    7.40
   1  13   6    1.20    5.80
  -1 -13  -6    3.30    6.50
   1 -13   6    1.30    8.00
   1 -13   6    0.20    4.50
  -1 -13  -6   -3.20    5.10
   1  13   7   18.30    6.70
   1  13   7   31.20    8.80
   1  13   7   31.50    9.30
   1 -13   7   17.40    9.10
  -1 -13  -7   25.70    6.20
   1 -13   7   12.00    4.80
   1  13   8   -2.40    6.20
   1  13   8    2.50    8.60
   1 -13   8    8.50    4.50
   1 -13   8   27.70    9.80
  -1 -13  -8    3.70    5.80
   1  13   9    2.40    9.20
   1  13   9   -0.70    6.00
  -1 -13  -9    4.00    6.50
   1  13  10    1.10    6.30
   1  13  10   37.70   11.90
  -1 -13 -10   -7.30    6.30
   1  13  11   18.80    6.80
   1  13  11    3.20   11.40
  -1 -13 -11    7.20    7.30
   1  13  12   -9.00   11.80
  -1 -13 -12   -8.20    7.40
   1 -13  12  -10.10   11.40
  -1  14  12    9.00   12.60
   1 -14 -12   -7.50    7.00
  -1  14  11    8.40   11.80
   1 -14 -11   -0.60    6.70
  -1  14  10   -0.30    5.60
  -1  14  10    2.00   10.40
   1 -14 -10   -9.10    6.30
  -1  14   9    2.40    9.50
  -1  14   9    7.80    6.00
   1 -14  -9   -0.90    6.00
  -1 -14   9   -8.50    9.20
  -1  14   8   -3.20    5.50
  -1  14   8   -6.90    7.50
   1 -14  -8    5.60    5.70
  -1 -14   8   13.50    8.50
  -1  14   7   10.70    7.40
   1  14  -7   10.60    6.50
  -1  14   7    6.50    6.10
  -1 -14   7   13.40    4.00
  -1 -14   7   10.80    7.60
   1 -14  -7   18.50    6.00
  -1 -14   7   13.50    6.50
  -1  14   6    7.50    7.10
   1  14  -6    7.80    5.90
  -1  14   6   -1.90    5.30
  -1 -14   6   -3.80    4.80
   1 -14  -6    2.90    5.00
  -1 -14   6    1.60    7.50
  -1 -14   6   -5.90    3.70
  -1  14   5   15.10    6.30
  -1  14   5    4.90    5.60
   1  14  -5   25.10    5.90
   1 -14  -5    7.40    4.70
  -1 -14   5   19.70    5.50
  -1 -14   5    8.70    4.20
  -1 -14   5    6.00    7.50
   1 -14  -5   12.40    5.20
   1  14  -4   40.10    5.70
  -1  14   4   42.60    7.40
  -1  14   4   44.10    6.80
   1 -14  -4   56.09    6.40
  -1 -14   4   50.09    5.60
   1 -14  -4   45.60    5.80
  -1 -14   4   56.19    8.40
  -1 -14   4   47.40    6.20
  -1  14   3    6.30    5.90
  -1  14   3    3.20    4.70
   1 -14  -3    9.20    5.60
  -1 -14   3    4.60    5.30
   1 -14  -3    3.30    4.80
  -1 -14   3    1.90    4.10
  -1  14   2    6.80    4.60
   1 -14  -2    5.00    5.40
   1 -14  -2    2.60    4.60
  -1 -14   2   -0.20    4.20
  -1 -14   2    6.60    5.90
  -1  14   1   67.89    6.80
   1 -14  -1   62.59    7.10
  -1 -14   1   47.70    7.10
   1 -14  -1   45.00    6.20
  -1 -14   1   56.29    6.10
   1  14   0  605.14   16.90
   1  14   0  625.24   16.80
  -1  14   0  602.94   16.90
  -1 -14   0  596.34   17.30
  -1 -14   0  620.14   16.90
   1 -14   0  614.24   17.10
   1 -14   0  616.24   17.70
  -1  14  -1  691.33   18.30
   1  14   1  710.83   18.60
   1  14   1  661.53   18.60
  -1 -14  -1  667.83   18.60
  -1 -14  -1  680.33   18.90
   1 -14   1  692.83   19.50
   1 -14   1  678.93   17.70
   1  14   2  493.25   15.20
   1  14   2  498.35   12.60
   1  14   2  503.35   16.60
   1 -14   2  503.85   16.50
  -1 -14  -2  515.25   15.50
  -1 -14  -2  530.75   14.20
  -1 -14  -2  504.65   16.10
   1 -14   2  510.75   15.00
   1  14   3   32.10    4.60
   1  14   3   18.40    6.40
   1  14   3   36.60    6.00
   1 -14   3   34.80    8.00
  -1 -14  -3   28.10    5.20
   1 -14   3   21.60    5.10
  -1 -14  -3   37.40    6.60
   1 -14   3   24.00    4.70
  -1 -14  -3   24.70    6.50
   1  14   4   36.70    7.60
   1  14   4   46.90    5.90
   1  14   4   43.50    7.10
   1 -14   4   34.10    4.90
  -1 -14  -4   39.00    6.80
   1 -14   4   37.50    5.90
   1 -14   4   21.20    7.50
  -1 -14  -4   38.00    5.50
  -1 -14  -4   38.80    7.30
   1  14   5    6.50    6.40
   1  14   5    7.40    5.90
  -1 -14  -5    0.40    5.10
  -1 -14  -5   -6.90    5.60
   1 -14   5   11.30    7.20
   1 -14   5    3.60    4.80
   1  14   6   16.90    6.50
   1  14   6    3.90    7.40
  -1 -14  -6    5.00    5.40
  -1 -14  -6   -8.50    5.90
   1 -14   6    1.40    4.70
   1 -14   6    1.40    8.50
   1  14   7   41.70    7.70
   1  14   7   30.40    8.80
   1 -14   7   54.09   10.60
  -1 -14  -7   43.70    6.90
   1 -14   7   57.09    6.60
   1  14   8    6.30    6.70
   1  14   8    2.50    8.60
   1 -14   8    6.00    4.70
  -1 -14  -8   -5.60    6.00
   1  14   9    7.50    6.60
   1  14   9    0.40    9.30
  -1 -14  -9   11.20    7.00
   1  14  10    6.10    6.40
   1  14  10    5.60   10.10
  -1 -14 -10    5.60    6.90
   1  14  11  -15.20   10.70
   1  14  11    0.80    6.40
  -1 -14 -11    3.90    7.60
  -1 -14 -12   26.60    8.60
  -1  15  12   -2.00   11.70
   1 -15 -12  -18.30    6.70
  -1  15  11    5.50   11.50
   1 -15 -11   -9.80    6.50
  -1  15  10   -3.10    8.90
  -1  15  10    7.50    6.40
   1 -15 -10    1.50    6.70
  -1  15   9   12.70    9.90
  -1  15   9   20.70    6.60
   1 -15  -9   12.20    6.80
  -1  15   8    4.20    5.90
  -1 -15   8    0.90    8.40
   1 -15  -8   10.10    6.20
   1  15  -7   26.70    7.70
  -1  15   7   41.60    9.40
  -1  15   7   29.60    6.90
   1 -15  -7   37.90    6.80
  -1 -15   7   37.10    8.80
  -1 -15   7   50.19    5.40
  -1  15   6    8.80    7.50
  -1  15   6   16.10    6.10
   1  15  -6   20.90    6.40
  -1 -15   6    2.80    7.60
  -1 -15   6    9.50    5.50
  -1 -15   6   -1.10    4.00
   1 -15  -6    6.20    5.30
  -1  15   5    6.20    6.10
  -1  15   5   -0.40    5.40
   1  15  -5    3.30    5.10
  -1 -15   5   10.30    5.30
   1 -15  -5    0.00    5.20
  -1 -15   5   -3.00    7.20
  -1 -15   5    5.00    4.40
   1 -15  -5    6.80    5.10
  -1  15   4   34.20    6.90
  -1  15   4   27.90    7.30
   1  15  -4   26.50    5.30
  -1 -15   4   28.80    5.80
  -1 -15   4   31.40    7.80
   1 -15  -4   30.50    5.60
   1 -15  -4   20.50    6.30
  -1 -15   4   25.70    5.30
   1 -15  -4   19.20    5.60
   1  15  -3    5.20    3.60
  -1  15   3    7.70    6.10
  -1  15   3    1.30    5.50
  -1 -15   3    5.00    5.90
   1 -15  -3    2.70    5.60
   1 -15  -3    7.80    5.10
  -1 -15   3    8.40    4.70
  -1  15   2   90.69    8.20
   1 -15  -2   73.39    7.40
   1 -15  -2   71.59    7.30
  -1 -15   2   72.39    8.30
  -1 -15   2   64.99    6.50
  -1  15   1    8.40    5.70
   1  15  -1    7.00    5.50
  -1 -15   1    4.70    5.00
   1 -15  -1    5.00    5.50
  -1 -15   1   13.30    6.30
   1 -15  -1   16.70    5.80
  -1  15   0   19.30    5.40
   1  15   0   14.70    5.30
   1  15   0   26.90    5.70
  -1 -15   0   16.20    5.10
   1 -15   0   31.00    6.30
  -1 -15   0   24.10    6.40
   1 -15   0   26.90    6.30
   1  15   1  682.13   18.60
   1  15   1  694.23   19.40
  -1  15  -1  695.93   18.60
  -1 -15  -1  679.53   19.60
   1 -15   1  690.73   20.20
   1 -15   1  720.83   18.90
  -1 -15  -1  709.43   19.10
   1  15   2   19.50    5.60
   1  15   2   16.40    3.60
   1  15   2    7.10    5.90
  -1 -15  -2   15.80    4.70
   1 -15   2   24.90    6.70
  -1 -15  -2   10.20    6.00
   1 -15   2   18.00    5.30
  -1 -15  -2   17.10    6.20
   1  15   3    2.90    3.80
   1  15   3    5.40    6.00
   1  15   3   -0.50    5.80
   1 -15   3   15.90    7.40
  -1 -15  -3    2.80    6.00
   1 -15   3    9.60    5.10
  -1 -15  -3    5.90    5.70
  -1 -15  -3    6.00    4.60
   1  15   4    1.30    4.20
   1  15   4    8.30    6.40
   1  15   4  -10.90    5.70
  -1 -15  -4   -3.50    5.40
  -1 -15  -4    4.60    5.50
   1 -15   4   -2.30    4.00
  -1 -15  -4   -2.60    4.80
   1 -15   4    3.00    5.00
   1 -15   4    8.10    7.30
   1  15   5  132.99   11.40
   1  15   5  106.19    9.40
  -1 -15  -5  138.99   10.50
   1 -15   5  134.49    9.30
   1 -15   5  108.09   11.40
  -1 -15  -5  117.29    8.70
   1  15   6   32.80    8.80
   1  15   6   16.70    6.80
  -1 -15  -6   21.50    7.30
   1 -15   6    9.90    8.00
   1 -15   6   14.80    5.40
  -1 -15  -6   18.30    6.10
   1  15   7    6.30    6.70
   1 -15   7  -10.50    4.60
   1 -15   7   -3.90    9.00
  -1 -15  -7    2.40    6.00
   1  15   8   11.60    6.80
   1 -15   8    9.10    5.10
  -1 -15  -8    7.30    6.40
   1  15   9    3.20    6.60
  -1 -15  -9    6.10    6.90
   1  15  10   -8.40    6.30
   1  15  10   16.30   11.20
  -1 -15 -10   -0.40    7.20
   1  15  11    0.30   11.60
   1  15  11   -9.60    6.40
  -1 -15 -11   -8.00    7.10
   1 -16 -12   -7.30    7.40
  -1  16  11    8.40    6.30
   1 -16 -11   -6.90    7.10
  -1  16  10    8.40    6.50
   1 -16 -10   -3.40    6.90
  -1  16   9   -6.20    6.00
   1 -16  -9    1.70    6.70
  -1  16   8   -3.20    5.90
  -1 -16   8    3.40    9.00
   1 -16  -8   -2.20    5.90
  -1  16   7   19.40    6.90
  -1  16   7   -8.40    6.70
  -1 -16   7    6.30    4.40
   1 -16  -7   17.00    6.00
  -1 -16   7   15.60    8.70
  -1  16   6    9.90    7.80
  -1  16   6   15.90    6.50
   1  16  -6    3.70    5.80
  -1 -16   6   -3.90    5.20
  -1 -16   6   -2.70    4.30
  -1 -16   6   -1.10    8.20
   1 -16  -6   -0.10    5.20
  -1  16   5    9.80    7.00
   1  16  -5   10.90    5.30
  -1  16   5   -1.10    5.60
   1 -16  -5   -4.70    5.40
  -1 -16   5    1.10    7.50
  -1 -16   5    3.60    4.70
  -1 -16   5    4.40    5.30
   1 -16  -5    0.30    5.30
  -1  16   4    8.40    6.50
   1  16  -4    9.90    4.80
  -1  16   4    3.90    6.00
   1 -16  -4    9.90    4.90
  -1 -16   4   21.00    8.00
   1 -16  -4    9.00    6.40
   1 -16  -4    8.80    5.50
  -1 -16   4   18.30    5.70
  -1 -16   4    6.80    4.90
  -1  16   3   19.40    6.90
   1  16  -3   21.30    4.10
  -1  16   3   20.70    6.40
  -1 -16   3   22.30    5.30
   1 -16  -3   22.00    6.80
  -1 -16   3   20.40    6.60
   1 -16  -3   20.20    6.10
  -1  16   2   -0.80    5.00
   1 -16  -2    6.70    5.40
  -1 -16   2    5.90    5.90
  -1 -16   2    5.60    4.80
   1 -16  -2    2.20    5.30
  -1  16   1    2.80    5.70
   1  16  -1    5.20    5.50
  -1 -16   1    1.00    6.20
   1 -16  -1   13.60    5.50
   1 -16  -1    1.40    5.40
  -1 -16   1    6.30    5.30
   1  16   0  165.18   10.10
  -1  16   0  160.18    9.60
   1  16   0  167.28    9.60
  -1 -16   0  170.78   11.80
   1 -16   0  179.58   10.70
  -1 -16   0  167.48   10.30
   1 -16   0  183.78   11.60
   1  16   1    2.50    5.50
  -1  16  -1    6.00    5.60
   1  16   1    3.20    2.80
   1  16   1    1.10    5.30
  -1 -16  -1    9.10    5.90
   1 -16   1   -2.80    5.10
   1 -16   1    0.30    5.60
  -1 -16  -1    6.20    5.80
   1  16   2  174.48    7.20
  -1  16  -2  166.18   10.30
   1  16   2  166.78   11.00
   1  16   2  176.08   11.60
  -1 -16  -2  167.88    9.10
  -1 -16  -2  168.38   10.30
  -1 -16  -2  176.78   11.50
   1 -16   2  164.48   10.20
   1 -16   2  159.78   11.50
   1  16   3   39.20    7.10
   1  16   3   41.50    7.60
   1  16   3   41.10    5.00
   1 -16   3   55.59    9.30
   1 -16   3   23.60    6.00
  -1 -16  -3   40.00    7.60
  -1 -16  -3   53.39    6.50
  -1 -16  -3   40.20    7.20
   1  16   4   25.60    7.30
   1  16   4   12.80    6.10
   1 -16   4   32.90    6.40
  -1 -16  -4   24.60    6.80
  -1 -16  -4   15.20    5.30
  -1 -16  -4   27.60    6.70
   1 -16   4   26.10    5.20
   1 -16   4   32.70    9.30
   1  16   5   18.90    6.90
   1  16   5   20.70    7.80
   1 -16   5   31.70    8.40
  -1 -16  -5   24.90    6.50
  -1 -16  -5   17.00    7.00
   1 -16   5   26.60    6.20
   1  16   6   12.40    7.80
   1  16   6   19.70    7.10
  -1 -16  -6   14.90    6.00
   1 -16   6   15.70    8.40
   1 -16   6   17.50    5.80
  -1 -16  -6   29.20    7.60
   1  16   7    3.20    6.60
  -1 -16  -7    5.90    6.20
   1 -16   7   10.50    9.50
   1 -16   7   -1.80    5.10
   1  16   8   14.20    7.40
  -1 -16  -8   18.90    6.90
   1 -16   8   19.40    5.50
   1  16   9   -7.80    6.70
  -1 -16  -9   -4.30    6.80
   1  16  10  -18.30    6.30
  -1 -16 -10    3.50    7.70
   1  16  11   -1.80    6.90
  -1 -16 -11    2.20    7.70
   1 -17 -12   -2.80    7.60
  -1  17  11   13.60    6.80
   1 -17 -11   -9.40    6.90
  -1  17  10    7.40    6.90
   1 -17 -10   15.20    7.30
  -1  17   9   -5.40    6.30
   1 -17  -9    3.00    6.70
  -1  17   8    6.60    6.60
  -1 -17   8   -0.40    4.20
   1 -17  -8    4.00    6.30
  -1  17   7   -6.00    6.20
   1 -17  -7   10.60    6.10
  -1 -17   7    5.40    8.50
  -1 -17   7   -0.80    4.40
  -1  17   6   -1.50    6.20
  -1  17   6   -0.90    7.40
  -1 -17   6   -7.20    5.30
  -1 -17   6   -5.90    4.50
   1 -17  -6   -1.20    5.50
  -1 -17   6   -1.50    8.30
  -1  17   5   18.90    7.00
  -1  17   5   19.10    7.90
  -1 -17   5   20.50    5.60
   1 -17  -5   11.60    6.10
   1 -17  -5   19.90    6.00
  -1 -17   5   16.60    5.90
  -1 -17   5   10.10    8.60
  -1  17   4   19.10    6.70
  -1  17   4   29.10    7.30
   1  17  -4   23.90    7.70
   1 -17  -4   27.30    7.90
  -1 -17   4   22.40    5.70
  -1 -17   4   16.70    7.40
   1 -17  -4   26.10    6.40
  -1 -17   4   11.20    5.80
  -1  17   3    6.60    6.00
  -1  17   3    0.50    5.20
   1  17  -3    3.60    3.60
   1 -17  -3    5.60    5.80
   1 -17  -3    2.30    6.10
  -1 -17   3   -6.50    6.00
  -1 -17   3   -3.40    4.90
  -1  17   2   90.99    8.70
   1  17  -2   89.69    7.80
  -1 -17   2   91.49    9.10
   1 -17  -2  105.59    9.00
   1 -17  -2  114.19    9.80
  -1 -17   2   80.89    7.40
   1  17  -1    8.40    6.10
  -1  17   1   -0.20    5.90
   1 -17  -1    4.70    6.10
  -1 -17   1    9.80    5.80
  -1 -17   1    3.60    6.00
   1 -17  -1    0.90    5.30
   1  17   0    3.80    5.20
  -1  17   0   10.10    6.30
   1  17   0   -5.30    5.40
   1 -17   0   -2.50    6.10
  -1 -17   0    3.70    5.60
   1 -17   0   -2.20    5.10
  -1 -17   0    6.00    5.10
  -1  17  -1   59.59    7.80
   1  17   1   48.80    7.00
   1  17   1   48.50    7.30
  -1 -17  -1   33.30    7.60
   1 -17   1   57.09    7.60
  -1 -17  -1   51.19    7.90
   1 -17   1   39.80    7.30
  -1  17  -2  149.79   10.00
   1  17   2  113.19    9.40
   1  17   2  149.69   10.20
   1 -17   2  140.29   11.50
  -1 -17  -2  126.69    9.70
  -1 -17  -2  158.98   11.40
   1 -17   2  140.09    9.40
   1  17   3   -8.30    6.10
   1  17   3   16.10    6.80
  -1 -17  -3    2.10    6.10
  -1 -17  -3    9.10    6.60
   1 -17   3   11.00    8.30
   1 -17   3    5.90    5.80
  -1 -17  -3   11.90    5.50
   1  17   4   15.60    7.00
   1  17   4   31.40    7.60
  -1 -17  -4   22.00    5.80
  -1 -17  -4   22.30    7.20
   1 -17   4   14.40    6.00
   1 -17   4   30.30    9.30
   1 -17   4   13.60    6.20
  -1 -17  -4   15.90    7.10
   1  17   5   14.10    7.90
   1  17   5   14.30    7.10
   1 -17   5   12.80    9.10
  -1 -17  -5   11.30    7.10
  -1 -17  -5    8.70    5.60
   1 -17   5   17.30    6.20
   1  17   6    7.60    6.70
   1  17   6    8.80    8.00
   1 -17   6  -10.50    5.30
   1 -17   6   -2.80    9.10
  -1 -17  -6   -4.40    5.80
  -1 -17  -6   -5.50    6.70
   1  17   7   -1.10    6.90
   1 -17   7    2.10    5.70
  -1 -17  -7    7.30    6.60
   1  17   8    1.90    7.10
   1 -17   8   -8.50    4.90
  -1 -17  -8   -3.40    6.40
   1  17   9    0.10    7.00
  -1 -17  -9    5.60    7.00
   1  17  10    2.00    7.20
  -1 -17 -10  -17.50    6.80
   1  17  11  -12.30    7.00
  -1 -17 -11    0.00    7.60
  -1  18  11  -10.30    6.30
   1 -18 -11    0.80    7.30
  -1  18  10   -6.00    6.50
   1 -18 -10    6.90    7.00
  -1  18   9    4.00    7.00
   1 -18  -9    4.90    7.00
  -1  18   8    0.40    6.60
  -1 -18   8    8.10    4.50
   1 -18  -8  -13.90    6.10
  -1  18   7    6.30    6.70
  -1 -18   7    6.20    5.10
  -1 -18   7    3.60    9.00
   1 -18  -7    1.40    5.90
  -1  18   6    4.20    7.70
  -1  18   6   13.90    7.00
  -1 -18   6   11.80    5.40
  -1 -18   6   -6.90    8.70
   1 -18  -6    3.10    5.80
  -1  18   5   19.50    7.60
  -1  18   5   30.80    7.40
   1 -18  -5   25.50    6.30
  -1 -18   5   26.30    9.60
  -1 -18   5   30.70    6.60
  -1 -18   5   28.90    6.10
  -1  18   4    0.20    6.00
  -1  18   4   18.40    7.00
  -1 -18   4    8.90    5.70
   1 -18  -4    5.40    6.20
  -1 -18   4   -0.10    8.20
  -1 -18   4   13.70    6.20
  -1  18   3    4.30    6.10
  -1  18   3   10.10    6.90
  -1 -18   3   -6.30    5.10
  -1 -18   3    7.80    7.70
   1 -18  -3    5.10    6.00
   1 -18  -3    9.40    6.10
  -1  18   2    5.80    6.40
   1  18  -2   -4.60    6.30
  -1 -18   2    6.30    6.60
   1 -18  -2   11.90    6.70
   1 -18  -2    3.20    6.40
  -1 -18   2    2.80    5.50
  -1  18   1  337.07   14.30
   1  18  -1  322.87   14.10
   1 -18  -1  334.17   14.70
   1 -18  -1  326.47   14.50
  -1 -18   1  336.87   13.90
  -1 -18   1  330.27   15.70
   1  18   0  236.58   12.10
  -1  18   0  230.48   11.90
   1  18   0  260.17   12.70
   1 -18   0  237.78   12.90
   1 -18   0  240.58   12.60
  -1 -18   0  252.17   14.00
  -1 -18   0  228.38   12.50
   1  18   1   74.49    8.30
  -1  18  -1   81.19    8.70
   1  18   1   75.69    8.70
  -1 -18  -1   67.89    9.00
  -1 -18  -1   54.89    8.00
   1 -18   1   72.49    9.30
   1 -18   1   86.19    8.90
   1  18   2    0.90    6.30
  -1  18  -2   -4.10    5.80
   1  18   2    4.90    6.30
  -1 -18  -2   -1.00    6.00
   1 -18   2   -4.70    6.50
   1 -18   2   -1.80    5.70
  -1 -18  -2    5.60    6.00
   1  18   3  125.99   11.00
   1  18   3  107.29    9.50
   1 -18   3  112.79    9.50
  -1 -18  -3  119.89   10.30
   1 -18   3  131.59   12.20
  -1 -18  -3  105.59    9.90
   1  18   4   11.40    7.40
   1  18   4   16.20    7.40
  -1 -18  -4   11.10    7.00
  -1 -18  -4    6.70    5.80
   1 -18   4    7.90    8.10
   1 -18   4    4.30    6.00
  -1 -18  -4    3.60    7.40
   1  18   5   10.00    7.40
   1  18   5   -6.90    6.30
   1 -18   5    9.50    8.40
  -1 -18  -5   13.10    7.20
   1 -18   5    4.90    6.30
  -1 -18  -5   12.00    6.00
   1  18   6   30.60    8.30
   1 -18   6   30.90   10.60
  -1 -18  -6   27.80    6.90
   1 -18   6   46.10    7.40
   1  18   7   14.70    7.40
   1 -18   7    3.70    5.60
  -1 -18  -7   -1.50    6.80
   1  18   8    7.20    7.20
  -1 -18  -8    1.40    7.10
   1 -18   8    7.80    5.60
   1  18   9    2.90    7.50
  -1 -18  -9    5.00    7.10
   1  18  10   -4.40    7.00
  -1 -18 -10    2.20    7.60
   1  18  11   -9.10    6.90
  -1 -18 -11   17.30    8.70
  -1  19  11    4.50    7.00
   1 -19 -11   -6.30    7.60
  -1  19  10    6.20    7.50
   1 -19 -10    2.10    7.70
  -1  19   9   -5.80    7.10
   1 -19  -9   -1.60    6.70
  -1  19   8    0.10    7.00
   1 -19  -8    3.70    6.60
  -1 -19   8    8.70    5.00
  -1  19   7   10.30    7.00
   1 -19  -7   -2.40    6.70
  -1 -19   7   -0.50    5.00
  -1  19   6   -3.50    6.20
  -1 -19   6    8.30    5.40
  -1 -19   6   -1.40    9.00
   1 -19  -6    6.60    6.40
  -1  19   5    3.90    6.70
  -1  19   5    1.40    7.30
  -1 -19   5    4.40    8.90
  -1 -19   5   -1.70    5.50
  -1 -19   5    3.00    5.60
  -1  19   4   20.30    7.30
  -1  19   4   27.10    7.80
  -1 -19   4   13.40    9.10
  -1 -19   4   19.50    6.50
  -1 -19   4   29.20    6.60
   1 -19  -4   21.40    6.90
  -1  19   3   82.09    9.40
  -1  19   3   62.19    8.40
   1 -19  -3   77.99    8.70
  -1 -19   3   87.69   10.00
  -1 -19   3   82.59    8.50
   1 -19  -3   95.59    9.90
  -1  19   2   -4.00    5.80
  -1 -19   2   -6.10    6.50
   1 -19  -2    0.80    6.20
   1 -19  -2    6.40    6.20
  -1 -19   2    5.90    6.20
   1  19  -1    5.50    6.20
  -1  19   1   10.90    6.60
  -1 -19   1   10.90    7.50
   1 -19  -1   15.60    7.20
   1 -19  -1    7.10    6.80
  -1 -19   1    8.10    6.10
   1  19   0    8.20    6.10
   1  19   0   -2.70    6.30
  -1  19   0   12.30    7.00
  -1 -19   0   14.20    7.40
  -1 -19   0   16.80    6.90
   1 -19   0   10.10    6.90
   1 -19   0   14.90    6.30
  -1  19  -1  264.17   13.50
   1  19   1  244.58   13.60
   1  19   1  259.57   13.70
  -1 -19  -1  256.97   14.50
   1 -19   1  238.18   15.00
   1 -19   1  251.37   13.40
  -1 -19  -1  247.28   13.90
  -1  19  -2   84.29   11.20
   1  19   2   84.59    9.80
   1  19   2   73.09    9.20
   1 -19   2   59.09    8.20
   1 -19   2   68.59    9.60
  -1 -19  -2   70.69    9.30
  -1 -19  -2   67.39    8.60
   1  19   3   16.20    7.60
   1  19   3   20.70    7.50
  -1 -19  -3   25.80    7.40
   1 -19   3   18.20    8.90
   1 -19   3   21.60    6.80
  -1 -19  -3   14.90    7.40
   1  19   4   13.00    7.20
   1  19   4   18.80    8.00
   1 -19   4   16.80    6.80
   1 -19   4   29.10    9.90
  -1 -19  -4   15.90    7.60
  -1 -19  -4   10.90    8.80
   1  19   5   15.60    8.20
   1  19   5    0.70    7.20
  -1 -19  -5   -3.10    5.80
   1 -19   5   -0.80    6.10
   1 -19   5    4.30    8.70
  -1 -19  -5   13.60    7.50
   1  19   6   24.60    7.80
   1 -19   6   32.20    7.20
  -1 -19  -6   42.20    7.50
   1  19   7   -1.10    7.10
   1 -19   7    1.30    5.90
  -1 -19  -7   -3.60    6.90
   1  19   8   -2.00    7.40
   1 -19   8   -4.30    5.40
  -1 -19  -8    5.30    7.40
   1  19   9   -9.40    7.30
  -1 -19  -9   -4.70    7.30
   1  19  10    7.60    8.30
  -1 -19 -10   21.80    9.00
   1  19  11   -0.10    7.40
  -1 -19 -11  -12.30    8.00
  -1  20  11   23.70    8.30
   1 -20 -11   17.90    8.50
  -1  20  10    5.20    7.70
   1 -20 -10    1.10    7.50
  -1  20   9   -1.40    7.10
   1 -20  -9   17.30    7.80
  -1  20   8    7.50    7.60
   1 -20  -8   -1.90    7.10
  -1 -20   8   -1.30    4.90
  -1  20   7   11.60    7.40
   1 -20  -7    1.70    6.70
  -1 -20   7   10.40    5.80
  -1  20   6    9.70    7.30
  -1 -20   6   -3.20    5.50
  -1 -20   6   -2.30    9.60
   1 -20  -6   14.50    6.80
  -1  20   5   -8.00    7.10
  -1  20   5    0.90    6.90
  -1 -20   5   -8.00    6.50
  -1 -20   5    8.20    8.90
  -1 -20   5    8.90    6.10
  -1  20   4    9.10    7.50
  -1  20   4   22.30    8.30
   1 -20  -4   26.00    7.80
  -1 -20   4   13.90    6.40
  -1 -20   4   25.20    9.60
  -1 -20   4   16.50    6.60
  -1  20   3   81.79   10.20
  -1  20   3   91.19   10.00
  -1 -20   3  108.39   11.80
   1 -20  -3   71.79    9.10
   1 -20  -3   81.99   10.10
  -1 -20   3   75.49    8.60
  -1  20   2   46.10    8.50
  -1 -20   2   30.80    7.50
  -1 -20   2   24.10    9.00
   1 -20  -2   24.80    7.60
   1 -20  -2   29.50    8.40
   1  20  -1  144.99   10.60
  -1  20   1  173.78   11.30
  -1 -20   1  170.98   12.80
   1 -20  -1  159.88   12.00
   1 -20  -1  157.08   12.10
  -1 -20   1  170.18   12.00
   1  20   0  125.49   10.20
  -1  20   0  116.99   10.50
   1  20   0  108.39    9.60
  -1 -20   0  125.39   11.30
   1 -20   0  145.29   11.40
  -1 -20   0  118.79   10.50
   1 -20   0  126.39   10.70
   1  20   1   53.49    8.30
   1  20   1   52.59    8.10
  -1  20  -1   55.69    8.60
  -1 -20  -1   49.60    8.20
   1 -20   1   36.90    7.40
  -1 -20  -1   58.29    9.30
   1 -20   1   57.89    8.90
   1  20   2  223.68   14.20
   1  20   2  221.38   12.70
   1 -20   2  219.78   12.30
  -1 -20  -2  203.18   13.60
   1 -20   2  192.38   14.10
  -1 -20  -2  223.78   14.30
   1  20   3    4.70    6.40
   1  20   3    0.70    7.10
   1 -20   3   20.00    9.60
   1 -20   3   15.60    6.80
  -1 -20  -3   12.60    7.60
  -1 -20  -3   12.90    7.20
   1  20   4   97.89   10.70
   1  20   4   75.89    9.70
  -1 -20  -4  113.89   11.10
   1 -20   4  105.79   13.10
   1 -20   4  122.09   10.80
   1  20   5   13.80    7.50
   1 -20   5    6.20    9.10
  -1 -20  -5    4.80    7.40
   1 -20   5   -1.90    6.60
   1  20   6  -12.30    6.30
   1 -20   6    0.90    6.20
   1  20   7   20.40    8.20
   1 -20   7    2.70    6.30
  -1 -20  -7   20.50    8.90
   1  20   8  -14.90    6.70
   1 -20   8   -5.30    5.60
  -1 -20  -8    8.50    7.70
   1  20   9    5.70    7.80
  -1 -20  -9    8.20    8.30
   1  20  10   12.70    8.50
  -1 -20 -10    7.00    8.50
  -1  21  11   17.10    8.20
   1 -21 -11    4.00    8.50
  -1  21  10   12.20    8.20
   1 -21 -10   -0.50    8.20
  -1  21   9    3.40    7.80
   1 -21  -9    3.30    7.60
  -1  21   8    3.20    7.60
  -1 -21   8   -4.50    5.00
   1 -21  -8   -2.10    7.00
  -1  21   7   33.50    8.60
   1 -21  -7   26.90    7.80
  -1 -21   7   26.70    6.70
  -1  21   6    8.40    7.50
  -1 -21   6   24.90    6.90
  -1  21   5   49.00    9.40
  -1 -21   5   33.70   10.90
  -1 -21   5   53.79    8.10
  -1  21   4   37.20    8.60
  -1  21   4   38.70    9.20
  -1 -21   4   36.10    9.90
  -1 -21   4   36.00    7.60
  -1 -21   4   40.20    9.70
   1 -21  -4   44.20    8.60
  -1  21   3   -9.30    6.70
  -1  21   3    0.70    7.20
   1 -21  -3    1.10    7.20
   1 -21  -3   -3.30    6.30
  -1 -21   3   -1.40    8.80
  -1 -21   3   -1.30    6.20
  -1  21   2    0.20    6.50
   1 -21  -2    4.80    7.30
   1 -21  -2    4.70    7.20
  -1 -21   2   10.80    6.10
  -1 -21   2   13.00    8.90
  -1  21   1   75.09    8.90
   1  21  -1   88.09    9.50
   1 -21  -1   93.09   10.80
  -1 -21   1   87.59    9.90
   1 -21  -1   85.89   10.50
  -1 -21   1   92.69   10.90
   1  21   0  109.49   10.00
  -1  21   0  130.39   10.70
   1  21   0  122.99   10.60
  -1 -21   0  129.99   11.00
  -1 -21   0  142.29   12.40
   1 -21   0  158.58   12.30
   1 -21   0  143.99   11.80
   1  21   1   66.19    9.50
  -1  21  -1   50.89    8.20
   1  21   1   58.99    9.00
  -1 -21  -1   35.00    8.80
  -1 -21  -1   57.89    9.60
   1 -21   1   50.59    9.10
   1 -21   1   47.80    9.90
   1  21   2   71.89    9.60
   1  21   2   92.19   10.00
   1 -21   2   81.79   10.50
   1 -21   2   68.39    9.40
  -1 -21  -2   73.29    9.20
  -1 -21  -2   89.19   10.80
   1  21   3    9.10    7.30
   1  21   3    1.70    7.20
   1 -21   3    2.30    7.00
  -1 -21  -3   -4.10    6.50
  -1 -21  -3    8.70    7.50
   1 -21   3   -3.70    9.10
   1  21   4    1.00    7.60
   1  21   4   -9.20    6.10
   1 -21   4    2.40    6.80
  -1 -21  -4   -4.40    7.30
   1 -21   4    4.30    8.60
   1  21   5   -0.90    7.30
   1 -21   5   -3.40    6.60
  -1 -21  -5   -1.70    7.80
   1  21   6   20.60    8.00
   1 -21   6   11.40    7.30
   1  21   7   -1.10    7.10
   1 -21   7   -5.10    6.30
   1  21   8   10.30    8.30
   1 -21   8   -5.50    5.80
   1  21   9    6.80    8.10
   1  21  10    5.90    8.70
  -1  22  10   -8.20    7.60
   1 -22 -10   -3.40    8.40
  -1  22   9   12.30    8.10
   1 -22  -9   -8.80    7.40
  -1  22   8   -7.50    7.50
   1 -22  -8   -0.30    7.90
  -1 -22   8   -2.60    5.30
  -1  22   7    5.90    7.70
  -1 -22   7    2.70    6.10
  -1  22   6   16.50    7.90
  -1 -22   6   26.10    7.40
  -1  22   5   14.70    8.10
  -1 -22   5   13.60    6.60
  -1  22   4    5.70    7.70
  -1  22   4   21.70    7.50
  -1 -22   4    0.70    9.80
  -1 -22   4   12.10    6.80
   1 -22  -4    2.70    7.30
  -1  22   3   64.19    9.20
  -1  22   3   70.69    9.80
  -1 -22   3   56.79   10.30
   1 -22  -3   56.09    9.20
  -1 -22   3   70.09    9.00
   1 -22  -3   83.69   10.70
  -1  22   2   -1.10    6.90
  -1  22   2   -0.40    7.50
  -1 -22   2   -2.10    8.30
   1 -22  -2    7.20    7.00
   1 -22  -2   -5.00    7.20
  -1 -22   2  -10.00    6.20
   1  22  -1  179.78   13.10
  -1  22   1  180.38   12.40
  -1 -22   1  189.48   14.40
  -1 -22   1  191.58   13.40
   1 -22  -1  165.98   12.90
   1 -22  -1  196.28   14.20
   1  22   0    0.00    6.60
   1  22   0   -5.70    6.40
  -1  22   0    2.80    7.00
   1 -22   0    7.40    7.60
  -1 -22   0   -7.50    7.20
   1 -22   0    0.00    7.60
  -1 -22   0    9.70    8.40
   1  22   1   74.49   10.20
   1  22   1   65.49    9.50
  -1  22  -1   89.79   10.70
   1 -22   1   71.69   10.70
   1 -22   1   51.89    8.60
  -1 -22  -1   75.99   10.60
  -1 -22  -1   70.49   10.20
   1  22   2  143.29   12.30
   1  22   2  176.18   13.50
  -1 -22  -2  163.28   13.30
  -1 -22  -2  182.18   13.50
   1 -22   2  174.78   14.50
   1 -22   2  188.48   13.40
   1  22   3    3.20    7.30
   1  22   3   12.40    8.20
  -1 -22  -3   12.40    8.50
  -1 -22  -3    8.30    7.90
   1 -22   3   15.20   10.10
   1 -22   3   11.40    7.40
   1  22   4   -7.60    7.60
  -1 -22  -4    4.20    7.80
   1 -22   4    9.30    7.60
   1 -22   4   -9.80    9.60
   1  22   5    9.50    8.40
  -1 -22  -5   -1.00    8.10
   1 -22   5    9.00    7.20
   1  22   6   36.50    9.20
   1 -22   6   65.89    9.30
   1  22   7   -8.90    7.40
   1 -22   7   -2.20    6.50
   1  22   8    1.20    8.20
   1 -22   8   11.90    6.70
   1  22   9    0.70    8.40
   1  22  10   15.00    8.80
  -1  23  10  -15.50    7.20
  -1  23   9   -0.70    7.70
  -1  23   8    1.30    8.10
  -1 -23   8   16.70    6.20
  -1  23   7   -0.80    7.40
  -1 -23   7   -4.80    6.10
  -1  23   6   -6.40    7.30
  -1 -23   6   -0.30    6.60
  -1  23   5   -5.50    7.60
  -1 -23   5    6.90    7.00
  -1  23   4   -0.10    7.70
  -1 -23   4   22.20   12.10
  -1 -23   4    9.00    7.00
  -1  23   3   22.10    7.60
  -1  23   3    5.50    7.70
  -1 -23   3   11.30    9.50
   1 -23  -3   16.80    8.50
   1 -23  -3   17.90    8.00
  -1 -23   3   27.30    7.90
  -1  23   2   -5.40    6.60
  -1  23   2    0.20    7.50
   1 -23  -2   -4.90    7.60
   1 -23  -2    4.50    7.80
  -1 -23   2   -8.80    7.40
  -1 -23   2    9.40    7.10
   1  23  -1   72.29    9.20
  -1  23   1  104.79   10.60
   1  23  -1  104.19   12.10
   1 -23  -1   83.79   10.90
   1 -23  -1   99.89   11.30
  -1 -23   1   71.09    9.40
  -1 -23   1   78.59   11.30
   1  23   0   73.19    9.70
  -1  23   0   82.29   10.40
   1  23   0   91.29   10.20
  -1 -23   0   65.89    9.70
   1 -23   0   80.49    9.90
  -1 -23   0   90.39   11.00
   1 -23   0   82.79   11.10
  -1  23  -1    6.90    7.10
   1  23   1   12.30    7.60
   1  23   1   21.50    8.60
  -1 -23  -1   19.10    8.40
   1 -23   1   -1.10    7.80
  -1 -23  -1   18.10    8.40
   1 -23   1   17.30    8.90
   1  23   2   12.60    7.50
   1  23   2    4.60    7.50
  -1 -23  -2   -0.20    8.20
  -1 -23  -2   17.30    8.40
   1 -23   2    8.00    9.60
   1 -23   2    4.20    6.80
   1  23   3  -10.40    7.60
   1  23   3    9.30    7.80
   1 -23   3    6.80    7.70
   1 -23   3   -7.50    9.60
  -1 -23  -3   -6.50    7.10
  -1 -23  -3   -4.10    8.00
   1  23   4   32.40    9.30
  -1 -23  -4   40.80    9.70
   1 -23   4   24.20    8.20
   1  23   5   -1.80    8.10
   1 -23   5   -8.70    6.80
   1  23   6   11.20    8.80
   1 -23   6   12.80    7.80
   1  23   7   14.50    8.40
   1 -23   7   -5.60    6.80
   1  23   8   -8.20    7.80
   1 -23   8    1.90    6.70
   1  23   9   14.90    8.90
   1  23  10    6.80    8.80
  -1  24  10   -4.80    8.10
  -1  24   9    3.10    7.80
  -1  24   8   10.20    8.60
  -1 -24   8   -2.70    6.20
  -1  24   7   -9.80    7.60
  -1 -24   7   -2.80    6.40
  -1  24   6    5.20    8.30
  -1 -24   6    4.90    7.00
  -1  24   5   -2.00    7.90
  -1 -24   5    5.70    7.40
  -1  24   4   -1.20    8.10
  -1 -24   4  -10.30    6.70
  -1  24   3    7.10    8.30
   1 -24  -3    1.10    7.90
  -1 -24   3   -7.70   10.80
   1 -24  -3    1.50    8.40
  -1 -24   3    1.60    7.30
  -1  24   2   14.50    7.50
  -1  24   2   45.50    9.80
  -1 -24   2   34.80   10.50
   1 -24  -2   39.30    9.80
  -1 -24   2   39.00    9.00
   1 -24  -2   32.80    9.10
   1  24  -1   11.40    7.30
  -1  24   1   -1.40    7.50
   1 -24  -1    6.20    8.60
   1 -24  -1   13.80    8.60
  -1 -24   1    3.30    7.90
  -1 -24   1    8.40    8.10
  -1  24   0   14.90    8.20
   1  24   0    1.30    7.20
   1  24   0   15.10    8.70
  -1 -24   0   17.20    8.70
   1 -24   0   20.00    8.70
   1 -24   0    4.90    8.60
  -1 -24   0   13.00    8.80
  -1  24  -1    1.90    7.70
   1  24   1   22.90    8.10
   1  24   1   12.00    7.70
   1 -24   1    1.20    9.10
   1 -24   1   13.50    7.60
  -1 -24  -1    0.10    8.50
  -1 -24  -1    9.00    8.40
   1  24   2    1.30    8.20
   1  24   2   12.10    8.00
   1 -24   2   16.30    9.90
  -1 -24  -2   -6.50    7.10
   1 -24   2    7.00    8.00
  -1 -24  -2    6.20    8.60
   1  24   3   34.80    8.70
   1 -24   3   42.80    9.30
  -1 -24  -3   23.30    9.60
  -1 -24  -3   59.59   10.50
   1  24   4   -2.80    8.30
  -1 -24  -4    0.20    8.50
   1 -24   4    5.10    7.70
   1  24   5   21.90    8.50
   1 -24   5   29.50    8.90
   1  24   6   29.10    9.50
   1 -24   6    3.50    7.60
   1  24   7   -4.20    8.10
   1 -24   7    0.80    7.00
   1  24   8    0.40    8.60
   1 -24   8   17.60    7.40
   1  24   9   16.40    9.70
  -1  25  10    7.70    9.00
  -1  25   9  -18.10    7.50
  -1  25   8    0.90    8.40
  -1 -25   8   -3.80    6.40
  -1  25   7   14.50    9.20
  -1 -25   7    8.00    7.00
  -1  25   6    2.30    8.40
  -1 -25   6    1.20    7.00
  -1  25   5    5.10    8.70
  -1 -25   5    1.50    7.30
  -1  25   4    5.80    8.70
  -1 -25   4   -3.90    7.60
  -1  25   3   22.10    9.40
   1 -25  -3   18.00    9.00
   1 -25  -3   -1.70    8.00
  -1 -25   3   -0.90    7.50
  -1  25   2   23.60    8.90
   1 -25  -2   22.70    9.20
  -1 -25   2   33.10    9.30
   1 -25  -2   18.70    8.30
   1  25  -1   10.60    7.30
  -1  25   1   -2.20    8.10
  -1 -25   1   -2.00    8.20
  -1 -25   1    8.00    9.60
   1 -25  -1   16.90    8.60
   1 -25  -1    0.70    8.40
   1  25   0    1.10    7.40
  -1  25   0    6.20    8.10
   1  25   0    8.50    8.70
   1 -25   0    5.40    8.10
   1 -25   0   11.10    9.30
  -1 -25   0    6.80    9.10
  -1 -25   0    3.80    8.40
   1  25   1   27.80    8.50
   1  25   1   14.50    8.20
   1 -25   1   14.10    9.80
   1 -25   1   22.00    8.90
  -1 -25  -1   30.50    9.60
  -1 -25  -1   18.30    9.00
   1  25   2    3.70    9.00
   1 -25   2    5.40    7.20
  -1 -25  -2   13.60    8.20
  -1 -25  -2    8.40    8.90
   1  25   3   40.20    9.80
   1 -25   3   15.00    8.50
  -1 -25  -3   32.80    9.20
  -1 -25  -3   22.10    9.90
   1  25   4    7.20    8.40
  -1 -25  -4   -1.20    8.90
   1 -25   4    2.20    7.90
   1  25   5    0.60    7.40
   1 -25   5    8.90    8.20
   1  25   6    5.70    9.00
   1 -25   6    2.30    8.00
   1  25   7   -6.80    8.00
   1 -25   7   -8.30    7.10
   1  25   8   -3.70    8.60
   1 -25   8    2.30    7.20
   1  25   9    1.60    9.10
  -1  26   9   -0.70    8.50
  -1  26   8    9.40    9.20
  -1 -26   8   10.30    7.20
  -1  26   7    4.20    8.60
  -1 -26   7   -3.70    7.00
  -1  26   6   27.50    9.20
  -1 -26   6   52.29    9.30
  -1  26   5    6.40    7.80
  -1 -26   5    9.50    8.10
  -1  26   4   -6.50    8.80
  -1 -26   4   14.00    8.40
  -1  26   3   -0.50    8.40
   1 -26  -3   -9.00    8.10
   1 -26  -3   -5.80    8.30
  -1 -26   3   -5.20    8.00
  -1  26   2    0.30    8.20
  -1 -26   2    0.00    8.10
   1 -26  -2   10.90    8.10
   1 -26  -2   10.80    9.30
   1  26  -1    0.40    7.10
  -1  26   1   -5.60    8.20
   1 -26  -1   18.70    9.30
   1 -26  -1   16.10    9.10
  -1 -26   1   16.40    8.80
  -1  26   0    9.80    8.40
   1  26   0   -1.20    7.50
   1  26   0   -3.30    8.30
   1 -26   0   -3.50    8.70
  -1 -26   0   -4.90   13.60
  -1 -26   0   -1.20    7.40
   1 -26   0   -0.50    8.50
   1  26   1    5.40    7.90
   1  26   1    8.30    8.30
   1 -26   1   -1.20    8.40
  -1 -26  -1   16.20    9.10
  -1 -26  -1   14.70    9.90
   1  26   2   45.50    9.80
  -1 -26  -2   46.70   11.10
   1 -26   2   43.50   10.30
  -1 -26  -2   35.40   10.50
   1  26   3    2.80    7.70
  -1 -26  -3   -2.40    9.00
  -1 -26  -3   -5.90    8.60
   1 -26   3   -6.90    7.90
   1  26   4   -8.80    8.00
   1 -26   4   -4.00    8.00
   1  26   5    1.60    7.70
   1 -26   5    4.50    7.90
   1  26   6    6.90    9.50
   1 -26   6   -6.70    7.60
   1  26   7    7.70    9.20
   1 -26   7    3.50    8.00
   1  26   8    5.30    9.30
   1 -26   8    4.00    7.90
   1  26   9   -2.70    9.20
  -1  27   9   -7.20    8.30
  -1  27   8    2.90    9.10
  -1 -27   8   -6.30    6.80
  -1  27   7   -0.70    8.70
  -1 -27   7   -7.10    7.20
  -1  27   6   -6.20    8.50
  -1 -27   6  -10.40    7.00
  -1  27   5   -6.10    7.90
  -1 -27   5   -9.70    7.70
  -1  27   4   28.00   10.00
  -1 -27   4   11.20    8.60
  -1  27   3   -4.00    8.30
   1 -27  -3  -12.00    8.50
  -1 -27   3   -4.60    8.10
  -1  27   2  -14.70    8.20
   1 -27  -2  -10.40    9.00
   1 -27  -2    0.40    9.00
  -1 -27   2   -8.50    7.90
   1  27  -1   18.00    8.30
  -1  27   1   -0.40    8.50
   1 -27  -1    0.20    9.10
   1 -27  -1   11.10    9.10
  -1 -27   1    2.20    8.90
   1  27   0    7.80    7.90
  -1  27   0    1.30    7.70
   1  27   0    6.70    7.90
  -1 -27   0   10.90    8.30
   1 -27   0    5.00    9.10
   1  27   1   -8.40    7.70
   1 -27   1    2.50    8.50
  -1 -27  -1   -0.90    8.90
   1  27   2   -0.60    8.10
  -1 -27  -2    2.50    9.40
   1 -27   2    4.70    8.60
   1  27   3    5.70    9.10
   1 -27   3    0.90    8.20
  -1 -27  -3    1.60    9.40
   1  27   4   19.20   10.10
   1 -27   4   10.00    8.50
   1  27   5   33.10   10.50
   1 -27   5    1.60    8.60
   1  27   6   25.40   10.70
   1 -27   6    6.50    8.70
   1  27   7    5.30    9.30
   1 -27   7   -2.90    7.80
   1  27   8    1.70    9.40
   1 -27   8    6.80    8.10
  -1  28   8    4.80    9.50
  -1 -28   8    0.90    7.40
  -1  28   7    7.40    9.60
  -1 -28   7  -10.20    7.10
  -1  28   6   -8.00    8.50
  -1 -28   6    4.70    8.10
  -1  28   5    5.00    9.40
  -1 -28   5   20.40    8.90
  -1  28   4    6.80    9.30
  -1 -28   4   10.50    9.00
  -1  28   3  -11.40    8.90
  -1 -28   3    0.50    8.70
   1 -28  -3   -8.90    9.30
  -1  28   2  -15.90    7.10
  -1 -28   2   12.50    9.40
   1 -28  -2    5.50    9.70
  -1  28   1   -0.80    7.70
  -1 -28   1    4.00    8.10
   1 -28  -1   -0.50    8.00
  -1  28   0    8.80    8.20
   1 -28   0   -4.30    9.00
  -1 -28   0   -5.70    9.20
   1  28   1   13.50    9.40
  -1 -28  -1    5.40    9.30
   1 -28   1    4.90    8.20
   1  28   2   30.30    9.60
  -1 -28  -2   11.80   10.00
   1 -28   2   46.40   10.20
   1  28   3   11.30    9.10
  -1 -28  -3    8.00   10.00
   1 -28   3    7.80    8.90
   1  28   4   13.40    8.70
   1 -28   4   -0.60    8.40
   1  28   5   19.20   10.40
   1 -28   5   21.70    9.10
   1  28   6    5.40    9.80
   1 -28   6    8.20    8.90
   1  28   7    1.20    9.00
   1 -28   7    6.80    8.70
   1  28   8   10.30    9.60
   1 -28   8    0.60    8.10
  -1  29   8    2.90    9.80
  -1 -29   8   -1.10    7.50
  -1  29   7   10.80   10.10
  -1 -29   7  -10.30    7.70
  -1  29   6    9.40    9.60
  -1 -29   6   -3.90    8.20
  -1  29   5   -0.50    9.80
  -1 -29   5    5.20    8.70
  -1  29   4   -6.90    8.20
  -1 -29   4   17.20    9.20
  -1  29   3   16.00    9.00
   1 -29  -3    5.00   10.00
  -1 -29   3   -2.30    8.40
  -1  29   2   12.00   10.10
  -1 -29   2   -0.40    8.30
   1 -29  -2    5.80    8.40
  -1  29   1   11.10    8.20
  -1 -29   1   -1.20    9.10
   1 -29  -1    2.70    8.50
  -1  29   0    3.70    9.80
   1 -29   0   -0.10    9.20
  -1 -29   0  -10.80    8.50
   1  29   1   -4.30    9.50
   1 -29   1   -1.20    8.90
  -1 -29  -1    8.50    8.50
   1  29   2   13.30    9.00
   1 -29   2    9.60    9.40
  -1 -29  -2    6.30    9.80
   1  29   3    8.10    8.40
   1 -29   3    4.90    9.20
  -1 -29  -3   14.40   10.10
   1  29   4    3.10    9.30
   1 -29   4    7.00    8.60
   1  29   5  -10.60    9.20
   1 -29   5    6.20    9.00
   1  29   6   13.00   10.60
   1 -29   6   12.60    9.10
   1  29   7    4.70   10.00
   1 -29   7    6.90    8.70
  -1  30   7   -8.80    9.10
  -1 -30   7    2.70    8.60
  -1  30   6    9.10   10.00
  -1 -30   6  -18.90    7.60
  -1  30   5    2.10    9.60
  -1 -30   5   -0.50    8.40
  -1  30   4  -28.90    8.20
  -1 -30   4   10.10    9.10
  -1  30   3    8.90    9.90
  -1 -30   3  -16.50    8.30
   1 -30  -3   11.70   11.00
  -1  30   2    6.50    9.50
   1 -30  -2   11.50   10.20
  -1 -30   2    6.00    9.70
  -1  30   1   28.20    9.80
   1 -30  -1    0.20    8.90
  -1 -30   1   14.60    9.00
  -1 -30   0  -16.80    8.70
   1 -30   0   -1.80    9.50
   1  30   1   -3.70    9.60
  -1 -30  -1   -8.90    9.50
   1 -30   1   -3.70    9.50
   1  30   2    8.00    8.80
   1 -30   2   20.50    9.80
  -1 -30  -2    0.70    9.10
   1  30   3   12.70   10.00
   1 -30   3   24.60    9.70
  -1 -30  -3   13.00   11.00
   1  30   4   13.70    9.90
   1 -30   4   15.70    9.20
   1  30   5    0.80   10.10
   1 -30   5   12.90    9.50
   1  30   6   20.10   10.30
   1 -30   6    1.80    9.30
   1  30   7    7.50    9.60
   1 -30   7   -5.80    8.30
  -1  31   7   -0.90    9.60
  -1 -31   7   -7.90    8.10
  -1  31   6    1.00   10.10
  -1 -31   6  -13.90    8.00
  -1  31   5    3.50    9.90
  -1 -31   5   -7.80    8.40
  -1  31   4  -17.00    9.60
  -1 -31   4   -1.00    9.10
  -1  31   3   -5.20    9.60
  -1 -31   3   -8.80    8.80
   1 -31  -3   13.30   11.30
  -1  31   2   -8.30    8.50
  -1 -31   2   -0.30    9.00
   1 -31  -2   -8.60   10.20
  -1  31   1   17.80   10.40
  -1 -31   1   14.80   10.10
   1 -31  -1   -6.30    9.60
   1 -31   0    8.80    9.80
  -1 -31   0  -11.60    9.50
   1  31   1    5.60    9.10
   1 -31   1  -13.80    9.30
  -1 -31  -1   -4.30   10.20
   1  31   2    9.40    9.10
  -1 -31  -2   -0.70    9.10
   1 -31   2    3.30    8.90
   1  31   3  -10.80    9.60
   1 -31   3    5.60    9.80
  -1 -31  -3  -15.70   10.00
   1  31   4   -0.70    8.80
   1 -31   4   -4.20    8.90
   1  31   5  -11.00    9.30
   1 -31   5    9.30    9.80
   1  31   6    9.70   10.70
   1 -31   6  -22.40    7.90
  -1  32   6    8.70   10.60
  -1 -32   6    2.80    9.70
  -1  32   5   20.00   10.60
  -1 -32   5    3.60    9.10
  -1  32   4  -14.90    9.80
  -1 -32   4    3.90    9.70
  -1  32   3   14.40   11.00
  -1 -32   3    4.40   10.20
  -1  32   2    9.90   10.90
  -1 -32   2    0.60    9.90
   1 -32  -2   -0.40   11.00
  -1  32   1    9.00   10.40
  -1 -32   1    7.20    9.10
   1 -32  -1    6.20   10.90
  -1 -32   0    5.80   10.00
   1 -32   0   -3.00    9.70
   1  32   1   -7.10   10.00
  -1 -32  -1   -6.20    9.80
   1 -32   1   14.50   10.70
   1  32   2    7.80    9.90
  -1 -32  -2   -3.40   10.60
   1 -32   2   15.00   10.70
   1  32   3   -8.80   10.20
  -1 -32  -3    1.90   11.00
   1 -32   3   -8.00    9.30
   1  32   4    9.70   10.30
   1 -32   4   -2.80    9.60
   1  32   5   -3.20   10.40
   1 -32   5   -5.20    9.10
   1  32   6   -5.20   10.20
   1 -32   6    4.00    9.00
  -1  33   6    0.20   10.00
  -1 -33   6    7.60   10.20
  -1  33   5  -10.80    9.40
  -1 -33   5   10.10   10.00
  -1  33   4    2.90    9.40
  -1 -33   4    5.60    9.70
  -1  33   3    0.40   10.20
  -1 -33   3   -0.30    9.40
  -1  33   2    3.90   10.20
  -1 -33   2   -9.20   10.30
   1 -33  -2  -17.20    9.70
  -1  33   1   -5.90   10.10
  -1 -33   1   12.70   10.80
   1 -33  -1  -20.30   10.10
   1 -33   0   18.40   10.90
  -1 -33   0   -8.60   10.50
   1 -33   1   24.00   11.10
  -1 -33  -1   15.20   11.60
   1  33   2    0.50   10.30
  -1 -33  -2    6.50   11.50
   1 -33   2    3.40   10.50
   1  33   3   -6.60   10.60
  -1 -33  -3   -1.70   12.20
   1 -33   3   14.60   10.40
   1  33   4   -5.60   10.20
   1 -33   4   -8.40    9.40
   1  33   5    8.40   10.70
   1 -33   5   -8.70    9.60
  -1  34   5    1.10    9.10
  -1 -34   5   -0.90   10.00
  -1  34   4  -11.40   10.20
  -1 -34   4   25.80   11.30
  -1  34   3   12.80   11.50
  -1 -34   3   -3.90    9.60
  -1  34   2   13.50   10.20
  -1 -34   2   -5.60    9.40
   1 -34  -2   12.80   10.20
   1 -34  -1  -19.10   11.00
  -1 -34   1  -18.60    9.70
   1 -34   0    0.20   10.90
  -1 -34   0  -14.00    9.90
   1 -34   1   -4.10    9.90
  -1 -34  -1   14.70   11.90
   1  34   2    1.20   10.60
   1 -34   2   22.20   10.90
  -1 -34  -2   11.50   10.60
   1  34   3   18.10   11.30
   1 -34   3  -16.40    9.70
   1  34   4   -8.60   10.60
   1 -34   4   -6.30    9.50
  -1  35   4   17.10   11.30
  -1 -35   4   25.40   11.60
  -1  35   3   -0.30   10.50
  -1 -35   3  -19.20    9.60
  -1  35   2    4.30   11.30
   1 -35  -2    4.10   11.80
  -1 -35   2   -0.10   10.40
   1 -35  -1   -9.40   11.20
  -1 -35   1    4.80   10.70
  -1 -35   0   -1.30   11.10
   1 -35   0  -12.70   10.00
   1 -35   1    8.00   11.20
  -1 -35  -1    1.50   10.80
   1  35   2   14.60   11.20
   1 -35   2   15.10   11.20
  -1 -35  -2   -5.60   11.40
   1  35   3    6.60   10.60
   1 -35   3    4.70   11.10
   1  35   4    9.20   11.80
   1 -35   4  -20.70   10.10
  -1  36   3   -6.60   11.20
  -1 -36   3   -0.50   11.00
  -1  36   2    7.30   11.80
   1 -36  -2   -4.70   11.50
  -1 -36   2  -14.60   10.20
   1 -36  -1    3.90   11.70
  -1 -36   1   11.80   11.90
  -1 -36   0    9.50   11.60
   1 -36   0   -1.60    9.70
  -1 -36  -1   -9.20   11.20
   1 -36   1    8.70   11.70
   1  36   2  -10.80   10.20
  -1 -36  -2   18.80   12.80
   1 -36   2  -12.40   10.30
  -2   0  13    1.80   11.20
   2   0 -13   -6.10    4.30
  -2   0  12    6.80   10.60
   2   0 -12   15.30    4.40
   2   0 -11    3.20    3.50
  -2   0  11    6.10   10.10
  -2   0  10   20.10    9.80
  -2   0   9    8.20    8.40
  -2   0   8    1.40    7.60
  -2   0   8   -4.70    5.50
  -2   0   7    1.40    6.10
   2   0  -7   -2.20    5.80
  -2   0   7   -3.50    4.60
  -2   0   6   12.90    6.50
  -2   0   6    7.20    4.20
  -2   0   6   11.60    3.90
   2   0  -6    9.80    4.70
   2   0  -6   13.30    5.70
  -2   0   5   -7.50    4.80
   2   0  -5    6.30    4.80
  -2   0   5   -3.40    2.90
   2   0  -5    1.80    3.10
  -2   0   5    0.30    3.50
   2   0  -5   -2.80    3.50
  -2   0   4  179.18    8.90
   2   0  -4  163.68    8.80
   2   0  -4  184.38    6.20
  -2   0   4  174.88    6.90
  -2   0   4  182.08    6.10
   2   0  -3    2.60    4.30
  -2   0   3    0.20    2.30
  -2   0   3    2.40    3.60
   2   0  -3    1.40    2.20
  -2   0   3   -0.50    2.60
  -2   0   2   25.90    4.10
  -2   0   2   33.40    2.20
   2   0  -2   35.10    4.40
   2   0  -2   31.50    2.30
   2   0  -1   -0.50    2.50
  -2   0   1    2.30    2.10
  -2   0   1   -3.30    2.60
  -2   0   0 1893.41   33.40
  -2   0  -1   12.30    4.10
   2   0   1    5.10    3.80
  -2   0  -2  524.85   11.50
  -2   0  -2  525.35   14.50
  -2   0  -2  516.85   13.30
   2   0   2  525.35   13.90
  -2   0  -3   -4.60    2.60
   2   0   3   -1.50    3.50
   2   0   3   -2.20    4.30
   2   0   3   -7.60    4.70
   2   0   4   38.80    6.50
  -2   0  -4   29.30    3.50
   2   0   4   18.90    6.10
   2   0   4   29.50    4.50
  -2   0  -5   -4.70    3.80
   2   0   5   -3.00    3.80
   2   0   5   -6.20    5.10
   2   0   5    3.60    5.80
  -2   0  -5    2.80    3.10
   2   0   6  406.16   15.40
   2   0   6  411.46   12.50
  -2   0  -6  402.86   13.40
  -2   0  -6  406.06   11.40
   2   0   6  402.46   15.70
   2   0   7   15.80    4.80
   2   0   7   -5.00    7.10
  -2   0  -7   -6.10    3.80
   2   0   7   -0.40    6.80
   2   0   8   10.90    5.10
   2   0   8   17.80    8.50
  -2   0  -8   26.30    5.30
   2   0   8   -0.10    8.20
   2   0   9   -4.00    4.80
   2   0   9    0.40    8.30
   2   0   9    1.50    7.90
  -2   0  -9    5.60    4.90
   2   0  10   12.10    9.70
  -2   0 -10    0.70    5.30
  -2   0 -11  -10.20    5.70
   2   0  11    3.80   10.40
   2   0  12   21.50   11.50
  -2   0 -12    9.10    7.20
  -2   1  13   -1.10   10.70
   2   1 -13    1.10    4.90
   2  -1 -13   -4.40    4.60
  -2  -1  13    0.80   11.60
  -2   1  12   -3.10   10.40
   2   1 -12    2.50    4.10
   2  -1 -12   12.80    4.60
  -2  -1  12    5.20   10.80
   2   1 -11    1.20    3.20
  -2   1  11   -6.30    9.60
  -2  -1  11    0.60    8.50
   2  -1 -11    3.00    3.70
  -2   1  10   12.60    9.40
  -2  -1  10   -1.80    8.60
   2  -1 -10    5.80    3.10
  -2   1   9    3.30    7.40
  -2  -1   9   11.40    8.70
  -2   1   8   50.69    7.30
  -2   1   8   57.99    9.60
  -2  -1   8   49.90    9.50
  -2   1   7   19.70    6.90
  -2   1   7   28.00    5.90
   2   1  -7   21.30    6.90
  -2  -1   7   26.70    5.50
   2  -1  -7   25.00    7.20
  -2  -1   7   33.00    7.30
  -2  -1   7   31.70    5.40
  -2   1   6  293.87   10.60
  -2   1   6  288.27   13.20
  -2  -1   6  291.47   10.20
  -2  -1   6  280.47   12.60
   2  -1  -6  304.27    9.40
   2  -1  -6  275.87   12.90
  -2  -1   6  291.67    9.90
   2   1  -5  284.87   11.30
   2   1  -5  276.17    9.00
   2   1  -5  277.97    9.00
  -2   1   5  270.77   11.90
  -2   1   5  293.07    9.70
  -2  -1   5  296.47    9.00
   2  -1  -5  267.07   11.30
   2  -1  -5  285.37    9.80
   2  -1  -5  270.67    8.20
  -2  -1   5  278.47   11.20
  -2  -1   5  270.87   11.20
  -2  -1   5  278.07    8.90
   2   1  -4  137.29    8.30
  -2   1   4  131.69    5.10
   2   1  -4  128.99    5.80
  -2   1   4  127.39    6.40
   2   1  -4  136.59    6.10
  -2   1   4  133.89    7.50
   2  -1  -4  134.99    5.20
   2  -1  -4  129.99    8.40
  -2  -1   4  133.89    6.00
  -2  -1   4  136.99    5.90
  -2  -1   4  137.39    8.30
   2   1  -3  480.15   12.70
  -2   1   3  460.55   10.80
  -2   1   3  477.45   12.60
  -2   1   3  467.35    9.00
   2   1  -3  474.35   10.20
  -2  -1   3  461.95    9.70
   2  -1  -3  454.35    9.00
  -2  -1   3  464.95   10.20
  -2  -1   3  459.55   12.20
   2  -1  -3  465.35   12.70
   2   1  -2 1691.93   31.20
  -2   1   2 1702.93   28.20
   2   1  -2 1699.83   29.40
  -2   1   2 1675.13   31.00
  -2  -1   2 1704.73   29.40
   2  -1  -2 1676.03   28.20
  -2  -1   2 1730.63   31.30
   2  -1  -2 1686.23   28.20
   2  -1  -2 1715.23   31.10
  -2   1   1 1382.06   24.80
   2   1  -1 1377.06   24.40
   2   1  -1 1374.66   25.00
   2  -1  -1 1386.86   24.70
  -2  -1   1 1376.16   25.00
  -2  -1   1 1370.06   24.40
  -2   1   0  113.59    5.30
  -2   1   0  121.09    3.80
   2   1   0  121.39    5.40
  -2  -1   0  104.59    5.10
  -2  -1   0  123.69    5.60
  -2   1  -1 9763.42  163.88
   2   1   1 9781.42  163.98
  -2   1  -1 9883.61  164.08
  -2  -1  -1 9887.01  163.98
   2  -1   1 9999.00  164.08
  -2   1  -2   13.30    4.10
   2   1   2    6.30    4.50
  -2  -1  -2   12.40    4.50
  -2  -1  -2   20.80    3.20
   2  -1   2   12.30    4.40
   2   1   3   60.79    5.80
   2   1   3   59.59    5.90
   2   1   3   79.79    5.60
   2  -1   3   78.89    6.80
   2  -1   3   69.09    6.10
  -2  -1  -3   73.49    4.50
   2  -1   3   67.79    5.20
   2   1   4    5.40    5.00
  -2   1  -4   -2.20    3.10
   2   1   4   -4.60    3.80
   2  -1   4   -5.30    4.90
   2  -1   4    3.70    5.50
   2  -1   4    3.10    3.60
  -2  -1  -4    2.20    2.90
  -2   1  -5  215.08    9.00
   2   1   5  240.58   11.90
   2   1   5  240.58   11.30
   2   1   5  248.18    9.20
   2  -1   5  217.38    8.80
  -2  -1  -5  238.78    8.20
   2  -1   5  237.58   11.80
   2   1   6    7.10    6.20
   2   1   6   -3.30    6.10
  -2   1  -6    2.30    4.60
   2   1   6   14.90    4.60
  -2  -1  -6   -2.30    3.60
   2  -1   6   -4.60    6.00
   2  -1   6   12.50    6.30
  -2  -1  -6    1.40    4.80
   2  -1   6   -1.10    4.20
  -2   1  -7   -3.20    3.70
   2   1   7    3.10    7.50
   2   1   7   20.30    7.80
   2   1   7   10.70    4.80
   2  -1   7    6.20    4.50
  -2  -1  -7   -4.90    3.90
   2  -1   7    1.50    7.30
   2  -1   7    4.00    6.90
   2   1   8  147.29    9.20
   2   1   8  142.79   12.30
   2   1   8  158.68   12.90
  -2   1  -8  159.48    8.90
   2  -1   8  148.49   13.30
   2  -1   8  154.18   12.60
   2  -1   8  149.69    8.90
  -2  -1  -8  146.29    9.00
   2   1   9   10.90    8.90
   2   1   9    1.20    4.80
  -2   1  -9    5.20    4.90
   2   1   9  -19.00    7.10
  -2  -1  -9   -2.10    4.80
   2  -1   9    6.40    4.60
   2  -1   9   -1.50    8.40
   2  -1   9  -13.20    8.10
  -2   1 -10    8.80    5.40
   2   1  10   -5.50    9.10
   2  -1  10    5.50    9.10
  -2  -1 -10  -10.20    5.10
  -2   1 -11    8.40    6.00
   2   1  11    1.90   10.00
  -2  -1 -11   -6.50    5.90
   2  -1  11  -17.90    9.50
   2   1  12   -1.00   10.60
  -2   1 -12   10.80    6.80
  -2  -1 -12   -7.80    6.30
   2  -1  12  -10.30   10.40
   2   2 -13    2.70    4.60
  -2   2  13    5.20   12.10
   2  -2 -13   -1.50    4.80
  -2  -2  13   17.70   12.60
  -2   2  12   -8.10   10.40
   2   2 -12   -2.90    3.80
  -2  -2  12    8.40   11.10
   2  -2 -12    6.40    4.40
  -2   2  11   -0.10   10.20
   2  -2 -11   -4.10    3.70
  -2  -2  11   -2.40    9.60
  -2   2  10    4.50    8.10
   2  -2 -10    0.30    3.30
  -2  -2  10  -15.90    8.30
  -2   2   9    9.30    8.70
  -2  -2   9   14.60    8.90
   2  -2  -9    0.90    2.60
  -2   2   8    3.70    5.90
  -2   2   8    0.90    6.80
  -2  -2   8  -18.50    7.20
   2   2  -7   -5.30    5.60
  -2   2   7    7.10    6.40
  -2   2   7   -2.50    4.80
  -2  -2   7   -9.50    6.40
  -2  -2   7    1.90    4.20
   2  -2  -7    5.70    6.10
  -2  -2   7    0.90    4.50
  -2   2   6   99.39    8.90
   2   2  -6   92.59    6.90
  -2   2   6   97.69    7.20
   2   2  -6   84.99    8.00
   2  -2  -6   96.99    8.40
   2  -2  -6   95.19    6.20
  -2  -2   6   91.79    8.30
  -2  -2   6   94.29    7.70
  -2  -2   6   90.49    7.00
  -2  -2   6   91.49    6.80
  -2   2   5  182.78    8.40
  -2   2   5  189.68    9.70
   2   2  -5  190.68    7.90
   2   2  -5  177.08    7.20
   2   2  -5  190.38    9.60
  -2  -2   5  188.98    9.70
   2  -2  -5  187.78    6.70
  -2  -2   5  182.98    7.20
   2  -2  -5  195.38   10.50
  -2  -2   5  185.38    7.60
   2  -2  -5  198.98    9.50
  -2   2   4  242.18   12.10
   2   2  -4  234.38    9.80
  -2   2   4  247.38    8.60
   2   2  -4  243.08    7.00
   2   2  -4  252.27    8.00
  -2  -2   4  248.48    7.10
   2  -2  -4  244.68    6.40
   2  -2  -4  245.68   10.20
  -2  -2   4  246.58    8.00
  -2  -2   4  225.98    9.80
   2   2  -3   32.50    4.50
  -2   2   3   41.60    4.20
   2   2  -3   44.60    3.80
  -2  -2   3   38.80    3.60
  -2  -2   3   31.90    5.00
   2  -2  -3   49.50    5.40
  -2  -2   3   43.10    2.60
   2   2  -2    6.40    2.80
  -2   2   2    3.30    3.50
   2   2  -2    5.50    3.90
  -2  -2   2    7.20    2.90
  -2  -2   2    1.10    3.70
   2  -2  -2    6.50    3.80
   2   2  -1 2372.06   41.40
  -2   2   1 2423.86   40.60
  -2   2   1 2405.36   41.40
   2   2  -1 2445.06   40.60
  -2  -2   1 2393.26   41.50
  -2  -2   1 2409.16   40.50
   2  -2  -1 2398.56   41.40
  -2  -2   1 2410.96   41.90
   2   2   0  166.98    5.90
  -2   2   0  163.58    6.00
  -2   2   0  161.98    4.30
   2   2   0  154.98    6.30
   2  -2   0  162.08    6.10
  -2  -2   0  148.79    6.30
   2  -2   0  158.78    4.20
  -2  -2   0  152.78    5.90
   2   2   1  287.97    9.30
  -2   2  -1  283.77    9.10
  -2   2  -1  275.27    9.10
  -2  -2  -1  275.97    9.00
   2  -2   1  272.37    8.80
   2   2   2   58.39    5.70
  -2   2  -2   56.39    5.50
  -2  -2  -2   55.79    5.20
   2  -2   2   61.29    5.80
   2  -2   2   69.79    6.20
  -2  -2  -2   69.19    4.30
   2   2   3  439.56   13.50
   2   2   3  429.66   11.50
  -2   2  -3  431.96   10.10
   2   2   3  452.15   13.30
  -2  -2  -3  434.06   10.40
   2  -2   3  434.56   13.10
   2  -2   3  431.56   11.30
   2  -2   3  418.46   13.20
   2  -2   3  407.96   12.80
   2   2   4   66.99    5.60
   2   2   4   62.69    7.10
  -2   2  -4   71.99    4.90
   2  -2   4   53.49    6.60
  -2  -2  -4   57.99    4.40
   2  -2   4   59.49    5.30
   2  -2   4   69.99    7.00
   2  -2   4   65.69    6.80
  -2   2  -5    7.20    3.90
   2   2   5    0.50    5.40
   2   2   5    1.90    4.20
   2   2   5    0.20    5.50
   2  -2   5    7.80    4.00
   2  -2   5    9.20    5.70
  -2  -2  -5    6.70    3.40
   2   2   6   87.49    8.80
   2   2   6  106.19    9.40
   2   2   6  100.39    7.10
  -2   2  -6  101.69    7.90
  -2  -2  -6   96.89    6.10
   2  -2   6   86.69    6.70
   2  -2   6  107.59    9.60
   2   2   7   12.50    7.30
   2   2   7    5.30    4.50
   2   2   7   -6.40    6.40
   2  -2   7    7.30    7.20
   2  -2   7  -13.00    6.30
   2  -2   7  -11.80    4.00
  -2  -2  -7    2.80    4.10
   2   2   8   -2.20    7.60
   2   2   8    8.90    5.30
  -2   2  -8    1.70    4.30
   2   2   8    0.20    7.80
   2  -2   8    8.20    7.70
   2  -2   8    1.80    4.70
   2  -2   8    1.30    8.10
  -2  -2  -8    7.70    4.70
   2  -2   8    3.40    4.30
  -2   2  -9    3.60    4.90
   2   2   9   -1.70    4.90
   2   2   9   -3.10    8.50
   2   2   9   -9.40    7.90
  -2  -2  -9   -2.80    5.10
   2  -2   9    2.80    4.50
   2  -2   9   -2.20    8.20
   2  -2   9    8.00    9.20
   2   2  10   -5.80    9.10
  -2   2 -10    2.50    5.10
  -2  -2 -10   -6.70    5.60
   2  -2  10    3.00    9.60
   2   2  11    7.60   10.30
  -2   2 -11    5.10    5.90
   2  -2  11   -8.80    9.30
  -2  -2 -11  -10.60    5.80
  -2   2 -12    4.70    6.60
   2   2  12   15.40   10.80
  -2  -2 -12    7.40    6.70
   2  -2  12   14.40   10.90
  -2   3  13    5.50   11.40
   2   3 -13    6.10    4.50
   2  -3 -13    3.40    5.10
  -2  -3  13   18.10   12.40
  -2   3  12  -14.30    9.00
   2   3 -12    4.60    3.90
   2  -3 -12   -2.40    4.50
  -2  -3  12   -5.90    9.30
  -2   3  11  -13.40    9.60
  -2  -3  11    1.10   10.40
   2  -3 -11    9.50    4.20
  -2   3  10   10.00    9.50
  -2  -3  10   -1.30    9.20
   2  -3 -10    0.20    3.50
  -2   3   9   -8.10    8.20
   2  -3  -9    3.40    3.00
  -2  -3   9    0.10    8.30
  -2   3   8    1.20    5.90
  -2   3   8    0.10    7.60
  -2  -3   8  -10.50    7.50
   2  -3  -8    2.90    2.30
   2   3  -7   -3.70    5.50
  -2   3   7   -2.80    5.10
  -2   3   7    1.30    6.30
  -2  -3   7    3.70    4.60
   2  -3  -7  -14.20    5.50
  -2  -3   7   -7.40    6.70
  -2  -3   7    6.80    4.30
   2  -3  -7    3.30    1.70
   2   3  -6   29.70    4.40
  -2   3   6   25.60    2.50
  -2   3   6   31.90    5.50
   2   3  -6   19.10    6.20
  -2   3   6   28.20    6.90
   2  -3  -6   21.30    5.80
  -2  -3   6   19.80    4.10
  -2  -3   6   26.90    5.00
  -2  -3   6   10.60    5.30
   2  -3  -6   25.40    3.90
  -2   3   5   36.30    6.00
   2   3  -5   54.09    6.30
  -2   3   5   48.80    3.60
  -2   3   5   55.79    5.60
   2   3  -5   49.99    4.30
  -2  -3   5   48.30    5.00
  -2  -3   5   47.50    4.00
   2  -3  -5   36.30    5.50
   2  -3  -5   55.49    4.40
   2  -3  -5   46.70    6.20
  -2  -3   5   45.40    5.70
  -2   3   4  221.18    8.70
   2   3  -4  245.88    9.80
   2   3  -4  222.88    8.10
   2   3  -4  221.48    6.40
  -2   3   4  200.68    9.80
  -2  -3   4  228.48    8.10
  -2  -3   4  230.08    9.60
  -2  -3   4  221.98    6.30
   2  -3  -4  216.48    5.80
   2  -3  -4  209.98    9.20
   2   3  -3   -4.60    3.40
   2   3  -3   -0.60    3.20
  -2   3   3   -3.40    3.40
  -2  -3   3   -1.70    3.10
  -2  -3   3   -0.50    1.50
  -2  -3   3    4.00    4.10
   2  -3  -3    1.10    3.80
   2  -3  -3    1.00    1.60
   2   3  -2    8.50    4.00
   2   3  -2    1.40    3.00
  -2  -3   2    2.10    3.60
   2  -3  -2   -4.50    3.50
  -2  -3   2    7.10    3.10
   2   3  -1  350.86    7.50
   2   3  -1  355.26    8.90
  -2   3   1  351.46    7.70
  -2  -3   1  344.87    9.00
  -2  -3   1  348.17    7.40
   2  -3  -1  347.87    7.90
   2  -3  -1  355.36    8.70
   2   3   0 1658.33   29.40
  -2   3   0 1637.94   29.60
   2   3   0 1611.14   29.90
  -2  -3   0 1627.34   29.90
   2  -3   0 1626.04   29.60
   2  -3   0 1680.03   27.80
  -2  -3   0 1628.84   29.30
  -2   3  -1   79.29    5.50
   2   3   1   59.09    5.10
   2  -3   1   68.89    5.50
  -2  -3  -1   65.29    5.40
  -2  -3  -1   77.89    5.50
   2   3   2   21.40    5.00
  -2   3  -2   15.70    2.10
  -2   3  -2   15.50    4.60
  -2  -3  -2   17.20    3.40
   2  -3   2   19.20    4.40
  -2  -3  -2   15.40    5.00
  -2   3  -3  249.18    7.10
   2   3   3  254.47   10.40
   2   3   3  250.07    8.90
   2   3   3  243.78   10.70
   2  -3   3  249.88   10.10
   2  -3   3  266.27   10.50
  -2  -3  -3  263.67    8.00
   2  -3   3  235.38   10.50
   2  -3   3  243.78    8.50
   2   3   4    1.40    5.20
  -2   3  -4    3.30    3.00
   2   3   4   -2.60    5.20
   2   3   4    1.00    3.90
   2  -3   4    8.90    5.10
   2  -3   4    3.50    3.60
   2  -3   4    2.20    4.70
   2  -3   4    1.00    5.30
  -2  -3  -4   -2.30    2.90
   2   3   5  115.99    7.60
   2   3   5  131.19   10.40
   2   3   5  121.59    8.80
  -2   3  -5  113.69    6.90
   2  -3   5  110.09    7.00
   2  -3   5  128.59    9.30
  -2  -3  -5  113.99    6.60
   2  -3   5  120.69    9.20
   2   3   6   66.39    6.50
   2   3   6   64.89    9.00
  -2   3  -6   59.59    5.90
   2   3   6   64.49    8.30
   2  -3   6   55.09    6.00
   2  -3   6   57.79    8.20
  -2  -3  -6   56.89    5.30
   2   3   7   -8.30    6.40
   2   3   7    6.70    4.70
   2   3   7   -5.40    6.80
  -2  -3  -7    6.50    4.30
   2  -3   7   10.30    6.70
   2  -3   7    3.00    4.60
   2  -3   7   -6.60    4.10
   2   3   8   12.40    7.90
   2   3   8   -4.40    7.40
   2   3   8    7.10    5.10
  -2  -3  -8    3.60    4.80
   2  -3   8   -7.90    7.40
   2  -3   8   -6.90    7.60
   2  -3   8   12.50    4.80
   2   3   9   -3.40    4.90
  -2   3  -9   -3.90    4.40
   2   3   9   -0.90    8.40
   2  -3   9   -1.30    4.30
   2  -3   9   12.40    7.90
   2  -3   9    8.40    8.80
  -2  -3  -9   -5.20    5.10
  -2   3 -10    3.90    5.10
   2   3  10  -18.00    8.30
   2   3  10    7.30    5.30
   2  -3  10   -0.80    9.40
  -2  -3 -10    4.10    6.00
   2   3  11   -6.10    9.60
  -2   3 -11   -0.40    5.80
  -2  -3 -11    9.10    6.20
   2  -3  11   11.40   10.10
  -2   3 -12    4.60    6.40
   2   3  12    0.70   10.30
  -2  -3 -12    1.10    6.50
   2  -3  12   -4.30   11.20
   2   4 -13    1.50    4.40
  -2   4  13   -0.90   11.40
  -2  -4  13   16.90   12.50
   2  -4 -13  -15.40    5.00
  -2   4  12    8.00   11.10
   2  -4 -12    2.00    4.60
  -2  -4  12    4.10   10.90
  -2   4  11   -6.20   10.10
   2  -4 -11   -1.40    4.20
  -2  -4  11    4.40    9.40
  -2   4  10   -3.30    9.00
  -2  -4  10   -2.10    9.30
   2  -4 -10    4.10    3.60
  -2   4   9   50.09   10.10
   2  -4  -9   60.99    4.50
  -2  -4   9   63.19   11.00
  -2   4   8   -2.40    7.20
  -2   4   8    2.40    5.90
  -2  -4   8    2.00    7.80
  -2  -4   8   -7.70    5.10
   2  -4  -8   -4.70    2.60
  -2   4   7    5.40    6.30
  -2   4   7   11.70    2.60
  -2   4   7    5.20    5.40
   2   4  -7   14.40    6.50
  -2  -4   7   10.10    5.60
   2  -4  -7   13.50    6.70
   2  -4  -7   11.60    2.40
  -2  -4   7   13.50    5.20
  -2  -4   7   13.60    4.40
  -2   4   6    9.20    5.10
  -2   4   6   14.00    2.80
   2   4  -6   22.80    5.90
   2   4  -6   11.00    3.70
  -2   4   6   13.90    6.40
   2  -4  -6    8.90    5.50
  -2  -4   6   13.20    3.80
   2  -4  -6    9.50    3.50
   2  -4  -6   15.60    3.30
  -2  -4   6   12.00    4.60
   2  -4  -6   14.70    2.10
  -2  -4   6    6.30    5.10
  -2   4   5   45.70    3.50
  -2   4   5   43.50    5.50
   2   4  -5   32.40    5.50
   2   4  -5   49.60    4.00
  -2   4   5   53.09    6.80
   2  -4  -5   48.30    6.50
  -2  -4   5   45.00    3.90
   2  -4  -5   43.60    3.60
   2  -4  -5   42.70    3.50
  -2  -4   5   50.29    5.20
  -2  -4   5   41.30    5.70
   2  -4  -5   35.80    5.80
   2  -4  -5   39.80    2.80
   2   4  -4   -1.10    4.20
  -2   4   4   -5.90    4.00
   2   4  -4    0.60    2.30
   2   4  -4    1.90    3.80
  -2   4   4    5.00    4.40
   2  -4  -4    2.70    2.10
   2  -4  -4   -2.50    2.10
  -2  -4   4   -3.10    3.60
  -2  -4   4    5.20    4.20
   2  -4  -4   -0.30    4.50
  -2  -4   4   -1.40    2.10
   2  -4  -4   -2.00    1.70
   2   4  -3   -4.50    4.20
   2   4  -3    4.80    3.80
   2  -4  -3    5.80    4.30
   2  -4  -3   -0.90    2.10
   2  -4  -3    1.30    1.50
  -2  -4   3   -1.50    3.90
  -2  -4   3    1.00    3.50
  -2   4   2  437.96    8.60
   2   4  -2  452.85   11.00
  -2  -4   2  450.05   11.80
   2  -4  -2  451.85    8.70
  -2  -4   2  451.05   11.20
  -2   4   1 2443.26   41.50
   2   4  -1 2426.76   41.20
   2   4  -1 2411.26   42.70
  -2  -4   1 2459.85   41.20
   2  -4  -1 2415.56   41.50
  -2  -4   1 2413.96   42.80
  -2   4   0  999.10   19.10
   2   4   0  931.51   19.30
   2   4   0  997.30   19.00
   2  -4   0  974.70   19.20
  -2  -4   0  987.40   19.60
  -2  -4   0  964.70   19.00
   2   4   1  129.59    6.60
  -2   4  -1  113.09    6.40
   2   4   1  132.09    7.30
  -2  -4  -1  108.09    7.20
   2  -4   1  111.89    7.30
  -2  -4  -1  118.09    6.50
   2   4   2  468.75   13.50
  -2   4  -2  467.75    9.10
  -2   4  -2  477.55   13.10
  -2  -4  -2  479.65   11.10
  -2  -4  -2  473.25   12.80
   2  -4   2  486.85   13.70
   2   4   3   74.99    6.50
   2   4   3   74.39    7.10
   2   4   3   87.49    6.30
  -2   4  -3   79.19    4.40
   2  -4   3   89.79    6.60
  -2  -4  -3   80.89    5.60
   2  -4   3   72.29    6.30
   2  -4   3   79.39    5.70
  -2  -4  -3   75.99    6.70
  -2   4  -4   28.70    3.70
   2   4   4   41.30    5.10
   2   4   4   29.00    5.60
   2   4   4   41.20    6.70
  -2  -4  -4   28.40    3.90
   2  -4   4   28.20    5.60
   2  -4   4   27.80    5.50
   2  -4   4   33.60    4.70
   2   4   5  449.46   15.90
  -2   4  -5  436.06   11.90
   2   4   5  406.36   12.80
   2   4   5  442.16   14.80
   2  -4   5  408.16   14.70
   2  -4   5  445.76   15.90
  -2  -4  -5  433.26   11.90
   2  -4   5  416.26   12.10
   2  -4   5  445.46   12.30
   2   4   6  109.19    9.80
   2   4   6  107.59    9.20
  -2   4  -6  123.49    7.90
   2   4   6  120.89    8.00
  -2  -4  -6  116.09    7.60
   2  -4   6  106.49    7.10
   2  -4   6  117.39    9.80
   2  -4   6  128.59   10.60
   2   4   7   40.80    6.30
   2   4   7   42.80    8.90
   2   4   7   35.10    8.30
   2  -4   7   36.20    5.30
   2  -4   7   49.50    8.30
  -2  -4  -7   34.80    5.40
   2   4   8    7.80    7.90
   2   4   8    1.00    7.50
   2   4   8   -6.70    4.60
   2  -4   8   -0.70    4.30
  -2  -4  -8    1.70    4.90
   2  -4   8    8.30    8.40
   2   4   9   -5.50    5.20
   2   4   9   12.00    8.80
  -2  -4  -9   -4.50    4.90
   2  -4   9    0.10    4.30
   2  -4   9    1.00    8.60
   2   4  10    9.10    9.30
   2   4  10   11.30    5.40
  -2   4 -10    8.90    5.20
   2  -4  10   15.80   10.30
  -2  -4 -10   -1.40    5.50
  -2   4 -11   -0.60    5.90
   2   4  11   15.30   10.20
  -2  -4 -11   -6.50    5.80
   2  -4  11    8.90   11.00
  -2   4 -12    3.40    6.40
   2   4  12   12.50   11.10
  -2  -4 -12   -1.70    6.70
   2  -4  12  -16.90    9.90
   2   5 -13   -2.90    4.30
  -2   5  13  -11.30   10.70
   2  -5 -13   -0.80    5.60
  -2  -5  13    1.10   11.70
  -2   5  12    2.00   10.90
  -2  -5  12    3.10   11.30
   2  -5 -12   -6.40    4.80
  -2   5  11   12.00   10.70
  -2  -5  11   -5.00   10.00
   2  -5 -11    2.10    4.40
  -2   5  10   -4.40    8.10
   2  -5 -10    0.40    3.80
  -2  -5  10   -5.20    9.40
  -2   5   9    6.70    7.80
  -2   5   9   13.80    8.60
   2  -5  -9    4.00    3.50
  -2  -5   9    8.90    8.60
  -2   5   8   -3.90    6.70
  -2   5   8   10.10    6.30
  -2   5   8   11.80    2.90
  -2  -5   8   10.40    6.00
   2  -5  -8    8.20    3.10
  -2   5   7    4.90    5.80
  -2   5   7   -1.00    6.00
   2   5  -7    8.50    6.40
  -2   5   7    0.70    2.90
   2  -5  -7    4.90    6.10
  -2  -5   7   -1.30    5.30
   2  -5  -7   -0.50    2.60
  -2  -5   7    0.90    5.00
  -2   5   6   51.99    6.60
  -2   5   6   40.80    3.70
   2   5  -6   37.70    4.30
  -2   5   6   34.90    7.40
   2   5  -6   36.60    6.80
   2  -5  -6   44.50    4.30
   2  -5  -6   35.90    6.50
  -2  -5   6   38.60    5.80
   2  -5  -6   41.00    3.10
  -2  -5   6   37.10    6.10
  -2   5   5   25.70    5.80
  -2   5   5   34.30    5.50
   2   5  -5   23.30    5.40
   2   5  -5   25.90    3.40
  -2   5   5   36.20    3.60
   2  -5  -5   29.70    2.70
  -2  -5   5   28.10    5.10
   2  -5  -5   40.30    6.10
   2  -5  -5   26.90    6.70
  -2  -5   5   33.80    5.40
   2  -5  -5   30.40    3.20
   2  -5  -5   35.90    3.40
  -2   5   4  103.99    7.50
  -2   5   4  119.39    7.90
   2   5  -4  108.89    4.40
   2   5  -4  105.69    7.90
  -2   5   4  131.49    5.90
  -2  -5   4  110.39    7.80
   2  -5  -4  121.09    8.30
   2  -5  -4  113.89    4.60
  -2  -5   4  118.79    7.40
   2  -5  -4  109.79    4.60
   2  -5  -4  104.59    4.40
   2   5  -3  506.75   13.70
   2   5  -3  536.05   12.90
  -2   5   3  490.75    9.70
   2  -5  -3  494.35   10.60
   2  -5  -3  496.45    9.80
  -2  -5   3  495.35   12.90
  -2  -5   3  507.75   13.50
   2   5  -2    6.80    1.70
   2   5  -2   11.10    3.90
  -2   5   2   10.00    2.20
   2  -5  -2    8.90    2.30
  -2  -5   2    8.30    3.90
  -2  -5   2    9.70    4.00
   2   5  -1 2952.60   51.39
   2   5  -1 2942.11   49.60
  -2   5   1 2931.21   49.99
   2  -5  -1 2884.81   49.99
  -2  -5   1 2934.11   51.39
  -2  -5   1 2906.91   49.60
   2   5   0  305.97    9.10
   2   5   0  302.57    8.70
  -2   5   0  307.17    9.00
   2  -5   0  289.17    9.00
  -2  -5   0  300.77    8.60
  -2  -5   0  296.27    9.20
  -2   5  -1   33.50    4.60
   2   5   1   50.79    5.40
   2   5   1   39.50    4.80
  -2  -5  -1   40.70    4.80
   2  -5   1   40.60    5.00
  -2  -5  -1   45.10    4.90
   2   5   2   55.69    5.60
   2  -5   2   52.59    5.10
   2  -5   2   45.80    3.00
  -2  -5  -2   42.00    5.40
  -2  -5  -2   46.20    4.00
   2  -5   2   51.59    6.00
   2   5   3   -3.80    4.30
   2   5   3    9.50    4.20
  -2   5  -3    0.40    2.30
   2   5   3    1.40    4.90
  -2  -5  -3   -0.60    4.10
   2  -5   3    4.10    3.90
   2  -5   3   -1.20    4.10
   2  -5   3   -0.90    4.50
  -2  -5  -3    1.00    3.10
   2   5   4   29.80    5.50
   2   5   4   25.20    4.90
  -2   5  -4   27.40    3.60
   2   5   4   21.00    6.00
   2  -5   4   31.00    5.40
  -2  -5  -4   21.10    5.50
   2  -5   4   23.80    4.40
  -2  -5  -4   19.50    3.90
   2  -5   4   25.90    5.60
   2   5   5  170.08    8.50
   2   5   5  160.78   11.40
   2   5   5  179.48   10.10
  -2   5  -5  174.78    7.70
   2  -5   5  189.68   12.00
  -2  -5  -5  175.88    7.90
  -2  -5  -5  170.88   10.50
   2  -5   5  165.28    8.00
   2   5   6    8.40    6.50
   2   5   6    6.80    4.80
   2   5   6    8.60    6.70
  -2  -5  -6   -4.00    5.60
   2  -5   6   11.90    7.10
   2  -5   6    5.60    4.20
  -2  -5  -6    5.20    4.00
   2   5   7   29.60    8.40
   2   5   7   35.40    7.90
   2   5   7   33.70    5.90
   2  -5   7   28.90    8.00
  -2  -5  -7   32.60    5.30
   2  -5   7   40.70    5.40
  -2  -5  -7   12.60    7.00
   2   5   8    6.00    7.90
   2   5   8    7.90    8.00
   2   5   8    9.90    5.50
   2  -5   8    0.50    4.40
  -2  -5  -8   -3.30    4.60
  -2  -5  -8    8.20    7.00
   2   5   9   -6.40    8.30
   2   5   9   -1.10    5.30
   2  -5   9   -5.70    4.00
   2  -5   9  -13.50    8.00
  -2  -5  -9   -9.90    5.00
   2   5  10    1.20    9.30
  -2   5 -10   -0.10    5.10
   2   5  10  -12.70    4.80
  -2  -5 -10    7.10    5.70
   2  -5  10    7.80    9.50
  -2   5 -11    3.10    5.90
   2   5  11    5.20   10.00
  -2  -5 -11   -2.30    6.30
   2  -5  11    6.00   10.40
   2   5  12   10.10   10.90
  -2   5 -12   -6.10    6.20
   2  -5  12   -1.20   10.40
  -2  -5 -12   -9.70    6.50
  -2   6  13    7.50   11.60
   2  -6 -13   10.70    5.90
  -2  -6  13    0.40   11.70
  -2   6  12   -1.40   10.50
  -2  -6  12   -6.50   11.10
   2  -6 -12   -0.10    5.10
  -2   6  11    9.90   10.90
   2  -6 -11    0.40    4.70
  -2  -6  11    3.20   10.50
  -2   6  10    7.00    9.70
  -2  -6  10    5.70    8.60
   2  -6 -10    8.40    4.30
  -2   6   9    2.80    6.90
  -2   6   9   -8.50    7.00
   2  -6  -9    8.20    3.90
  -2  -6   9   10.80    8.50
  -2   6   8   32.60    7.80
  -2   6   8   42.90    4.00
  -2   6   8   24.70    9.00
  -2  -6   8   48.40    7.40
   2  -6  -8   34.40    4.20
  -2   6   7   39.00    4.20
  -2   6   7   42.30    6.90
  -2   6   7   32.00    7.50
   2   6  -7   25.50    6.80
   2  -6  -7   42.10    7.80
   2  -6  -7   34.90    3.70
  -2  -6   7   34.50    6.90
  -2  -6   7   30.60    6.40
  -2   6   6  146.59   10.20
  -2   6   6  123.29    6.30
  -2   6   6  146.49   10.50
   2   6  -6  144.49   10.40
  -2  -6   6  142.29    8.90
   2  -6  -6  130.09    6.60
   2  -6  -6  138.29   10.50
  -2  -6   6  141.99    9.60
   2  -6  -6  130.79    5.70
  -2   6   5   59.59    4.60
  -2   6   5   70.99    6.80
   2   6  -5   55.69    6.30
  -2   6   5   63.09    6.90
   2   6  -5   57.89    4.10
   2  -6  -5   55.79    3.80
   2  -6  -5   53.59    6.50
  -2  -6   5   57.99    6.00
   2  -6  -5   59.49    4.40
   2  -6  -5   63.19    4.70
  -2  -6   5   62.39    6.40
   2   6  -4    6.30    2.30
  -2   6   4    8.80    5.00
  -2   6   4   10.90    4.80
   2   6  -4   14.40    4.70
  -2   6   4    7.90    3.60
   2  -6  -4    6.50    2.70
  -2  -6   4    5.60    4.40
   2  -6  -4    7.50    2.50
  -2  -6   4    2.70    4.10
  -2   6   3   39.00    2.80
   2   6  -3   40.60    2.70
  -2  -6   3   48.10    5.20
   2  -6  -3   41.00    3.10
   2  -6  -3   47.90    3.50
  -2  -6   3   40.90    5.10
   2   6  -2  489.45   12.70
  -2   6   2  484.55   10.40
   2   6  -2  495.25    9.70
  -2  -6   2  500.75   12.80
   2  -6  -2  466.45   10.40
  -2  -6   2  488.35   12.50
  -2   6   1  839.22   16.60
   2   6  -1  818.32   17.70
   2   6  -1  845.12   16.20
   2  -6  -1  831.82   16.90
  -2  -6   1  838.82   18.10
  -2  -6   1  811.42   16.00
   2   6   0    6.50    4.20
   2   6   0    4.20    3.70
  -2   6   0    5.40    3.60
   2  -6   0    7.80    4.30
  -2  -6   0    6.60    4.20
  -2  -6   0    5.90    3.60
   2   6   1   68.39    5.90
  -2  -6  -1   61.99    5.90
   2  -6   1   64.49    6.10
  -2  -6  -1   66.29    5.80
   2   6   2   -6.00    4.10
   2   6   2   -3.90    4.70
  -2  -6  -2    2.80    4.50
   2  -6   2    2.10    3.70
  -2  -6  -2   -1.40    3.10
   2  -6   2   -3.60    4.50
   2  -6   2    0.10    1.90
   2  -6   2   -0.30    3.90
   2   6   3   15.70    4.80
   2   6   3   20.10    5.00
   2   6   3   13.20    5.50
   2  -6   3   12.50    4.50
   2  -6   3   13.10    5.20
   2  -6   3   12.40    4.10
  -2  -6  -3   15.20    4.90
   2  -6   3    8.70    2.60
  -2  -6  -3   16.20    3.60
  -2   6  -4  142.29    6.10
   2   6   4  127.89    8.40
   2   6   4  138.99   10.10
   2   6   4  138.89    8.00
   2  -6   4  144.59    8.80
  -2  -6  -4  142.69    6.90
   2  -6   4  141.89    7.20
   2  -6   4  125.69    9.30
  -2  -6  -4  155.18    9.30
   2   6   5   38.80    5.70
   2   6   5   43.10    7.30
  -2   6  -5   35.80    4.40
   2   6   5   36.90    6.50
   2  -6   5   27.90    4.80
   2  -6   5   34.80    7.10
  -2  -6  -5   40.10    6.30
  -2  -6  -5   35.00    4.50
   2   6   6   42.20    7.60
   2   6   6   38.40    6.00
   2   6   6   49.80    8.50
  -2  -6  -6   40.90    5.10
   2  -6   6   36.90    5.40
  -2  -6  -6   54.59    7.50
   2  -6   6   41.60    8.60
   2   6   7  102.89   10.90
   2   6   7  108.99    8.50
   2   6   7  113.09   10.60
  -2  -6  -7  107.89    7.40
   2  -6   7  104.99    7.40
   2  -6   7  105.39   10.80
  -2  -6  -7  111.99   10.10
   2   6   8   10.40    5.70
   2   6   8    1.00    7.10
   2   6   8   17.00    8.30
   2  -6   8    3.90    4.60
  -2  -6  -8   10.60    5.20
  -2  -6  -8   14.10    7.20
   2   6   9    6.50    5.50
   2   6   9  -15.80    7.50
   2  -6   9    1.10    4.40
  -2  -6  -9    0.10    5.40
   2   6  10    3.80    8.90
   2   6  10   -2.00    5.40
   2  -6  10   -8.20    9.30
  -2  -6 -10    7.30    6.10
  -2   6 -11   -4.90    5.70
   2   6  11   15.90   10.80
   2  -6  11  -12.50   10.00
  -2  -6 -11   -8.20    6.20
   2   6  12    5.50   10.90
  -2   6 -12    4.00    6.60
   2  -6  12   -6.80   11.20
  -2  -6 -12   14.60    7.30
  -2   7  13   -7.60   11.40
  -2  -7  13  -16.50   11.00
   2  -7 -13   -3.70    6.00
  -2   7  12    7.20   10.90
  -2  -7  12   -0.30   11.70
   2  -7 -12   -8.60    5.20
  -2   7  11    3.90   10.60
  -2  -7  11    7.00    9.30
   2  -7 -11   19.50    5.30
  -2   7  10   14.20    9.60
  -2  -7  10   17.70   10.20
   2  -7 -10    6.70    4.60
  -2   7   9   11.90    8.30
  -2   7   9    8.40    7.30
   2  -7  -9    8.80    4.10
  -2   7   8    9.30    6.60
  -2   7   8   10.30    8.10
  -2   7   8    2.60    3.70
  -2  -7   8    9.90    6.30
   2  -7  -8    5.70    3.80
  -2   7   7    9.40    6.50
  -2   7   7   10.60    6.80
  -2   7   7   13.10    3.90
   2   7  -7   19.20    6.70
  -2  -7   7   18.30    6.10
  -2  -7   7   17.10    6.20
   2  -7  -7   15.90    3.60
   2  -7  -7   20.00    6.80
   2   7  -6   71.39    8.00
  -2   7   6   71.69    8.00
  -2   7   6   79.69    5.50
  -2   7   6   76.99    7.80
  -2  -7   6   73.79    7.30
   2  -7  -6   72.39    5.00
  -2  -7   6   66.99    7.00
   2  -7  -6   70.49    4.70
   2  -7  -6   71.09    7.80
  -2   7   5  188.88   11.20
  -2   7   5  196.68    7.60
  -2   7   5  195.68   10.20
   2   7  -5  185.28    6.40
   2   7  -5  195.08    9.90
   2  -7  -5  198.48    6.80
   2  -7  -5  200.58   10.50
   2  -7  -5  182.78    6.80
  -2  -7   5  197.38   10.20
  -2  -7   5  188.08    9.80
   2   7  -4    3.80    2.30
   2   7  -4   -3.30    4.20
  -2   7   4    1.30    3.60
  -2   7   4   -8.20    4.40
  -2   7   4    2.90    4.80
   2  -7  -4    1.60    4.10
   2  -7  -4    4.30    2.70
  -2  -7   4    2.40    4.30
  -2  -7   4    3.30    4.40
   2  -7  -4    2.60    3.00
  -2   7   3  279.97    9.20
  -2   7   3  281.67   12.40
  -2   7   3  283.17    7.30
  -2  -7   3  280.97    9.80
   2  -7  -3  279.87    7.60
  -2  -7   3  298.87   10.50
   2  -7  -3  290.67    8.20
  -2   7   2  157.58    6.00
   2   7  -2  164.68    5.30
   2  -7  -2  152.28    6.20
  -2  -7   2  166.78    8.60
  -2   7   1 1130.09   21.90
   2   7  -1 1148.89   21.50
   2  -7  -1 1145.39   22.10
  -2  -7   1 1113.89   23.20
  -2   7   0   27.50    4.30
   2   7   0   21.10    4.20
  -2  -7   0   16.90    3.90
   2  -7   0   18.40    4.40
  -2  -7   0   24.40    4.40
   2   7   1   58.69    5.80
  -2  -7  -1   50.29    5.30
  -2  -7  -1   54.09    5.50
   2  -7   1   58.69    6.00
   2   7   2    1.70    4.40
   2   7   2    7.40    4.80
   2  -7   2    9.40    3.90
   2  -7   2   13.10    2.30
  -2  -7  -2   14.10    3.70
   2  -7   2   -0.70    4.90
   2  -7   2    6.40    3.60
  -2  -7  -2   13.70    4.90
   2   7   3  145.79    8.80
   2   7   3  149.49    8.10
   2   7   3  136.99    8.30
   2  -7   3  138.79    8.20
   2  -7   3  137.39    5.30
   2  -7   3  133.59    7.20
   2  -7   3  118.59    9.50
  -2  -7  -3  144.19    7.00
  -2  -7  -3  138.89    8.90
   2   7   4   92.79    7.50
   2   7   4   93.39    7.10
   2   7   4   90.59    8.40
  -2   7  -4   82.99    5.40
  -2  -7  -4   85.59    7.40
   2  -7   4   81.29    6.90
   2  -7   4   91.19    6.40
   2  -7   4   71.09    7.40
  -2  -7  -4   87.69    5.80
   2   7   5    0.40    4.80
   2   7   5   -8.00    5.70
  -2   7  -5    1.30    3.50
   2   7   5    4.40    5.80
   2  -7   5    3.00    4.20
  -2  -7  -5    5.70    4.00
  -2  -7  -5    3.70    5.40
   2  -7   5   -5.10    6.30
   2   7   6   32.60    7.20
   2   7   6   44.50    6.20
   2   7   6   35.20    8.00
   2  -7   6   48.70    8.70
   2  -7   6   34.10    5.10
  -2  -7  -6   57.19    5.80
  -2  -7  -6   25.20    6.80
   2   7   7  266.27   15.70
   2   7   7  244.38   14.10
   2   7   7  255.07   11.60
   2  -7   7  266.87   16.20
  -2  -7  -7  251.67   10.90
  -2  -7  -7  248.28   14.40
   2  -7   7  237.78   10.20
   2   7   8   18.20    8.30
   2   7   8   16.50    8.70
   2   7   8    5.20    5.60
  -2  -7  -8   27.80    7.90
   2  -7   8    7.90    8.30
  -2  -7  -8   17.80    5.60
   2  -7   8   16.30    4.90
   2   7   9   -2.70    8.00
   2   7   9    1.40    5.70
   2  -7   9   -2.80    4.10
  -2  -7  -9    2.70    5.50
   2   7  10   -0.40    5.50
   2   7  10    3.00    8.80
  -2  -7 -10   -2.00    5.90
   2  -7  10   -9.00    9.10
   2   7  11    7.50   10.90
  -2   7 -11    0.80    5.80
  -2  -7 -11   17.80    7.00
   2  -7  11    5.70   11.20
  -2   7 -12    3.30    6.50
   2   7  12   11.80   11.10
   2  -7  12    3.10   11.10
  -2  -7 -12  -19.00    6.90
  -2   8  13   16.50   12.70
   2  -8 -13   -4.90    6.10
  -2  -8  13    7.40   11.50
  -2   8  12    2.50   11.30
  -2  -8  12   12.50   12.10
   2  -8 -12    7.30    6.10
  -2   8  11   -2.30   10.20
  -2  -8  11    5.80    9.90
   2  -8 -11    7.00    5.30
  -2   8  10   10.40   10.20
   2  -8 -10    2.50    4.70
  -2  -8  10   -3.90    7.90
  -2   8   9   20.10    7.80
  -2   8   9   21.90    9.50
  -2   8   9   21.80    4.30
   2  -8  -9   19.20    4.90
  -2   8   8   43.80    8.90
  -2   8   8   41.00    4.90
  -2   8   8   53.59    8.70
  -2  -8   8   54.69    8.20
   2  -8  -8   48.30    5.10
  -2   8   7   56.89    8.10
  -2   8   7   59.09    5.40
   2   8  -7   54.19    8.30
  -2   8   7   54.59    8.70
   2  -8  -7   50.89    8.10
  -2  -8   7   58.69    7.50
   2  -8  -7   38.50    4.60
  -2  -8   7   50.59    7.50
  -2   8   6    8.70    5.90
  -2   8   6   12.70    7.10
  -2   8   6   10.70    4.00
   2   8  -6    8.40    5.60
  -2  -8   6   10.10    5.40
  -2  -8   6    3.70    5.10
   2  -8  -6    6.30    3.70
   2  -8  -6   11.30    5.90
   2  -8  -6    8.50    3.60
  -2   8   5   -5.40    3.40
   2   8  -5    4.00    2.80
  -2   8   5   -1.60    5.00
   2   8  -5   -0.10    4.70
  -2   8   5   12.70    6.20
  -2  -8   5    2.30    2.20
   2  -8  -5    1.20    3.10
   2  -8  -5   -1.80    2.90
   2  -8  -5    8.60    5.00
  -2  -8   5    4.90    4.80
  -2  -8   5   -7.00    4.00
  -2   8   4   21.50    5.50
  -2   8   4   23.20    5.30
   2   8  -4   32.40    2.90
  -2   8   4   21.30    4.50
  -2   8   4   35.10    3.30
   2  -8  -4   26.80    4.90
   2  -8  -4   39.40    3.80
   2  -8  -4   33.30    3.50
  -2  -8   4   26.60    5.40
  -2  -8   4   32.90    3.40
  -2  -8   4   31.30    5.10
  -2   8   3  243.68    8.90
  -2   8   3  242.98    7.20
  -2  -8   3  223.38    9.70
   2  -8  -3  245.88    7.60
  -2  -8   3  250.57    7.60
   2  -8  -3  237.38    7.90
  -2  -8   3  245.88   10.20
  -2   8   2  129.59    6.10
  -2   8   2  122.39    7.00
   2   8  -2  120.39    5.30
  -2  -8   2  113.09    7.40
   2  -8  -2  131.49    6.40
   2   8  -1  807.02   16.70
  -2   8   1  821.42   17.20
   2  -8  -1  810.62   17.50
  -2  -8   1  786.22   18.60
  -2   8   0  485.55   12.70
   2   8   0  470.95   12.60
  -2  -8   0  477.45   12.50
   2  -8   0  465.25   13.00
  -2  -8   0  474.45   13.50
   2   8   1    6.90    4.50
   2  -8   1   -1.70    5.00
  -2  -8  -1    3.80    4.20
   2   8   2    7.40    4.20
   2   8   2    2.30    4.40
  -2  -8  -2    5.90    4.30
   2  -8   2   -6.30    5.00
   2  -8   2   -2.70    3.80
   2  -8   2    1.90    3.60
  -2  -8  -2    4.20    3.70
   2  -8   2    3.80    2.30
   2   8   3   19.50    5.80
   2   8   3   16.30    4.90
   2   8   3   13.90    5.10
   2  -8   3   19.30    5.50
  -2  -8  -3   18.10    5.50
   2  -8   3   14.80    4.40
   2  -8   3   19.90    2.90
   2  -8   3   16.90    4.60
  -2  -8  -3   18.00    4.00
   2   8   4   -5.40    5.40
   2   8   4   -4.10    4.40
   2   8   4   -2.60    4.90
   2  -8   4    1.60    2.90
  -2  -8  -4    1.90    3.80
  -2  -8  -4    3.80    4.90
   2  -8   4    1.80    5.80
   2  -8   4    0.90    4.00
   2  -8   4    7.30    4.50
   2   8   5   19.40    6.70
   2   8   5   23.60    6.60
   2   8   5   26.70    5.70
  -2   8  -5   21.20    4.20
   2  -8   5   26.40    5.00
   2  -8   5   35.20    7.70
  -2  -8  -5   35.70    6.30
  -2  -8  -5   41.10    5.20
   2   8   6   44.80    6.60
   2   8   6   46.50    8.60
   2   8   6   40.70    7.60
  -2  -8  -6   51.39    7.70
   2  -8   6   44.00    8.60
   2  -8   6   52.59    6.10
  -2  -8  -6   51.49    5.90
   2   8   7   51.79    8.80
   2   8   7   47.40    7.00
   2   8   7   42.60    9.20
   2  -8   7   65.79   10.10
   2  -8   7   46.20    6.10
  -2  -8  -7   59.59    6.60
  -2  -8  -7   66.39    8.70
   2   8   8    5.90    8.10
   2   8   8   -3.90    8.00
   2   8   8   -2.60    5.50
   2  -8   8   -1.20    4.30
  -2  -8  -8   -6.60    4.90
   2  -8   8   -5.10    7.90
  -2  -8  -8   -4.80    7.90
   2   8   9   13.30    8.90
   2   8   9   23.40    6.50
   2  -8   9   19.10    4.80
  -2  -8  -9   22.00    6.40
   2   8  10  -12.40    5.40
   2   8  10   -3.20    9.50
   2  -8  10   -5.80    9.30
  -2  -8 -10   -3.50    5.90
   2   8  11  -22.80    9.30
   2  -8  11    6.40   10.50
  -2  -8 -11  -16.30    6.10
   2   8  12   23.50   11.90
  -2   8 -12   -8.30    6.10
  -2  -8 -12    0.30    7.30
   2  -8  12    9.20   11.70
  -2   9  13  -14.80   11.60
   2  -9 -13   -2.80    6.60
  -2  -9  13   -6.70   12.10
  -2   9  12    8.10   12.10
   2  -9 -12   10.00    6.40
  -2  -9  12    0.30   11.10
  -2   9  11   -1.10   10.30
   2  -9 -11   14.80    5.70
  -2  -9  11   17.20   10.00
  -2   9  10   10.90   10.30
   2  -9 -10   14.80    5.60
  -2   9   9    9.60    9.50
  -2   9   9    4.70    7.60
  -2   9   9   -2.30    3.90
   2  -9  -9   -2.10    4.50
  -2   9   8  117.99   12.60
  -2   9   8  147.79    8.00
  -2   9   8  157.28   12.30
   2  -9  -8  157.58    8.50
  -2  -9   8  177.58   13.10
   2   9  -7   -1.70    5.90
  -2   9   7   -2.80    7.80
  -2   9   7    8.40    6.70
  -2   9   7    1.10    4.10
   2  -9  -7   -2.80    6.10
  -2  -9   7    4.30    6.30
   2  -9  -7   -1.40    4.00
  -2  -9   7   -4.40    5.50
   2   9  -6    5.20    5.90
  -2   9   6    1.40    4.00
  -2   9   6    9.80    7.20
  -2   9   6    5.40    5.80
  -2  -9   6    3.20    5.70
   2  -9  -6    8.00    5.80
  -2  -9   6    4.70    5.20
   2  -9  -6    3.10    3.80
  -2  -9   6    5.40    2.00
  -2   9   5    0.10    5.40
   2   9  -5    1.50    2.70
  -2   9   5   11.70    5.60
  -2   9   5    3.90    4.00
  -2  -9   5    8.70    4.70
   2  -9  -5    8.10    3.60
  -2  -9   5    2.80    5.40
   2  -9  -5    3.60    3.40
  -2  -9   5    1.80    2.60
   2  -9  -5    1.00    4.90
  -2   9   4   90.79    5.20
  -2   9   4   88.79    7.40
  -2   9   4   90.89    8.00
   2   9  -4   89.29    4.60
  -2   9   4   99.89    7.20
  -2  -9   4   96.99    7.80
   2  -9  -4   91.79    6.80
   2  -9  -4   91.99    5.70
   2  -9  -4   85.09    6.00
  -2  -9   4   85.19    5.30
  -2  -9   4   92.59    7.10
  -2   9   3   23.00    3.40
  -2   9   3   17.40    4.50
  -2  -9   3   24.20    4.80
  -2  -9   3   18.70    5.10
  -2  -9   3   17.50    3.60
   2  -9  -3   23.90    3.80
  -2   9   2   -4.10    4.00
  -2   9   2   -2.60    3.10
  -2  -9   2    4.80    4.80
   2  -9  -2   -2.90    3.50
  -2  -9   2   -0.50    3.50
   2   9  -1   86.29    6.00
  -2   9   1   96.59    6.20
   2  -9  -1   98.99    7.20
  -2  -9   1   87.19    6.60
  -2  -9   1   84.69    6.70
   2   9   0  231.88    8.90
  -2  -9   0  246.38   10.30
   2  -9   0  230.08    9.80
   2   9   1   54.09    6.00
   2  -9   1   60.49    5.90
   2  -9   1   66.19    6.30
  -2  -9  -1   65.89    6.40
   2  -9   1   59.69    4.80
   2   9   2   -9.50    4.70
   2   9   2   -2.30    4.70
   2  -9   2    2.20    4.30
   2  -9   2   -1.10    3.30
   2  -9   2    7.80    5.50
   2  -9   2    3.20    2.50
  -2  -9  -2    5.00    3.70
  -2  -9  -2   -1.40    4.90
   2   9   3   22.80    4.70
   2   9   3   22.10    5.90
   2   9   3   18.50    4.70
  -2  -9  -3   21.20    4.20
   2  -9   3   23.10    3.00
  -2  -9  -3   19.00    5.40
   2  -9   3   27.40    6.50
   2  -9   3   23.50    4.90
   2  -9   3   21.20    4.60
   2   9   4  115.79    8.40
   2   9   4  144.19   10.40
   2   9   4  120.19    8.90
   2  -9   4  130.49   10.20
   2  -9   4  116.39    8.60
  -2  -9  -4  117.69    7.60
   2  -9   4  123.39    6.00
   2  -9   4  125.79    7.90
  -2  -9  -4  123.99    9.60
   2   9   5    8.60    6.40
   2   9   5    9.80    5.20
   2   9   5   15.40    6.20
  -2  -9  -5   17.60    4.60
   2  -9   5    9.60    4.70
   2  -9   5    9.70    3.70
  -2  -9  -5    3.80    5.80
   2  -9   5   16.00    7.30
   2   9   6   65.89    7.60
   2   9   6   76.19    9.80
   2   9   6   73.29    8.90
   2  -9   6   60.29    8.90
   2  -9   6   68.89    6.50
  -2  -9  -6   68.89    8.30
  -2  -9  -6   65.19    6.40
   2   9   7   16.30    8.40
   2   9   7   26.90    8.20
   2   9   7   25.20    6.50
   2  -9   7    6.80    8.20
  -2  -9  -7   12.00    5.50
   2  -9   7   15.40    5.00
  -2  -9  -7   20.10    7.00
   2   9   8   -8.80    5.40
   2   9   8    2.10    8.10
   2  -9   8    5.60    4.50
  -2  -9  -8   -0.90    5.50
   2  -9   8    8.10    8.80
   2   9   9   -0.10    8.80
   2   9   9    8.40    5.90
   2  -9   9   -6.30    4.10
  -2  -9  -9    3.90    6.10
   2   9  10    5.60    9.40
   2   9  10   -0.70    5.70
  -2  -9 -10   -2.40    6.30
   2   9  11    3.00   10.60
  -2  -9 -11   -3.10    6.70
   2  -9  11  -13.50    9.30
  -2   9 -12   -4.60    6.30
   2   9  12   -9.10   11.00
  -2  -9 -12   -3.50    7.40
   2  -9  12   -5.70   10.70
  -2  10  13  -18.30   12.10
   2 -10 -13   -2.40    6.80
  -2 -10  13   -3.40   10.20
  -2  10  12   -1.60   11.90
   2 -10 -12   11.70    6.80
  -2 -10  12  -14.80    9.20
  -2  10  11   -5.30   10.10
  -2 -10  11   12.90    9.70
   2 -10 -11   10.80    5.90
  -2  10  10    5.50    8.90
   2 -10 -10   16.70    5.90
  -2  10   9  -13.40    8.50
  -2  10   9   -1.00    4.30
  -2  10   9   -0.50    8.10
   2 -10  -9    1.10    5.10
  -2  10   8   27.50    9.80
  -2  10   8   10.50    7.70
  -2  10   8   11.80    4.80
  -2 -10   8   12.70    7.40
   2 -10  -8   16.50    5.00
  -2  10   7    3.70    7.20
  -2  10   7  -13.30    5.80
   2  10  -7    9.00    6.30
  -2  10   7    5.70    4.70
  -2 -10   7   -6.50    6.00
  -2 -10   7   -0.40    5.30
   2 -10  -7    8.60    4.60
   2 -10  -7    1.80    6.60
  -2  10   6  350.26   14.70
  -2  10   6  361.76   11.80
   2  10  -6  347.27   14.20
  -2  10   6  342.17   15.90
  -2 -10   6  359.96    8.70
  -2 -10   6  365.26   15.30
   2 -10  -6  370.36   11.20
  -2 -10   6  380.86   14.00
   2 -10  -6  365.16   14.30
  -2  10   5   71.39    8.40
  -2  10   5   69.59    6.20
  -2  10   5   69.89    7.80
   2  10  -5   73.59    5.80
  -2 -10   5   68.79    6.80
   2 -10  -5   67.09    5.30
   2 -10  -5   67.29    5.10
  -2 -10   5   65.79    7.30
  -2 -10   5   67.69    5.00
   2 -10  -5   60.39    6.80
  -2  10   4   -6.90    4.80
  -2  10   4    1.10    3.00
  -2  10   4    3.00    4.40
   2 -10  -4    4.10    4.20
  -2 -10   4   -1.20    4.30
  -2 -10   4    5.90    3.20
   2 -10  -4    8.70    3.40
  -2 -10   4    5.60    5.20
   2 -10  -4    1.10    3.40
  -2  10   3   27.70    3.80
  -2  10   3   31.20    5.20
  -2 -10   3   14.60    5.60
  -2 -10   3   24.80    4.10
   2 -10  -3   24.00    4.00
   2 -10  -3   33.00    4.20
  -2 -10   3   26.60    5.10
  -2  10   2  868.31   18.30
  -2  10   2  844.22   19.20
  -2 -10   2  841.62   20.10
   2 -10  -2  831.42   18.30
  -2 -10   2  844.02   18.50
   2  10  -1   47.40    4.70
  -2  10   1   47.00    5.70
  -2 -10   1   44.70    4.90
  -2 -10   1   37.60    5.70
   2 -10  -1   39.60    5.20
   2  10   0   86.59    6.50
  -2 -10   0   76.99    7.00
   2 -10   0   94.29    7.70
  -2 -10   0   95.59    7.00
   2 -10   0   92.29    7.10
   2  10   1   82.99    6.70
   2  10   1   81.99    6.90
   2 -10   1   82.69    7.40
  -2 -10  -1   72.09    6.30
   2 -10   1   80.99    6.60
   2 -10   1   74.99    4.90
  -2 -10  -1   78.29    7.00
   2  10   2    0.00    4.50
   2  10   2    6.70    5.10
   2 -10   2    2.70    4.30
  -2 -10  -2   18.20    5.30
   2 -10   2    8.20    3.60
   2 -10   2    4.30    5.00
  -2 -10  -2    6.40    4.00
   2  10   3   93.79    8.20
   2  10   3  106.69    7.70
   2  10   3   95.29    7.60
   2 -10   3   95.99    7.20
  -2 -10  -3  107.69    7.40
  -2 -10  -3   84.19    7.10
   2 -10   3   87.99    5.10
   2 -10   3  107.49    7.30
   2 -10   3   90.99    8.10
   2  10   4   29.30    5.90
   2  10   4   32.60    6.80
   2  10   4   26.30    6.10
   2 -10   4   27.50    5.50
   2 -10   4   29.40    5.30
   2 -10   4   35.30    6.90
  -2 -10  -4   26.30    5.00
  -2 -10  -4   25.70    6.20
   2 -10   4   28.80    3.70
   2  10   5    5.60    5.30
   2  10   5    7.80    6.70
   2  10   5    8.00    6.00
   2 -10   5   -0.60    4.30
   2 -10   5    9.90    7.50
  -2 -10  -5    1.80    4.50
   2 -10   5    4.70    4.50
  -2 -10  -5   10.40    6.00
   2  10   6    7.30    7.00
   2  10   6   20.30    7.70
   2  10   6    6.00    5.80
   2 -10   6    8.30    8.00
   2 -10   6    2.20    4.60
  -2 -10  -6   11.40    4.90
  -2 -10  -6    9.50    6.70
   2  10   7    0.90    6.00
   2  10   7   -3.90    7.00
   2  10   7   13.40    8.40
   2 -10   7    3.40    8.40
  -2 -10  -7    7.60    6.90
   2 -10   7    4.40    4.50
  -2 -10  -7   10.10    5.30
   2  10   8   42.90    9.50
   2  10   8   37.40    7.30
   2 -10   8   34.10   10.00
   2 -10   8   38.10    5.90
  -2 -10  -8   26.50    6.60
   2  10   9    0.20    8.70
   2  10   9   -8.80    5.70
   2 -10   9    1.00    4.70
  -2 -10  -9    0.00    6.20
   2  10  10   12.50    9.50
   2  10  10   -5.90    6.20
  -2 -10 -10    6.10    6.70
   2  10  11    1.90    6.30
   2  10  11    5.00   11.20
   2 -10  11   -4.40   10.20
  -2 -10 -11   -0.90    7.10
   2  10  12   33.60   12.80
   2 -10  12    6.70   11.20
  -2 -10 -12   21.70    8.20
  -2  11  13   -3.10   11.80
  -2 -11  13   -9.50   12.10
   2 -11 -13   10.60    7.30
  -2  11  12    5.40   11.90
  -2 -11  12    2.40   11.50
   2 -11 -12   -1.30    6.50
  -2  11  11  -14.00   10.00
   2 -11 -11    7.60    6.30
  -2  11  10   -8.10    9.70
   2 -11 -10   -3.40    5.60
  -2  11   9   -4.60    7.60
  -2  11   9    5.70    4.80
  -2  11   9   -7.80    8.90
   2 -11  -9    8.60    5.40
  -2  11   8    7.60    9.00
  -2  11   8    2.60    7.70
  -2  11   8    8.80    4.90
  -2 -11   8   -7.80    6.30
   2 -11  -8    0.20    5.00
   2  11  -7  313.67   15.30
  -2  11   7  298.77   16.60
  -2  11   7  310.77   15.20
  -2  11   7  305.37   11.70
  -2 -11   7  306.47   15.50
   2 -11  -7  303.27   11.20
  -2 -11   7  290.47   13.40
   2 -11  -7  299.07   14.80
  -2  11   6    5.20    7.30
   2  11  -6    8.10    5.90
  -2  11   6    7.20    6.50
  -2  11   6    7.10    4.60
   2 -11  -6    3.10    4.40
   2 -11  -6   18.60    6.40
  -2 -11   6   13.20    3.20
  -2 -11   6   14.30    6.80
  -2 -11   6    6.60    5.30
  -2  11   5  164.48   11.40
  -2  11   5  163.38    8.70
  -2  11   5  152.38   11.20
   2 -11  -5  146.69    7.70
   2 -11  -5  163.58    9.90
   2 -11  -5  156.68    8.10
  -2 -11   5  150.38   10.80
  -2 -11   5  176.08   10.40
  -2 -11   5  166.48    6.90
  -2  11   4  146.09   10.40
  -2  11   4  155.98    9.00
  -2  11   4  155.78    7.10
  -2 -11   4  153.28   10.40
  -2 -11   4  159.98    9.30
  -2 -11   4  156.78    6.90
   2 -11  -4  156.68    8.60
   2 -11  -4  164.28    7.50
   2 -11  -4  157.28    7.90
  -2  11   3  200.58    7.90
  -2  11   3  182.78    9.10
   2 -11  -3  187.98    8.30
   2 -11  -3  197.28    7.90
  -2 -11   3  189.98    9.50
  -2 -11   3  183.28    7.90
  -2 -11   3  186.58   10.60
  -2  11   2  457.95   13.20
  -2 -11   2  485.05   15.00
  -2 -11   2  462.95   12.80
   2 -11  -2  473.95   12.90
  -2  11   1   12.40    4.40
   2  11  -1   11.00    4.20
  -2 -11   1   11.90    5.30
   2 -11  -1   10.30    4.60
  -2 -11   1    7.20    4.50
   2  11   0    5.00    4.30
   2 -11   0   10.70    5.10
  -2 -11   0   13.80    5.40
   2 -11   0    6.70    5.20
  -2 -11   0   10.30    5.00
   2  11   1   26.40    5.60
   2  11   1   18.70    5.00
  -2 -11  -1   16.00    4.80
  -2 -11  -1   17.70    5.00
   2 -11   1    9.60    5.00
   2 -11   1   11.90    4.90
   2 -11   1   17.20    3.00
   2  11   2   -4.80    4.90
   2  11   2    7.90    5.20
  -2 -11  -2    5.90    4.00
   2 -11   2    1.10    3.20
   2 -11   2   -7.90    4.00
  -2 -11  -2   -3.40    4.30
  -2 -11  -2   -4.40    4.70
   2 -11   2    5.60    5.40
   2  11   3    3.40    5.60
   2  11   3    0.10    4.10
   2  11   3   -2.80    4.80
   2 -11   3    4.80    4.30
  -2 -11  -3    0.50    4.40
   2 -11   3    3.30    5.30
  -2 -11  -3   -2.40    5.00
  -2 -11  -3   -1.50    3.80
   2 -11   3    3.70    4.00
   2 -11   3    0.60    2.80
   2  11   4  -10.80    4.90
   2  11   4    0.90    5.90
  -2 -11  -4   -2.30    5.30
   2 -11   4   -4.90    4.30
  -2 -11  -4   -3.00    4.20
  -2 -11  -4   11.90    6.50
   2 -11   4    7.10    6.90
   2 -11   4    6.00    4.30
   2 -11   4    4.70    3.10
   2  11   5   17.00    6.60
   2  11   5    5.40    5.60
   2  11   5   -3.90    6.50
  -2 -11  -5    5.70    4.90
   2 -11   5   -8.30    4.20
   2 -11   5    8.00    7.60
  -2 -11  -5    3.70    6.20
   2  11   6   -5.00    6.70
   2  11   6    7.20    7.10
   2  11   6    3.70    5.90
   2 -11   6    9.00    4.80
  -2 -11  -6   -2.70    6.40
   2 -11   6   -3.70    8.00
  -2 -11  -6    0.90    4.90
   2  11   7   10.40    8.30
   2  11   7    9.50    6.40
   2  11   7   17.40    8.10
  -2 -11  -7    2.30    5.40
   2 -11   7    6.10    4.90
  -2 -11  -7   20.10    7.40
   2 -11   7   20.60    8.90
   2  11   8    1.80    5.90
   2  11   8    3.90    8.40
  -2 -11  -8   12.10    6.20
   2 -11   8   23.20    9.80
   2 -11   8    1.40    4.90
   2  11   9   34.30    7.50
   2  11   9   17.60    9.90
   2 -11   9   32.40    5.60
  -2 -11  -9   16.00    6.80
   2  11  10  -12.60    9.30
   2  11  10    1.30    6.30
  -2 -11 -10   -9.80    6.00
   2  11  11    1.40    6.40
   2  11  11   -6.80   10.50
  -2 -11 -11   -4.10    6.90
   2  11  12  -19.20   10.90
  -2 -11 -12    0.80    7.70
   2 -11  12   -7.50   11.40
  -2  12  12   14.50   12.20
   2 -12 -12   -3.90    6.40
  -2 -12  12    1.90    9.70
  -2  12  11    3.80   11.00
   2 -12 -11    0.30    6.20
  -2  12  10   -0.10    4.90
  -2  12  10   -4.00    9.90
   2 -12 -10   -9.10    5.60
  -2  12   9    8.40    5.30
  -2  12   9   -1.90    8.90
  -2  12   9   -3.50    9.80
   2 -12  -9    4.10    5.60
  -2  12   8    4.90    4.90
  -2  12   8   -0.50    8.60
  -2  12   8    9.00    7.70
  -2 -12   8    0.00    7.30
   2 -12  -8   -6.40    5.00
   2  12  -7   68.29    8.90
  -2  12   7   55.49    9.10
  -2  12   7   57.59    6.60
  -2  12   7   69.99   10.40
  -2 -12   7   57.89    3.90
  -2 -12   7   55.09    8.60
   2 -12  -7   51.29    6.20
  -2 -12   7   50.49    7.40
   2 -12  -7   36.50    8.20
  -2  12   6   63.59    6.90
  -2  12   6   92.19    9.40
  -2  12   6   72.69    8.80
   2  12  -6   82.79    8.40
  -2 -12   6   73.59    7.60
  -2 -12   6   79.29    5.60
   2 -12  -6   78.29    8.30
  -2 -12   6   72.99    9.00
   2 -12  -6   85.89    6.60
  -2  12   5   44.50    7.60
  -2  12   5   51.89    6.40
  -2 -12   5   56.79    5.00
   2 -12  -5   52.49    6.50
  -2 -12   5   49.80    6.60
  -2 -12   5   47.80    7.50
   2 -12  -5   49.99    5.30
   2 -12  -5   46.50    5.50
  -2  12   4  205.08   11.70
  -2  12   4  169.98    9.30
  -2 -12   4  192.98   11.50
   2 -12  -4  193.38    8.70
   2 -12  -4  182.98    8.50
   2 -12  -4  201.38    9.10
  -2 -12   4  191.28    7.90
  -2 -12   4  183.38   10.00
  -2  12   3   44.80    5.70
  -2 -12   3   59.19    5.50
  -2 -12   3   37.30    6.70
   2 -12  -3   62.09    4.80
   2 -12  -3   53.09    5.30
  -2  12   2  370.46   12.30
  -2 -12   2  347.77   13.40
   2 -12  -2  338.77   11.50
   2 -12  -2  357.76    8.90
  -2 -12   2  359.56   11.30
  -2  12   1    7.70    4.30
   2  12  -1    0.80    3.90
   2 -12  -1   -0.80    4.50
   2 -12  -1   -1.10    4.40
  -2 -12   1    0.60    5.00
  -2 -12   1    3.20    4.40
  -2  12   0   29.30    5.20
   2  12   0   27.40    5.10
  -2 -12   0   33.90    5.80
   2 -12   0   26.30    5.60
  -2 -12   0   26.90    5.40
   2 -12   0   39.40    6.30
   2  12   1    4.80    4.90
   2  12   1   -1.00    4.90
  -2 -12  -1   -4.30    5.10
  -2 -12  -1   -3.10    4.90
   2 -12   1   -9.80    4.50
   2 -12   1   -4.70    4.70
   2 -12   1   -0.70    2.40
   2  12   2    6.00    5.00
   2  12   2   -1.90    5.10
  -2 -12  -2    4.30    5.20
  -2 -12  -2    1.60    4.00
   2 -12   2    2.30    5.40
   2 -12   2    2.50    4.60
  -2 -12  -2   11.70    5.60
   2 -12   2    0.20    3.10
   2  12   3    5.50    4.40
   2  12   3   16.60    6.30
   2  12   3   21.40    5.80
   2 -12   3   17.30    4.90
   2 -12   3    7.20    3.10
  -2 -12  -3    0.30    4.70
  -2 -12  -3    4.00    4.40
   2 -12   3    3.90    6.20
   2 -12   3    6.50    4.00
  -2 -12  -3    9.90    5.50
   2  12   4    7.90    5.60
   2  12   4    3.50    6.50
  -2 -12  -4    3.80    5.50
   2 -12   4    7.70    3.40
  -2 -12  -4   22.90    6.30
   2 -12   4   16.30    6.90
   2 -12   4    0.60    4.70
   2 -12   4   17.50    5.00
  -2 -12  -4   19.00    5.10
   2  12   5    7.80    5.80
   2  12   5   -0.90    6.80
  -2 -12  -5   -1.10    4.90
   2 -12   5    6.30    4.80
  -2 -12  -5   -2.40    5.90
   2 -12   5    1.80    7.80
   2  12   6   -1.20    6.60
   2  12   6    6.40    6.10
   2  12   6    3.50    7.60
   2 -12   6   -0.80    8.50
  -2 -12  -6   -3.70    6.40
  -2 -12  -6   -3.20    5.10
   2 -12   6    5.50    5.00
   2  12   7    4.20    7.60
   2  12   7   -8.90    7.40
   2  12   7  -10.30    5.90
   2 -12   7    1.30    4.90
  -2 -12  -7    6.50    7.20
   2 -12   7    7.50    8.90
  -2 -12  -7    9.80    6.00
   2  12   8   30.80    7.50
   2  12   8   16.10    9.10
  -2 -12  -8   24.60    6.70
   2 -12   8   22.10    5.70
   2  12   9   16.40    9.30
   2  12   9   10.10    6.70
   2 -12   9   -6.30    4.40
  -2 -12  -9    7.00    6.70
   2  12  10    5.10    6.70
   2  12  10   -3.20   10.10
  -2 -12 -10   -5.50    6.60
   2  12  11   -3.20   10.90
   2  12  11    5.70    6.70
  -2 -12 -11   -5.00    7.30
  -2  13  12   10.10   12.60
   2 -13 -12    1.60    7.10
  -2 -13  12    6.80   11.30
  -2  13  11    7.00   11.00
   2 -13 -11    8.40    6.50
  -2  13  10    8.00    5.40
  -2  13  10    4.90    9.40
   2 -13 -10   14.60    6.30
  -2  13   9   -2.20    5.10
  -2  13   9   -4.50    8.10
  -2 -13   9    9.30    9.60
   2 -13  -9    1.20    5.70
  -2  13   8  121.09   12.90
  -2  13   8  120.19   12.00
  -2  13   8  130.09    9.10
  -2 -13   8  113.29   11.50
   2 -13  -8  114.19    8.60
  -2  13   7   -3.30    5.00
  -2  13   7    6.90    7.10
  -2  13   7    5.50    7.50
   2  13  -7    4.50    6.70
   2 -13  -7   -3.20    5.00
   2 -13  -7  -11.50    6.40
  -2 -13   7   11.40    7.60
  -2 -13   7    7.20    6.10
  -2 -13   7    3.30    3.20
  -2  13   6   -3.90    6.30
  -2  13   6   -5.10    4.70
   2  13  -6   -6.50    5.30
  -2 -13   6    6.80    5.30
  -2 -13   6   -3.30    3.30
   2 -13  -6    6.30    5.90
   2 -13  -6   -4.10    4.50
  -2 -13   6   -5.30    6.80
  -2  13   5   54.69    8.20
  -2  13   5   60.19    7.00
  -2 -13   5   59.49    5.30
   2 -13  -5   47.80    5.50
   2 -13  -5   51.59    6.60
  -2 -13   5   58.69    8.40
  -2 -13   5   54.29    7.00
   2 -13  -5   52.49    5.70
  -2  13   4  108.49    9.10
  -2  13   4  123.39    8.90
   2 -13  -4  120.19    8.10
  -2 -13   4  127.09    7.30
   2 -13  -4  123.89    7.90
  -2 -13   4  119.39    9.40
  -2 -13   4  121.49    9.60
  -2  13   3    1.40    4.90
   2 -13  -3    2.70    3.40
   2 -13  -3   12.70    4.50
  -2 -13   3   11.20    4.40
  -2 -13   3   14.50    5.80
  -2  13   2   -2.90    5.00
   2 -13  -2    5.20    4.80
   2 -13  -2   -3.60    4.40
  -2 -13   2    4.10    5.10
   2 -13  -2    4.50    2.50
  -2 -13   2   -6.10    4.00
   2  13  -1   36.50    5.10
  -2  13   1   54.59    6.60
  -2 -13   1   42.40    6.60
   2 -13  -1   44.20    6.10
   2 -13  -1   51.59    6.30
  -2 -13   1   45.70    6.00
   2  13   0   30.90    5.50
   2  13   0   33.50    5.50
  -2  13   0   47.50    6.30
  -2 -13   0   41.30    6.10
   2 -13   0   25.60    5.50
   2 -13   0   39.50    6.40
  -2 -13   0   31.80    6.10
   2  13   1   48.10    6.30
  -2  13  -1   44.70    6.00
   2  13   1   42.60    5.90
  -2 -13  -1   65.39    7.30
   2 -13   1   50.99    4.10
   2 -13   1   56.09    7.40
   2 -13   1   50.39    7.00
  -2 -13  -1   38.70    6.20
   2  13   2   39.40    6.40
   2  13   2   24.00    6.20
   2 -13   2   25.20    3.70
  -2 -13  -2   29.10    6.50
  -2 -13  -2   36.00    5.30
   2 -13   2   27.90    7.10
   2 -13   2   17.70    5.30
  -2 -13  -2   27.20    5.70
   2  13   3   65.39    7.40
   2  13   3   68.99    7.40
   2  13   3   62.19    6.20
  -2 -13  -3   82.59    8.50
   2 -13   3   75.49    5.10
  -2 -13  -3   89.39    8.40
   2 -13   3   68.99    8.10
  -2 -13  -3   62.29    6.20
   2 -13   3   77.59    6.90
   2  13   4   21.60    6.30
   2  13   4   16.50    6.80
  -2 -13  -4   24.90    5.50
   2 -13   4   18.30    7.30
   2 -13   4   25.70    5.70
   2 -13   4   24.70    4.00
  -2 -13  -4   16.50    6.40
  -2 -13  -4   15.30    6.40
   2  13   5    8.60    6.40
   2  13   5    5.20    5.90
  -2 -13  -5    6.00    5.10
  -2 -13  -5    4.60    6.40
   2 -13   5    8.40    5.20
   2 -13   5    3.70    8.30
   2  13   6   33.40    8.50
   2  13   6   34.00    7.40
  -2 -13  -6   38.70    8.00
  -2 -13  -6   28.30    6.10
   2 -13   6   34.10    6.20
   2 -13   6   42.60   10.70
   2  13   7   12.20    8.20
   2  13   7   12.00    6.80
  -2 -13  -7    8.40    6.00
   2 -13   7   21.90    6.20
  -2 -13  -7   13.40    7.40
   2 -13   7   19.20    9.60
   2  13   8    6.90    8.40
   2  13   8    3.00    6.60
  -2 -13  -8    5.30    6.40
   2 -13   8   -2.20    4.90
   2  13   9    2.90    9.40
   2  13   9   -4.90    6.40
  -2 -13  -9   10.20    7.10
   2 -13   9   -5.50    4.70
   2  13  10   -2.80   10.30
   2  13  10   -5.20    6.50
  -2 -13 -10   -9.40    7.10
   2  13  11    2.80    7.10
   2  13  11   -3.30   11.30
  -2 -13 -11    7.70    7.70
  -2  14  12   -6.00   12.20
   2 -14 -12   -3.10    7.50
  -2  14  11  -11.70   10.60
   2 -14 -11    6.90    7.00
  -2  14  10    4.40    5.50
  -2  14  10    1.20   10.30
   2 -14 -10    2.90    6.30
  -2  14   9   53.09   11.70
  -2  14   9   28.10    6.50
   2 -14  -9   33.70    7.10
  -2 -14   9   33.00    9.60
  -2  14   8   15.60    8.40
  -2  14   8    6.10    7.90
  -2  14   8   16.20    6.00
   2 -14  -8   -6.10    5.50
  -2 -14   8    9.80    8.00
  -2  14   7   23.40    6.10
  -2  14   7   27.50    8.20
   2  14  -7   17.10    7.10
   2 -14  -7   14.50    5.40
   2 -14  -7   10.30    7.10
  -2 -14   7   11.90    8.30
  -2 -14   7   12.30    3.70
  -2  14   6   32.60    6.50
  -2  14   6   33.70    7.80
   2  14  -6   33.80    7.10
  -2 -14   6   30.20    8.10
   2 -14  -6   31.20    5.80
  -2 -14   6   34.80    6.70
  -2 -14   6   30.10    4.70
   2 -14  -6   38.50    7.00
  -2  14   5   35.40    7.20
  -2  14   5   46.40    6.90
   2 -14  -5   42.00    6.40
   2 -14  -5   45.30    5.70
  -2 -14   5   35.40    6.40
  -2 -14   5   55.39    8.80
   2 -14  -5   37.00    5.60
  -2 -14   5   56.69    5.70
  -2  14   4   31.30    6.50
  -2  14   4   33.90    6.40
   2 -14  -4   36.90    5.70
  -2 -14   4   45.10    7.90
   2 -14  -4   43.50    5.50
  -2 -14   4   41.20    5.20
  -2 -14   4   37.60    6.10
  -2  14   3   12.90    5.40
  -2 -14   3   24.00    6.80
   2 -14  -3    4.30    4.60
   2 -14  -3   12.50    3.70
   2 -14  -3   22.70    5.40
  -2 -14   3   19.20    4.90
  -2  14   2   45.70    6.10
   2 -14  -2   38.60    6.10
   2 -14  -2   38.10    3.20
   2 -14  -2   37.70    5.80
  -2 -14   2   53.59    6.20
  -2 -14   2   53.99    7.50
  -2  14   1   14.90    5.00
   2  14  -1   21.60    4.90
  -2 -14   1   26.30    5.60
  -2 -14   1   22.60    6.50
   2 -14  -1    5.40    4.90
   2 -14  -1   13.80    5.40
   2  14   0    0.30    5.20
  -2  14   0    2.30    5.20
   2  14   0   14.90    5.10
  -2 -14   0    0.40    4.50
  -2 -14   0    7.10    5.10
   2 -14   0    9.00    5.60
   2 -14   0    2.10    5.40
   2  14   1  159.58   10.00
   2  14   1  184.78   10.20
  -2  14  -1  168.28    9.70
   2 -14   1  173.68   10.20
  -2 -14  -1  170.28   10.90
  -2 -14  -1  157.08   10.20
   2 -14   1  157.28   11.30
  -2  14  -2   -2.80    5.20
   2  14   2   11.60    5.90
   2  14   2   19.70    6.10
   2 -14   2    2.40    5.80
  -2 -14  -2    5.20    4.40
   2 -14   2    3.50    5.00
  -2 -14  -2   12.40    5.90
  -2 -14  -2    9.90    5.80
   2  14   3   39.40    5.40
   2  14   3   37.20    7.20
   2  14   3   24.00    6.80
  -2 -14  -3   41.60    7.40
  -2 -14  -3   28.40    5.40
  -2 -14  -3   34.00    7.20
   2 -14   3   23.50    8.00
   2 -14   3   32.10    4.20
   2 -14   3   27.10    5.90
   2  14   4    6.30    6.80
   2  14   4   -4.80    6.00
   2 -14   4   -0.20    5.30
   2 -14   4    3.20    7.80
  -2 -14  -4    8.30    6.10
  -2 -14  -4   13.40    6.60
  -2 -14  -4    5.20    4.80
   2  14   5   35.40    8.40
   2  14   5   33.00    6.90
   2 -14   5   34.40    9.50
  -2 -14  -5   43.00    8.20
   2 -14   5   40.30    6.60
  -2 -14  -5   26.30    6.00
   2  14   6  -10.80    7.00
   2  14   6    7.20    6.60
  -2 -14  -6    3.20    5.90
   2 -14   6   -4.30    7.80
   2 -14   6   -2.90    5.20
  -2 -14  -6   16.60    7.40
   2  14   7   13.20    7.10
  -2 -14  -7    4.50    7.70
   2 -14   7   37.60   10.40
  -2 -14  -7   34.30    7.00
   2 -14   7   23.20    6.00
   2  14   8    7.00    6.90
   2  14   8   -9.40    8.30
   2 -14   8    3.60    5.30
  -2 -14  -8    2.60    6.60
   2  14   9  -11.00    9.30
   2  14   9  -10.40    6.40
   2 -14   9   -2.00    4.80
  -2 -14  -9   -9.00    6.40
   2  14  10  -16.40    9.90
   2  14  10  -11.80    6.40
  -2 -14 -10    6.40    7.40
   2  14  11    1.80    7.20
   2  14  11  -21.70   10.10
  -2 -14 -11   -4.50    7.50
  -2  15  12  -15.40   11.20
   2 -15 -12   -7.60    7.00
  -2  15  11    9.50   11.30
   2 -15 -11   16.20    7.30
  -2  15  10   -8.90   10.20
  -2  15  10   23.80    6.50
   2 -15 -10    3.70    6.50
  -2  15   9   -8.30    8.40
  -2  15   9    9.10    6.30
  -2 -15   9    1.10    8.80
   2 -15  -9    9.40    6.20
  -2  15   8    6.30    6.20
   2 -15  -8    6.00    5.90
  -2 -15   8   15.00    8.30
  -2  15   7  184.48   11.10
   2  15  -7  169.08   12.10
  -2  15   7  178.98   14.20
  -2 -15   7  177.58   13.50
   2 -15  -7  195.58   11.20
  -2 -15   7  175.28    8.00
   2  15  -6   46.00    7.40
  -2  15   6   26.50    6.60
  -2  15   6   18.80    7.00
  -2 -15   6   29.90    5.00
  -2 -15   6   31.30    6.90
   2 -15  -6   25.20    7.50
  -2 -15   6   28.00    8.60
   2 -15  -6   34.00    6.10
  -2  15   5   65.89    9.20
  -2  15   5   47.60    7.30
   2  15  -5   67.89    7.30
  -2 -15   5   67.49    9.50
  -2 -15   5   63.49    6.30
   2 -15  -5   50.99    6.70
  -2 -15   5   61.49    7.40
   2 -15  -5   54.79    6.70
  -2  15   4   18.00    5.50
  -2  15   4    9.90    5.90
  -2 -15   4    4.80    5.50
   2 -15  -4   27.10    8.10
  -2 -15   4   19.30    7.20
  -2 -15   4   20.20    4.90
   2 -15  -4   17.20    5.30
   2 -15  -4   10.80    4.50
  -2  15   3  234.38   11.30
   2 -15  -3  231.88    8.30
   2 -15  -3  222.18   11.80
  -2 -15   3  244.38   10.30
   2 -15  -3  235.98   10.80
  -2 -15   3  225.58   13.20
  -2  15   2   -2.30    5.50
   2 -15  -2    0.60    5.50
  -2 -15   2   -1.60    5.90
  -2 -15   2    3.40    4.50
   2 -15  -2    3.60    5.00
   2  15  -1   -2.20    4.30
   2  15  -1    1.70    5.30
  -2  15   1   -2.00    5.10
  -2 -15   1    0.80    4.30
   2 -15  -1   -1.60    5.50
  -2 -15   1   12.90    5.60
   2 -15  -1   -3.20    5.10
   2  15   0    2.50    4.90
   2  15   0   11.90    5.30
  -2  15   0    5.90    5.40
  -2 -15   0    2.80    5.30
  -2 -15   0   -4.50    5.50
   2 -15   0    2.60    5.70
   2 -15   0   -6.30    5.20
   2  15   1   32.90    6.00
   2  15   1   40.40    6.70
  -2  15  -1   39.90    5.90
   2 -15   1   54.09    8.00
   2 -15   1   47.20    7.10
  -2 -15  -1   46.10    7.40
  -2 -15  -1   51.79    7.40
   2  15   2   -0.30    5.60
  -2  15  -2   -0.20    4.40
   2  15   2   -2.80    5.00
  -2 -15  -2    0.50    4.50
   2 -15   2    8.30    6.90
  -2 -15  -2    7.60    6.20
   2 -15   2   -5.60    5.40
  -2 -15  -2   -8.30    5.00
   2  15   3   27.40    5.30
   2  15   3   32.70    7.10
   2  15   3   43.40    7.60
  -2 -15  -3   25.20    7.00
  -2 -15  -3   35.30    5.60
   2 -15   3   39.80    9.20
   2 -15   3   38.10    6.50
  -2 -15  -3   35.20    7.10
   2 -15   3   35.30    4.70
   2  15   4   49.20    7.70
   2  15   4   46.60    8.50
  -2 -15  -4   40.90    8.00
  -2 -15  -4   52.79    6.70
  -2 -15  -4   48.20    7.90
   2 -15   4   42.90    9.40
   2 -15   4   37.20    6.80
   2  15   5    8.90    6.70
   2  15   5   12.40    7.70
   2 -15   5   15.30    9.20
   2 -15   5   -3.60    5.20
  -2 -15  -5    2.60    5.40
  -2 -15  -5    6.20    6.90
   2  15   6   -0.10    6.60
   2  15   6   -4.60    7.70
  -2 -15  -6   -7.40    5.10
   2 -15   6   -1.50    5.40
  -2 -15  -6    4.80    7.20
   2 -15   6    4.60    9.60
   2  15   7   15.20    7.30
  -2 -15  -7   18.00    6.80
   2 -15   7   25.50    6.40
   2  15   8    7.40    7.30
  -2 -15  -8    2.00    6.80
   2 -15   8   13.50    5.80
   2  15   9   15.40    7.30
   2 -15   9   20.00    5.70
  -2 -15  -9   30.50    7.70
   2  15  10    3.80    7.40
  -2 -15 -10    5.10    7.90
   2  15  11    2.00    7.30
  -2 -15 -11   -6.70    7.60
   2 -16 -12   -8.90    7.40
   2 -16 -11   10.40    7.20
  -2  16  10   -2.70    5.70
   2 -16 -10   -9.70    6.30
  -2  16   9   15.30    6.70
   2 -16  -9   21.50    7.10
  -2  16   8   35.40    7.30
   2 -16  -8   44.80    7.20
  -2 -16   8   43.20    9.90
   2  16  -7   18.40    7.00
  -2  16   7   12.70    6.40
  -2  16   7   21.90    8.50
   2 -16  -7    0.10    5.80
  -2 -16   7    6.70    4.20
  -2 -16   7   16.80    8.50
   2  16  -6   44.30    7.40
  -2  16   6   39.60    7.40
  -2  16   6   35.40    8.50
  -2 -16   6   54.39    9.90
   2 -16  -6   42.20    7.00
  -2 -16   6   42.00    5.70
  -2 -16   6   54.29    7.70
  -2  16   5   90.19    9.60
   2  16  -5  120.49    8.70
  -2  16   5  120.69    9.60
  -2 -16   5  116.79    8.10
  -2 -16   5  118.59   11.00
  -2 -16   5  110.89    9.20
  -2  16   4   15.10    6.80
  -2  16   4    7.60    6.00
  -2 -16   4   11.00    5.80
  -2 -16   4   22.50    5.20
  -2 -16   4   18.90    7.60
   2 -16  -4    4.60    5.50
  -2  16   3    1.80    5.60
   2 -16  -3    9.10    5.40
  -2 -16   3    6.00    4.80
   2 -16  -3    7.30    6.20
  -2 -16   3    2.30    6.60
  -2  16   2    2.70    5.20
  -2 -16   2   -7.30    5.40
  -2 -16   2    1.00    4.90
   2 -16  -2    6.20    6.20
   2 -16  -2   -2.50    5.10
  -2  16   1   44.70    7.30
   2  16  -1   29.20    5.80
   2  16  -1   39.60    6.20
  -2 -16   1   34.60    6.60
  -2 -16   1   40.90    7.80
   2 -16  -1   41.20    7.30
   2 -16  -1   39.30    6.70
   2  16   0   39.10    6.20
   2  16   0   41.00    6.60
  -2  16   0   33.90    6.20
   2 -16   0   29.10    6.10
  -2 -16   0   29.70    6.40
  -2 -16   0   24.30    6.40
   2 -16   0   24.00    6.70
   2  16   1    5.90    5.90
   2  16   1   13.30    5.80
  -2  16  -1   -1.30    4.70
  -2 -16  -1    0.80    6.10
   2 -16   1   20.80    7.10
  -2 -16  -1   15.70    6.90
   2 -16   1    3.60    5.50
  -2  16  -2   36.20    6.80
   2  16   2   26.60    6.60
   2  16   2   31.60    7.20
  -2 -16  -2   32.80    7.00
  -2 -16  -2   37.20    7.50
   2 -16   2   23.50    6.10
   2 -16   2   33.80    8.50
  -2 -16  -2   29.60    7.80
   2  16   3   39.10    7.50
   2  16   3   52.59    8.20
   2  16   3   41.20    5.60
   2 -16   3   48.00    7.40
   2 -16   3   42.50    5.30
  -2 -16  -3   41.40    6.20
  -2 -16  -3   51.29    8.20
  -2 -16  -3   40.50    8.10
   2 -16   3   53.29    9.90
   2  16   4   67.29    9.30
   2  16   4   64.29    8.20
  -2 -16  -4   54.79    8.60
  -2 -16  -4   57.29    7.00
  -2 -16  -4   51.99    8.20
   2 -16   4   64.39   10.40
   2 -16   4   60.29    7.90
   2  16   5   -3.80    6.90
   2  16   5   -4.10    6.00
  -2 -16  -5  -15.50    6.30
  -2 -16  -5    7.20    5.60
   2 -16   5    1.70    5.80
   2 -16   5   -0.20    9.20
   2  16   6   42.90   16.00
   2  16   6   32.40    8.20
  -2 -16  -6   27.80    7.40
   2 -16   6   34.60    6.80
   2 -16   6   35.20   10.90
  -2 -16  -6   24.90    8.10
   2  16   7  -11.70    6.40
   2 -16   7   -6.40    5.40
  -2 -16  -7   -5.90    6.10
   2  16   8    9.40    7.60
   2 -16   8    2.30    5.70
  -2 -16  -8   -6.80    6.20
   2  16   9    2.20    7.20
   2 -16   9   10.10    5.50
  -2 -16  -9   -5.90    6.70
   2  16  10    3.50    7.30
  -2 -16 -10   -1.90    7.30
   2  16  11    7.20    7.80
  -2 -16 -11   -2.00    8.00
   2 -17 -12   -8.70    7.40
  -2  17  11    3.30    7.90
   2 -17 -11    9.20    7.50
  -2  17  10   -3.10    6.10
   2 -17 -10   -5.60    6.50
  -2  17   9   -6.70    6.10
   2 -17  -9   16.80    7.00
  -2  17   8   30.20    7.50
   2 -17  -8   25.60    7.20
  -2 -17   8   21.90    9.30
  -2  17   7   -2.60   11.60
  -2  17   7    5.80    6.50
   2 -17  -7   17.70    6.40
  -2 -17   7   13.80    9.00
  -2 -17   7   27.20    5.10
  -2  17   6   12.20    7.90
  -2  17   6   24.50    7.20
  -2 -17   6   22.60    5.30
   2 -17  -6   17.90    6.00
  -2 -17   6   25.30    9.20
   2  17  -5   57.69    8.00
  -2  17   5   44.80    8.70
  -2  17   5   53.59    8.10
  -2 -17   5   56.09    6.50
  -2 -17   5   55.29    7.60
  -2 -17   5   45.50    9.40
  -2  17   4   70.79    8.70
  -2  17   4   62.89    9.40
  -2 -17   4   74.29   10.00
  -2 -17   4   67.29    7.10
   2 -17  -4   66.89    7.50
  -2 -17   4   53.79    7.60
  -2  17   3   80.89    8.00
   2 -17  -3   84.29    8.00
  -2 -17   3   79.09    9.10
  -2 -17   3   91.29    7.90
   2 -17  -3   88.29    9.30
   2  17  -2    8.50    6.20
  -2  17   2   -7.70    5.30
   2  17  -2   -1.40    4.60
  -2 -17   2   -6.40    5.00
  -2 -17   2    1.90    6.90
   2 -17  -2    5.00    5.70
   2 -17  -2   -4.50    5.40
   2  17  -1   21.40    5.90
   2  17  -1   23.20    5.80
  -2  17   1   14.30    6.30
  -2 -17   1   12.60    5.90
   2 -17  -1   23.70    6.90
  -2 -17   1   18.00    7.10
   2 -17  -1   21.10    6.40
   2  17   0    1.80    6.00
  -2  17   0    9.20    6.20
   2  17   0    5.70    5.40
  -2 -17   0   16.80    7.00
  -2 -17   0    5.80    5.50
   2 -17   0    0.60    6.10
   2 -17   0    7.20    6.40
   2  17   1    4.90    5.90
  -2  17  -1   14.70    5.50
   2  17   1   14.70    6.50
  -2 -17  -1    8.00    5.90
  -2 -17  -1    2.50    6.60
   2 -17   1    0.00    6.00
   2 -17   1    7.70    7.20
  -2  17  -2   13.00    5.90
   2  17   2    9.20    5.80
   2  17   2   23.40    7.20
  -2 -17  -2   11.60    6.20
   2 -17   2   17.80    8.20
  -2 -17  -2   10.00    6.90
   2 -17   2   20.20    6.00
   2  17   3   -6.20    5.50
   2  17   3   -4.90    6.20
  -2 -17  -3  -10.20    6.10
  -2 -17  -3  -12.60    6.20
   2 -17   3  -11.20    7.80
   2 -17   3    4.30    6.00
   2  17   4   18.20    7.60
   2  17   4   18.90    7.50
   2 -17   4   11.00    6.20
  -2 -17  -4   26.40    7.90
   2 -17   4   34.40    9.70
  -2 -17  -4   15.40    6.00
  -2 -17  -4   29.70    8.10
   2  17   5   17.50    6.60
   2  17   5   13.20    7.70
  -2 -17  -5   26.90    6.80
  -2 -17  -5   13.50    7.70
   2 -17   5   19.90    6.50
   2 -17   5   13.60   10.00
   2  17   6   -1.60    6.50
  -2 -17  -6    4.90    7.40
  -2 -17  -6   -8.50    6.00
   2 -17   6   -7.00    9.40
   2 -17   6    7.50    6.40
   2  17   7    4.00    7.00
   2 -17   7   21.10    6.80
  -2 -17  -7   13.70    7.40
   2  17   8    1.10    7.20
  -2 -17  -8   -0.60    6.90
   2 -17   8   -0.80    5.70
   2  17   9   -8.20    7.30
  -2 -17  -9   -3.20    7.50
   2 -17   9    3.90    5.80
   2  17  10   -1.40    7.50
  -2 -17 -10   17.20    8.50
   2  17  11    0.60    7.50
  -2 -17 -11  -12.20    7.80
  -2  18  11    4.40    6.60
   2 -18 -11   -3.70    7.30
  -2  18  10    2.90    6.70
   2 -18 -10    5.10    7.10
  -2  18   9   19.70    7.10
   2 -18  -9    0.30    6.70
  -2  18   8    9.60    6.90
   2 -18  -8   21.20    7.20
  -2  18   7   10.00    6.80
  -2 -18   7    2.70    8.40
   2 -18  -7   15.60    6.60
  -2 -18   7   -0.40    4.50
  -2  18   6    2.80    7.50
  -2  18   6    0.20    6.70
  -2 -18   6    1.40    8.20
  -2 -18   6    2.80    4.90
  -2  18   5   20.00    7.10
  -2  18   5   15.20    7.70
  -2 -18   5   -3.20    8.30
  -2 -18   5   17.80    6.40
  -2 -18   5    7.50    5.30
  -2  18   4   90.79    9.70
  -2  18   4  100.29   10.00
  -2 -18   4   74.59   10.00
  -2 -18   4   71.49    8.50
   2 -18  -4   83.19    8.30
  -2 -18   4   83.29    7.90
  -2  18   3    3.30    6.40
  -2 -18   3    6.30    5.70
   2 -18  -3   -2.00    6.40
   2 -18  -3   -2.70    5.60
  -2 -18   3   -0.70    6.50
   2  18  -2   31.90    5.90
  -2  18   2   38.20    7.60
   2 -18  -2   27.60    6.80
  -2 -18   2   24.90    6.60
  -2 -18   2   30.40    8.10
   2 -18  -2   48.30    8.20
   2  18  -1  116.29    9.60
   2  18  -1  117.49    8.90
  -2  18   1  109.09    9.10
   2 -18  -1   91.79    9.70
  -2 -18   1  107.19    9.40
  -2 -18   1  116.19   10.70
   2 -18  -1  110.29    9.70
  -2  18   0    0.60    5.50
   2  18   0   -1.60    5.50
   2  18   0   -9.10    6.10
   2 -18   0    9.10    6.00
  -2 -18   0   -2.00    5.50
  -2 -18   0    1.00    7.10
   2 -18   0   -2.00    6.60
  -2  18  -1   56.59    8.00
   2  18   1   46.00    7.30
   2  18   1   57.19    8.30
   2 -18   1   75.99    8.60
  -2 -18  -1   77.79    9.30
   2 -18   1   66.99    9.30
  -2 -18  -1   62.99    8.90
  -2  18  -2   29.50    6.40
   2  18   2   33.80    7.40
   2  18   2   46.50    8.30
  -2 -18  -2   31.00    7.20
   2 -18   2   36.30    9.10
   2 -18   2   37.20    7.50
  -2 -18  -2   33.60    7.30
   2  18   3   -1.40    6.40
   2  18   3   -2.10    5.90
  -2 -18  -3   -1.60    6.60
  -2 -18  -3   -2.10    6.80
   2 -18   3   -3.70    6.10
   2 -18   3  -13.70    6.90
   2  18   4    8.40    6.60
   2  18   4   11.00    7.20
  -2 -18  -4   12.10    8.00
   2 -18   4    8.10    6.60
   2 -18   4   11.80    8.80
  -2 -18  -4    2.30    7.30
   2  18   5   26.00    8.20
   2  18   5   23.20    7.70
  -2 -18  -5   35.60    8.60
   2 -18   5   36.20    7.30
   2 -18   5   38.30    9.90
  -2 -18  -5   19.90    6.90
   2  18   6   -0.40    7.00
  -2 -18  -6    2.50    6.80
   2 -18   6   12.30    6.60
  -2 -18  -6   11.20    8.10
   2  18   7   31.10    8.70
   2 -18   7   25.10    7.20
  -2 -18  -7   16.90    7.10
   2  18   8   12.90    8.10
  -2 -18  -8   15.70    7.80
   2 -18   8    8.60    6.30
   2  18   9   -5.40    7.50
   2 -18   9    6.30    5.70
  -2 -18  -9    0.60    7.50
   2  18  10   14.80    8.30
  -2 -18 -10    5.90    8.40
   2  18  11  -14.30    7.40
  -2  19  11   10.60    7.30
   2 -19 -11    9.60    8.10
  -2  19  10    1.80    7.10
   2 -19 -10  -10.20    6.90
  -2  19   9    2.90    6.80
   2 -19  -9   -1.90    6.90
  -2  19   8  -11.30    6.40
   2 -19  -8    1.00    6.70
  -2  19   7    5.70    6.90
  -2 -19   7    2.70   10.00
   2 -19  -7   -0.90    6.20
  -2 -19   7    3.10    5.00
  -2  19   6   13.30   11.40
  -2  19   6   13.10    7.40
  -2 -19   6   -4.90    4.90
  -2 -19   6   10.40    9.20
  -2  19   5   18.50    7.40
  -2  19   5   -1.80    6.60
  -2 -19   5   15.80    5.90
  -2 -19   5   18.80    9.40
  -2  19   4    7.00    7.40
  -2  19   4    0.10    6.60
  -2 -19   4    4.90    6.50
  -2 -19   4   12.20    6.10
  -2 -19   4   10.40    8.40
   2 -19  -4   20.80    6.90
  -2  19   3   25.20    7.40
  -2 -19   3   34.90    7.00
   2 -19  -3   28.00    8.10
   2 -19  -3   30.40    7.00
  -2 -19   3   26.10    7.80
  -2  19   2   35.70    8.00
   2  19  -2   31.40    6.20
  -2 -19   2   23.30    8.40
  -2 -19   2   25.70    6.10
   2 -19  -2   32.70    7.30
   2 -19  -2   37.00    7.40
  -2  19   1   10.50    7.10
   2  19  -1    4.40    5.60
   2  19  -1    7.50    6.80
   2 -19  -1   12.60    7.20
  -2 -19   1    9.30    6.90
  -2 -19   1   12.90    6.80
   2 -19  -1    3.80    6.50
   2  19   0   96.29    9.80
   2  19   0   82.19    8.70
  -2  19   0   74.09    8.40
  -2 -19   0   89.59    9.00
  -2 -19   0  106.29   10.70
   2 -19   0   85.89    9.00
   2 -19   0   83.99    9.70
   2  19   1   16.50    7.30
   2  19   1   30.70    7.10
  -2  19  -1   27.50    7.20
  -2 -19  -1   22.60    8.20
  -2 -19  -1   27.80    8.10
   2 -19   1   46.20    8.40
   2 -19   1   10.50    7.90
  -2  19  -2   43.10    8.30
   2  19   2   33.90    8.00
   2  19   2   28.90    7.20
   2 -19   2   25.50    7.60
   2 -19   2   28.00    9.20
  -2 -19  -2   51.79    8.70
  -2 -19  -2   33.80    8.10
   2  19   3   -1.30    6.50
   2  19   3   -0.20    6.30
   2 -19   3   -4.80    7.60
  -2 -19  -3    1.90    7.40
   2 -19   3   -1.50    6.40
  -2 -19  -3   -4.00    6.90
   2  19   4   15.10    7.80
   2  19   4   -1.70    7.00
   2 -19   4    0.10    8.00
   2 -19   4   -2.20    6.10
  -2 -19  -4   -3.10    8.80
  -2 -19  -4   -1.20    7.40
   2  19   5    7.80    7.30
   2 -19   5   11.20    6.80
   2 -19   5  -11.30    9.30
  -2 -19  -5   -4.30    7.30
   2  19   6   -1.20    7.20
  -2 -19  -6   10.00    8.30
   2 -19   6    1.70    6.80
   2  19   7    0.10    7.60
   2 -19   7   -2.70    6.40
   2  19   8    8.00    7.70
   2 -19   8   20.60    7.00
   2  19   9    3.30    7.90
   2 -19   9   -1.20    5.80
   2  19  10   -7.00    7.60
  -2  20  11    1.90    6.90
   2 -20 -11   14.60    8.40
  -2  20  10    3.50    7.40
   2 -20 -10   10.90    8.00
  -2  20   9   31.60    8.10
   2 -20  -9   22.40    8.10
  -2  20   8   14.60    7.60
  -2 -20   8   28.90    5.90
   2 -20  -8   36.10    8.00
  -2  20   7   -5.30    6.90
  -2 -20   7    5.80    5.50
  -2  20   6   37.50    8.70
  -2 -20   6   37.60    6.90
  -2 -20   6   32.30   10.10
  -2  20   5    7.40    7.60
  -2  20   5    2.70    6.80
  -2 -20   5    1.40    5.60
  -2 -20   5    0.10    8.80
  -2  20   4   25.90    7.50
  -2  20   4   27.50    8.00
   2 -20  -4   12.20    7.80
  -2 -20   4   12.10    6.30
  -2 -20   4   28.00    9.40
  -2  20   3   22.50    7.60
   2 -20  -3   44.00    8.90
   2 -20  -3   40.10    7.70
  -2 -20   3   37.60    8.80
  -2 -20   3   37.20    7.40
   2  20  -2    0.40    5.30
  -2  20   2    3.10    7.00
   2 -20  -2    6.00    7.10
   2 -20  -2   -2.80    6.80
  -2 -20   2    0.20    6.30
  -2 -20   2   -5.40    7.70
   2  20  -1   50.09    7.50
   2  20  -1   52.09    7.80
  -2  20   1   56.19    8.80
  -2 -20   1   57.59    8.50
   2 -20  -1   56.89    8.90
  -2 -20   1   41.00    8.90
   2 -20  -1   55.49    8.40
   2  20   0    1.20    7.00
  -2  20   0    7.30    6.40
   2  20   0   -1.20    6.10
   2 -20   0    6.80    6.60
  -2 -20   0    1.90    6.10
  -2 -20   0   -2.50    7.50
   2 -20   0    7.40    7.20
   2  20   1   -1.60    6.40
   2  20   1   -3.60    6.80
  -2  20  -1   -2.70    6.60
  -2 -20  -1   -4.10    7.30
   2 -20   1   -3.70    6.30
  -2 -20  -1   -3.20    7.00
   2 -20   1   10.80    8.00
   2  20   2   18.10    7.90
   2  20   2   20.30    7.20
  -2 -20  -2   34.50    8.70
  -2 -20  -2   17.60    7.80
   2 -20   2   28.50    7.60
   2 -20   2   23.90    9.40
   2  20   3   14.10    7.10
   2  20   3   39.20    8.60
  -2 -20  -3   17.40    8.10
   2 -20   3   36.90   10.10
   2 -20   3   33.50    7.70
  -2 -20  -3   24.90    8.60
   2  20   4   -1.70    6.60
   2  20   4  -11.20    7.10
  -2 -20  -4  -12.00    7.00
   2 -20   4    8.00    7.00
   2 -20   4   -3.30    8.20
   2  20   5   22.10    8.60
  -2 -20  -5   17.50    8.00
   2 -20   5   20.30    7.60
   2  20   6    3.50    7.40
   2 -20   6    6.10    6.80
   2  20   7    3.90    7.90
   2 -20   7    2.70    6.60
   2  20   8    2.70    8.10
   2 -20   8    9.90    6.90
   2  20   9    1.50    8.10
   2 -20   9    2.30    6.30
   2  20  10   22.20    8.90
  -2  21  11   -5.90    6.80
   2 -21 -11   -8.80    7.70
  -2  21  10    3.60    7.50
   2 -21 -10   -7.40    7.70
  -2  21   9   12.20    7.70
   2 -21  -9    8.40    7.60
  -2  21   8    8.20    7.70
  -2 -21   8    6.10    5.00
  -2  21   7   -3.10    6.90
  -2 -21   7   -1.30    5.50
  -2  21   6   -1.20    7.40
  -2 -21   6   -6.40    5.50
  -2  21   5    8.80    7.80
  -2 -21   5    5.50    6.10
  -2 -21   5   11.80    9.60
  -2  21   4   11.40    7.30
  -2  21   4    7.10    7.00
  -2 -21   4   20.80    6.80
  -2 -21   4    1.00    9.40
  -2  21   3    5.20    7.60
   2 -21  -3   19.00    8.50
  -2 -21   3   -3.70    8.30
  -2 -21   3   14.30    6.90
   2 -21  -3   26.50    7.70
  -2  21   2    8.20    7.30
   2  21  -2   15.60    6.30
   2 -21  -2   23.90    8.40
  -2 -21   2   30.20    9.10
   2 -21  -2   26.50    7.60
  -2 -21   2   23.00    6.70
  -2  21   1   26.00    8.30
   2  21  -1   -3.20    6.10
   2  21  -1   20.00    7.70
  -2 -21   1   15.90    7.30
   2 -21  -1   10.10    7.40
  -2 -21   1    9.20    8.40
   2 -21  -1   10.00    7.70
   2  21   0   24.80    7.40
  -2  21   0   44.50    8.80
   2  21   0   39.10    7.60
  -2 -21   0   29.10    8.40
  -2 -21   0   43.70    8.70
   2 -21   0   43.30    9.50
   2 -21   0   18.70    7.30
   2  21   1  280.97   15.00
   2  21   1  283.87   15.00
  -2  21  -1  275.57   14.60
   2 -21   1  289.07   16.80
  -2 -21  -1  245.98   15.10
  -2 -21  -1  258.77   16.20
   2 -21   1  262.77   14.20
   2  21   2   15.00    7.70
   2  21   2   18.70    8.20
   2 -21   2   15.10    7.80
   2 -21   2   25.20    9.70
  -2 -21  -2   22.60    8.50
  -2 -21  -2   11.40    8.00
   2  21   3   -2.60    7.40
   2  21   3   -8.60    6.80
  -2 -21  -3    1.70    6.80
   2 -21   3   11.20    7.50
   2 -21   3    4.40    9.60
  -2 -21  -3    3.90    7.60
   2  21   4   15.00   10.20
   2  21   4   12.80    7.40
  -2 -21  -4   11.60    8.40
   2 -21   4    2.30   10.00
   2 -21   4   13.20    7.60
   2  21   5   32.10    9.30
  -2 -21  -5   25.70    8.60
   2 -21   5   27.10    8.20
   2  21   6    2.40    7.70
   2 -21   6  -19.90    6.50
   2  21   7  -19.20    7.30
   2 -21   7    8.30    7.20
   2  21   8    7.20    8.30
   2 -21   8    4.30    6.90
   2  21   9    9.00    8.60
   2 -21   9   -4.40    6.00
   2  21  10    9.00    8.90
  -2  22  11   -0.80    7.40
   2 -22 -11   11.50    8.80
  -2  22  10   -4.60    7.70
   2 -22 -10    5.30    8.20
  -2  22   9    4.30    8.00
  -2  22   8   -7.20    7.00
  -2 -22   8   13.80    5.60
  -2  22   7   -5.80    7.20
  -2 -22   7   -2.60    5.50
  -2  22   6   29.40    8.70
  -2 -22   6   39.90    7.70
  -2  22   5   -0.30    7.40
  -2 -22   5    5.50    6.60
  -2  22   4   -0.40    8.50
  -2  22   4   23.80    8.60
  -2 -22   4    7.40    9.50
  -2 -22   4    9.10    6.70
  -2  22   3   12.90    7.50
  -2  22   3   24.30    8.70
   2 -22  -3   37.90    9.50
  -2 -22   3   17.80    9.70
   2 -22  -3   20.10    8.10
  -2 -22   3   20.70    7.50
   2  22  -2   11.30    6.20
  -2  22   2   17.00    7.90
   2 -22  -2    7.60    7.20
   2 -22  -2    3.80    7.30
  -2 -22   2    2.70    8.10
  -2 -22   2    7.70    7.10
  -2  22   1    3.50    6.60
   2  22  -1   14.40    7.80
   2  22  -1   -2.30    6.20
  -2 -22   1   10.90    8.70
  -2 -22   1    5.80    7.10
   2 -22  -1    0.10    7.50
   2 -22  -1   12.60    8.20
   2  22   0   19.90    7.30
   2  22   0   31.80    8.80
  -2  22   0   29.80    8.80
  -2 -22   0   18.10    7.90
   2 -22   0   12.40    8.60
   2 -22   0   42.30    9.20
  -2 -22   0   40.40    9.50
   2  22   1    9.90    7.30
   2  22   1    1.10    7.50
  -2  22  -1    4.40    7.30
  -2 -22  -1    3.50    8.50
   2 -22   1   -1.40    6.90
   2 -22   1    1.10    8.50
  -2 -22  -1   -2.10    7.60
   2  22   2   46.50    9.30
   2  22   2   44.30    8.70
  -2 -22  -2   58.69    9.90
   2 -22   2   53.09   11.20
  -2 -22  -2   41.30    9.50
   2 -22   2   55.39    9.80
   2  22   3    8.60    8.10
   2  22   3    4.80    7.20
   2 -22   3   25.50   10.30
  -2 -22  -3    5.90    7.40
  -2 -22  -3    7.10    8.20
   2 -22   3    1.60    7.40
   2  22   4    0.80    8.20
  -2 -22  -4   -0.70    8.40
   2 -22   4    5.60    7.50
   2  22   5  -10.20    7.50
   2 -22   5   -7.80    6.80
  -2 -22  -5    0.00    8.30
   2  22   6   14.10    8.60
   2 -22   6   -2.70    7.20
   2  22   7    0.10    7.80
   2 -22   7    3.90    7.10
   2  22   8   -3.80    8.10
   2 -22   8    4.50    7.20
   2  22   9   -6.60    8.30
   2 -22   9    6.20    6.60
   2  22  10    7.30    8.70
  -2  23  10    1.00    7.90
  -2  23   9  -12.60    7.30
  -2  23   8   12.20    8.30
  -2 -23   8   -4.60    5.20
  -2  23   7    7.30    8.00
  -2 -23   7   -0.20    5.90
  -2  23   6   -2.30    7.80
  -2 -23   6   -9.00    5.80
  -2  23   5    8.00    7.70
  -2 -23   5   11.10    7.20
  -2  23   4  -15.60    7.30
  -2 -23   4   -1.20    9.50
  -2 -23   4   -1.70    6.60
  -2  23   3    7.70    8.00
  -2  23   3   12.40    8.20
   2 -23  -3   10.10    8.00
  -2 -23   3   12.10    7.60
  -2 -23   3    2.50    9.00
   2 -23  -3    8.10    8.10
  -2  23   2   30.10    8.80
   2 -23  -2    6.80    8.00
   2 -23  -2    7.60    7.50
  -2 -23   2   24.80    9.80
  -2 -23   2   15.10    8.00
   2  23  -1   -6.80    6.20
  -2  23   1   -3.20    7.60
  -2 -23   1   11.60    9.00
   2 -23  -1  -13.20    7.50
  -2 -23   1    3.30    7.60
   2 -23  -1   -0.20    7.60
  -2  23   0   51.69    9.10
   2  23   0   63.39    9.30
   2  23   0   58.69    9.40
  -2 -23   0   49.30   10.40
   2 -23   0   47.40   10.10
  -2 -23   0   56.19    9.90
   2 -23   0   58.89   10.30
  -2  23  -1   64.89   10.00
   2  23   1   51.69    9.10
   2  23   1   69.59   10.10
   2 -23   1   55.69   10.70
   2 -23   1   49.10    9.00
  -2 -23  -1   61.29    9.50
  -2 -23  -1   57.39   10.60
   2  23   2   12.70    8.00
   2  23   2   10.60    8.10
  -2 -23  -2    8.70    9.00
   2 -23   2   -1.30    9.20
   2 -23   2   12.80    8.60
  -2 -23  -2  -23.40    7.30
   2  23   3    1.90    8.20
  -2 -23  -3   -1.00    7.10
   2 -23   3   -6.10    7.20
   2 -23   3   -9.40    9.80
  -2 -23  -3  -10.70    8.00
   2  23   4   42.10    9.30
   2 -23   4   40.00    9.40
  -2 -23  -4   37.20   10.00
   2  23   5   22.20    9.00
  -2 -23  -5   10.40    9.00
   2 -23   5   11.60    8.20
   2  23   6   13.90    8.90
   2 -23   6   16.00    8.50
   2  23   7    8.90    8.80
   2 -23   7   13.40    8.10
   2  23   8    1.30    8.50
   2 -23   8    1.30    7.00
   2  23   9    3.90    9.20
   2 -23   9    7.90    7.00
  -2  24  10  -17.50    7.70
  -2  24   9   -1.90    8.20
  -2  24   8   20.40    8.70
  -2 -24   8   12.60    6.00
  -2  24   7   21.40    8.50
  -2 -24   7   14.80    6.90
  -2  24   6    1.40    7.60
  -2 -24   6   -0.90    6.60
  -2  24   5    9.70    7.80
  -2 -24   5   -2.60    6.90
  -2  24   4   47.50    9.00
  -2 -24   4   32.50    8.40
  -2  24   3   71.09   11.00
   2 -24  -3   86.69   11.30
  -2 -24   3   65.89    9.70
  -2 -24   3   71.59   16.70
   2 -24  -3   64.09    9.80
  -2  24   2   -3.70    7.50
   2 -24  -2   -6.20    7.40
  -2 -24   2   16.70    9.90
  -2 -24   2   13.20    8.00
   2 -24  -2    0.40    8.30
   2  24  -1   62.29    9.20
  -2  24   1   47.10    9.70
   2 -24  -1   67.99   10.50
  -2 -24   1   60.29    9.90
   2 -24  -1   56.69   10.30
  -2 -24   1   48.90   10.50
   2  24   0    1.80    7.40
   2  24   0    1.50    7.90
  -2  24   0   -9.40    7.50
  -2 -24   0    5.90    7.30
  -2 -24   0   -9.10    7.60
   2 -24   0    2.60    7.20
   2 -24   0   -6.10    8.20
   2  24   1    1.80    7.40
  -2  24  -1   -1.80    8.10
   2  24   1   12.70    7.70
  -2 -24  -1   -4.70    8.90
   2 -24   1    5.50    8.90
  -2 -24  -1   16.70    8.90
   2 -24   1    6.90    8.40
   2  24   2  -10.50    7.70
   2  24   2    7.60    7.60
   2 -24   2   12.50   10.20
  -2 -24  -2    5.00    7.80
  -2 -24  -2   -7.70    8.10
   2 -24   2   -3.20    7.90
   2  24   3   27.50    8.90
   2 -24   3   23.20    8.70
  -2 -24  -3    9.20    8.00
  -2 -24  -3   39.30    9.90
   2  24   4   -7.30    8.70
  -2 -24  -4    8.50    8.60
   2 -24   4   10.00    7.90
   2  24   5   48.30   10.90
   2 -24   5   28.80    9.10
   2  24   6    3.50    8.10
   2 -24   6   25.70    9.10
   2  24   7    0.50    8.70
   2 -24   7   11.00    8.30
   2  24   8   19.50    9.60
   2 -24   8   -9.80    7.00
   2  24   9   -2.90    9.00
   2 -24   9    7.30    7.10
  -2  25  10    2.70    8.80
  -2  25   9   18.50    9.20
  -2  25   8    9.70    8.80
  -2 -25   8    1.20    6.10
  -2  25   7   -0.30    8.20
  -2 -25   7   -7.50    6.20
  -2  25   6   17.00    9.20
  -2 -25   6    1.20    7.30
  -2  25   5    7.00    8.30
  -2 -25   5   20.10    8.00
  -2  25   4   -6.30    8.00
  -2 -25   4    3.00    7.60
  -2  25   3   10.10    8.00
  -2 -25   3   27.00    8.70
   2 -25  -3   16.80    8.10
  -2  25   2    9.10    8.50
   2 -25  -2    9.50    8.50
   2 -25  -2    5.60    9.00
  -2 -25   2    6.20    7.90
  -2  25   1   16.10    7.60
   2  25  -1   13.00    7.70
   2 -25  -1   17.90    9.00
   2 -25  -1   22.90    9.40
  -2 -25   1    3.80    7.30
  -2 -25   1    9.30    9.20
  -2  25   0    4.20    8.40
   2  25   0    5.30    8.60
   2  25   0   -4.10    7.30
  -2 -25   0   13.00    9.60
  -2 -25   0   -1.70    8.40
   2 -25   0    3.10    8.50
   2 -25   0    0.00    8.70
   2  25   1   53.99    9.70
   2  25   1   32.90    9.70
  -2 -25  -1   28.90    9.00
   2 -25   1   31.90   10.10
   2 -25   1   38.30   11.20
  -2 -25  -1   34.10   10.50
   2  25   2   -0.90    8.20
   2 -25   2    7.30    8.70
  -2 -25  -2    3.30    8.70
  -2 -25  -2    6.80    9.20
   2  25   3    6.00    8.70
   2 -25   3    5.90    8.10
  -2 -25  -3    8.50    9.10
  -2 -25  -3    7.70   10.30
   2  25   4  -14.10    8.70
   2 -25   4   -1.10    8.40
   2  25   5    5.90    9.20
   2 -25   5   25.10    9.30
   2  25   6    7.90    9.30
   2 -25   6    9.10    8.60
   2  25   7   16.70    9.50
   2 -25   7    3.00    8.10
   2  25   8  -11.60    8.70
   2 -25   8   -5.20    7.40
   2  25   9   -2.70    8.90
   2 -25   9   14.30    7.90
  -2  26   9   -9.30    8.20
  -2  26   8   -2.70    8.30
  -2 -26   8    2.10    6.20
  -2  26   7    2.80    8.60
  -2 -26   7    5.80    7.30
  -2  26   6   -9.00    8.30
  -2 -26   6   -8.80    6.90
  -2  26   5    5.10    8.60
  -2 -26   5    2.10    7.50
  -2  26   4  -10.20    8.60
  -2 -26   4    9.60    7.80
  -2  26   3    9.30    8.60
  -2 -26   3   10.00    8.30
   2 -26  -3   18.70    8.70
  -2  26   2    4.60    8.50
   2 -26  -2    6.10    8.60
   2 -26  -2   -7.60    8.40
  -2 -26   2  -10.40    7.50
  -2  26   1   13.30    8.70
   2 -26  -1    4.30    9.20
  -2 -26   1   12.60    8.20
   2 -26  -1   -1.00    8.20
   2  26   0   19.20    8.60
  -2  26   0   45.30   10.10
   2  26   0   13.30    8.30
  -2 -26   0   26.80   10.10
   2 -26   0    7.90    9.30
   2 -26   0   12.70    8.50
   2  26   1   12.10    9.00
   2  26   1   -9.50    7.90
   2 -26   1   11.40    8.20
  -2 -26  -1    2.10    8.80
   2  26   2   23.10    8.70
  -2 -26  -2   22.50    8.90
   2 -26   2   42.00    9.50
   2  26   3   17.70    9.50
  -2 -26  -3   26.10   10.10
   2 -26   3    3.70    8.60
   2  26   4   -9.20    8.90
   2 -26   4    4.70    8.50
   2  26   5   16.50    9.10
   2 -26   5   39.50    9.90
   2  26   6   11.10    8.80
   2 -26   6    4.30    8.80
   2  26   7    2.90    9.10
   2 -26   7    4.60    8.30
   2  26   8    5.90    9.70
   2 -26   8   12.90    8.30
  -2  27   9   21.80    9.80
  -2  27   8  -10.90    8.20
  -2 -27   8   12.20    6.90
  -2  27   7   -3.30    8.30
  -2 -27   7    7.20    7.30
  -2  27   6    0.50    8.80
  -2 -27   6    4.80    7.70
  -2  27   5   -8.70    8.20
  -2 -27   5   -6.80    7.50
  -2  27   4   13.50    8.40
  -2 -27   4    2.90    8.10
  -2  27   3    2.30    9.20
   2 -27  -3   16.10    9.10
  -2 -27   3    1.30    7.80
  -2  27   2    1.00    8.90
  -2 -27   2    0.50    8.70
   2 -27  -2    9.60    9.60
   2 -27  -2   -4.90    8.90
  -2  27   1   12.60    9.20
  -2 -27   1   -7.10    7.40
   2 -27  -1    3.20    9.10
   2 -27  -1    4.10    9.10
   2  27   0   23.40   10.30
   2  27   0    6.90    8.20
  -2  27   0   26.30    8.50
  -2 -27   0   20.10   10.20
   2 -27   0   14.70    9.80
   2  27   1   -3.50    7.70
  -2 -27  -1    1.20    9.60
   2 -27   1   22.20    9.60
   2  27   2   10.50    9.70
   2 -27   2   15.40    9.20
  -2 -27  -2    4.90   10.00
   2  27   3   11.90    9.20
  -2 -27  -3    3.90    8.20
   2 -27   3   15.60    8.90
   2  27   4   -6.50    9.00
   2 -27   4    4.60    8.50
   2  27   5   -0.80    9.00
   2 -27   5  -10.90    8.50
   2  27   6   -2.30    8.90
   2 -27   6   -1.90    8.50
   2  27   7  -14.70    8.80
   2 -27   7    4.50    8.70
   2  27   8  -12.10    8.50
   2 -27   8    1.80    8.00
  -2  28   9   -0.20    8.70
  -2  28   8  -13.20    8.40
  -2 -28   8   -2.20    6.70
  -2  28   7  -16.70    8.30
  -2 -28   7    8.00    8.00
  -2  28   6    7.00    9.00
  -2 -28   6   -4.70    7.60
  -2  28   5    8.80    9.50
  -2 -28   5   -3.40    8.20
  -2  28   4    2.10    9.60
  -2 -28   4   13.30    8.60
  -2  28   3    6.70    9.10
  -2 -28   3    0.70    8.50
   2 -28  -3   15.00    9.70
  -2  28   2   24.50   10.20
   2 -28  -2   18.20    9.90
  -2 -28   2    3.00    9.10
  -2  28   1   26.80   10.10
  -2 -28   1   15.40    8.60
   2 -28  -1   26.50   10.70
  -2  28   0   -5.90    8.40
   2 -28   0    7.50    8.60
  -2 -28   0    9.10    9.20
   2  28   1   14.80    9.50
   2 -28   1    9.40    9.50
  -2 -28  -1   11.50   10.30
   2  28   2   21.90    9.80
   2 -28   2   39.30   10.60
  -2 -28  -2   13.00    9.70
   2  28   3   29.60   10.00
   2 -28   3   15.30    9.70
  -2 -28  -3   16.00   10.20
   2  28   4    6.00    9.20
   2 -28   4   -4.90    8.60
   2  28   5   -3.30    8.40
   2 -28   5   -2.70    8.80
   2  28   6   17.30   10.50
   2 -28   6   -0.90    9.00
   2  28   7    3.90    9.70
   2 -28   7   -7.30    8.30
   2  28   8   -0.80    9.60
   2 -28   8   -9.60    8.10
  -2  29   8  -10.20    8.80
  -2 -29   8    5.80    7.50
  -2  29   7   -2.90    8.80
  -2 -29   7    6.10    8.00
  -2  29   6  -13.40    8.20
  -2 -29   6  -14.10    7.30
  -2  29   5   22.60   10.40
  -2 -29   5    4.00    8.20
  -2  29   4   13.50    8.90
  -2 -29   4    8.40    8.50
  -2  29   3   29.00    9.90
  -2 -29   3   33.80   10.10
   2 -29  -3   31.90   11.50
  -2  29   2   11.30    9.80
  -2 -29   2    2.40    9.00
   2 -29  -2    7.40    9.60
  -2  29   1   -5.90    8.40
   2 -29  -1    0.50    9.60
  -2 -29   1    2.00    9.00
  -2  29   0  -13.10    7.20
   2 -29   0  -18.60    8.60
  -2 -29   0   14.10    9.90
   2  29   1    7.60    9.50
  -2 -29  -1   24.70   10.50
   2 -29   1   16.90    9.30
   2  29   2  -10.10    8.90
  -2 -29  -2  -10.30    8.20
   2 -29   2  -15.20    8.40
   2  29   3    9.70   10.10
  -2 -29  -3   16.20    9.90
   2 -29   3   10.00    9.50
   2  29   4  -11.80    8.60
   2 -29   4   -4.20    8.70
   2  29   5    4.10    9.20
   2 -29   5   14.60    9.40
   2  29   6   -5.10    9.30
   2 -29   6    4.10    9.00
   2  29   7   12.70   10.20
   2 -29   7   13.00    9.30
  -2  30   8    5.80   10.10
  -2 -30   8    4.90    7.70
  -2  30   7   -8.10    9.10
  -2 -30   7   15.30    8.70
  -2  30   6   -0.30    9.00
  -2 -30   6   12.40    8.80
  -2  30   5   14.70    9.70
  -2 -30   5    1.50    8.80
  -2  30   4   34.20   11.30
  -2 -30   4    4.40    9.20
  -2  30   3   -6.20    9.50
  -2 -30   3   -1.60    9.00
  -2  30   2  -10.90    9.20
  -2 -30   2    4.10    9.00
   2 -30  -2   -1.50    9.50
  -2  30   1    5.00    8.50
  -2 -30   1   34.00   10.70
   2 -30  -1    4.00    9.00
  -2 -30   0   -0.50    9.80
   2 -30   0   32.20   10.80
   2  30   1    3.10   10.00
   2 -30   1   -0.30    9.70
  -2 -30  -1   -2.70    9.60
   2  30   2   25.50   10.90
  -2 -30  -2    6.50   10.10
   2 -30   2    2.60    9.60
   2  30   3   -6.30    9.50
   2 -30   3   23.00   10.40
  -2 -30  -3    9.10    9.50
   2  30   4  -18.30    9.60
   2 -30   4   -1.90    9.30
   2  30   5   -6.00    9.60
   2 -30   5   -2.00    9.20
   2  30   6    2.10   10.20
   2 -30   6    5.70    9.70
   2  30   7    6.90   10.60
   2 -30   7    2.10    8.80
  -2  31   7    5.60    9.70
  -2 -31   7    1.40    8.10
  -2  31   6    6.40    9.50
  -2 -31   6    5.30    8.70
  -2  31   5    4.20    9.90
  -2 -31   5   -1.60    8.80
  -2  31   4    2.50    8.80
  -2 -31   4    3.70    9.30
  -2  31   3   -9.10    9.60
  -2 -31   3  -20.10    7.90
  -2  31   2   28.50   11.10
   2 -31  -2   12.20   10.10
  -2 -31   2   23.30   10.70
  -2  31   1    6.20    9.20
  -2 -31   1    1.30    9.90
   2 -31  -1    6.90    9.30
   2 -31   0   -1.10    8.60
  -2 -31   0    2.90   10.30
   2  31   1   -8.40    9.40
   2 -31   1   13.50   10.30
  -2 -31  -1    1.30   10.00
   2  31   2    2.90   10.20
  -2 -31  -2   11.50   10.90
   2 -31   2   10.50   10.10
   2  31   3    7.90    9.40
  -2 -31  -3   -1.00   10.60
   2 -31   3   -2.60    9.30
   2  31   4   16.70   10.20
   2 -31   4   10.50    9.90
   2  31   5   12.70   11.10
   2 -31   5   -3.40    9.20
   2  31   6   -0.70    9.60
   2 -31   6    6.90    9.40
  -2  32   6   -4.40    9.60
  -2 -32   6    0.70    8.90
  -2  32   5  -22.70    9.70
  -2 -32   5    5.50    9.70
  -2  32   4   -5.60   10.30
  -2 -32   4   -8.50    8.90
  -2  32   3   -5.50    8.90
  -2 -32   3   -4.40    9.40
  -2  32   2   -9.50    9.80
   2 -32  -2    0.70    9.50
  -2 -32   2   -7.60    9.20
  -2  32   1   11.90   10.10
  -2 -32   1   -2.80    9.50
   2 -32  -1    5.70   10.50
   2 -32   0   37.20   12.30
  -2 -32   0    6.90   10.80
   2 -32   1   24.70   10.90
  -2 -32  -1   11.20   10.80
   2  32   2   19.10   10.80
  -2 -32  -2   13.80   11.50
   2 -32   2   24.20   10.80
   2  32   3    8.80   11.20
   2 -32   3   -4.90    9.70
  -2 -32  -3    0.80   11.00
   2  32   4   -7.90   10.40
   2 -32   4    2.90    9.80
   2  32   5    6.20   10.20
   2 -32   5    0.20    9.90
   2  32   6   -4.20   10.00
  -2  33   6    7.40   10.30
  -2 -33   6   -8.90    8.50
  -2  33   5   -7.70    9.70
  -2 -33   5   16.50    9.90
  -2  33   4    3.60    9.50
  -2 -33   4    6.80   10.00
  -2  33   3  -23.50    9.00
  -2 -33   3    3.70    9.80
  -2  33   2    7.50   10.40
   2 -33  -2   -6.00    8.90
  -2 -33   2  -14.30    9.30
  -2  33   1    2.60    9.90
  -2 -33   1   12.40   10.20
   2 -33  -1  -12.00   10.10
  -2 -33   0   18.20   11.00
   2 -33   0   -8.70    9.80
   2 -33   1   -0.90   10.60
  -2 -33  -1  -13.50   10.50
   2  33   2   24.10   11.00
   2 -33   2    3.80   10.90
  -2 -33  -2   -3.40   10.90
   2  33   3  -12.70   10.20
  -2 -33  -3    0.30   11.60
   2 -33   3   -8.00    9.50
   2  33   4    6.30   11.00
   2 -33   4   13.40   10.00
   2  33   5    8.50   11.50
   2 -33   5    3.80   10.20
  -2  34   5    5.10   10.80
  -2 -34   5    6.30   10.10
  -2  34   4   -4.00   10.90
  -2 -34   4   -5.20    9.80
  -2  34   3   -6.40   10.40
  -2 -34   3    2.10   10.00
  -2  34   2   10.10   10.70
   2 -34  -2    6.80   10.10
  -2 -34   2   -4.50   10.20
  -2  34   1  -12.10   12.30
   2 -34  -1  -12.30   10.40
  -2 -34   1  -17.70    9.80
  -2 -34   0   -7.00   10.00
   2 -34   0   13.70   10.90
   2 -34   1   16.30   10.90
  -2 -34  -1   -4.80   10.30
   2  34   2  -10.00   10.00
  -2 -34  -2   -2.30   11.10
   2 -34   2    1.10   10.50
   2  34   3   -2.40   10.80
   2 -34   3    2.60   10.70
  -2 -34  -3   21.10   15.00
   2  34   4    4.90   10.90
   2 -34   4    8.80   10.40
  -2  35   4  -16.50    9.80
  -2 -35   4   -7.80    9.60
  -2  35   3   24.40   11.60
  -2 -35   3   -9.10   10.00
  -2  35   2   10.70   10.40
   2 -35  -2  -28.70    9.10
  -2 -35   2  -15.70    9.80
   2 -35  -1   -2.20   10.80
  -2 -35   1    7.00   10.90
  -2 -35   0   -2.20   11.30
   2 -35   0   24.50   11.90
   2 -35   1   33.60   12.40
  -2 -35  -1   18.20   11.60
   2  35   2  -14.90   10.20
   2 -35   2    5.20   11.10
  -2 -35  -2  -10.20   10.90
   2  35   3   20.10   11.70
   2 -35   3  -15.80   10.30
  -2  36   3    3.70   11.00
  -2 -36   3   19.60   11.50
  -2  36   2   -2.30    9.60
  -2 -36   2   -6.00   10.90
   2 -36  -2    7.30   11.20
  -2 -36   1    5.90   11.20
   2 -36  -1   15.30   12.20
  -2 -36   0   11.20   11.40
   2 -36   0   23.30   12.80
   2 -36   1  -13.50   10.70
  -2 -36  -1   10.00   11.30
  -2 -36  -2    0.90   10.40
   2 -36   2   -6.60   10.80
   3   0 -13   -1.60    4.00
  -3   0  13  -11.20   10.40
   3   0 -12    1.70    3.60
  -3   0  12    9.10   10.90
  -3   0  11   -9.20    9.30
   3   0 -11   -0.50    2.80
  -3   0  10   37.30   10.80
  -3   0   9    3.10    8.20
  -3   0   8   13.80    8.20
  -3   0   7   -3.10    4.20
   3   0  -7    3.40    5.70
  -3   0   7   -9.50    6.30
  -3   0   6  117.59    7.20
  -3   0   6  109.09    8.70
  -3   0   6  134.89   10.60
  -3   0   6  106.89    5.90
   3   0  -6  113.79    6.10
   3   0  -5   -0.90    2.60
  -3   0   5    6.20    4.90
  -3   0   5    1.00    3.10
  -3   0   5    2.20    5.30
  -3   0   5   -7.10    2.40
   3   0  -5   -1.90    4.80
   3   0  -4 1491.15   26.30
   3   0  -4 1477.55   30.20
  -3   0   4 1479.95   27.30
  -3   0   4 1507.55   30.50
  -3   0   4 1506.05   26.30
   3   0  -3    2.20    4.40
   3   0  -3    1.20    2.20
  -3   0   3   -4.50    4.00
  -3   0   3   -0.40    2.10
   3   0  -3    0.30    1.10
   3   0  -2  457.15   12.20
   3   0  -2  488.35   10.30
  -3   0   2  480.05   10.20
  -3   0   2  490.55   12.30
  -3   0   1    2.70    3.10
  -3   0   1   -3.70    3.00
   3   0  -1   -5.10    3.00
  -3   0   0 1756.92   30.90
  -3   0   0 1738.83   32.30
  -3   0  -1   -4.80    3.80
   3   0   1   -0.60    4.50
   3   0   2   27.40    4.90
  -3   0  -2   25.10    3.90
   3   0   2   24.30    5.60
   3   0   3   -1.20    4.70
   3   0   3   -2.50    4.00
  -3   0  -3    3.00    3.30
   3   0   4   46.80    5.70
  -3   0  -4   52.39    4.70
   3   0   4   58.29    7.50
  -3   0  -5   -3.10    3.60
   3   0   5   -6.00    5.10
   3   0   5   -0.50    6.00
   3   0   5    2.90    4.40
   3   0   6  157.88   11.40
   3   0   6  164.88    9.20
  -3   0  -6  195.78    9.20
   3   0   6  178.38   13.00
   3   0   7    2.40    7.70
   3   0   7   -5.70    4.90
  -3   0  -7    7.00    4.70
   3   0   7    1.40    6.80
  -3   0  -8   87.09    7.70
   3   0   8   84.39   11.10
   3   0   8   93.39    8.20
   3   0   8   89.49   11.30
   3   0   9   -0.60    5.40
   3   0   9    7.20    8.60
  -3   0  -9  -20.80    4.80
   3   0  10   13.60    5.70
  -3   0 -10   -4.20    6.10
   3   0  10   -7.90    8.90
  -3   0 -11    2.70    6.80
   3   0  11   12.90   10.80
   3   0  12    0.30   11.10
  -3   0 -12    4.60    7.20
  -3   1  13    8.60    9.90
   3   1 -13    7.10    4.30
   3  -1 -13    5.50    4.40
  -3  -1  13   -9.70   11.20
  -3   1  12   17.30   10.00
   3   1 -12    8.30    3.50
  -3  -1  12    5.10    9.60
   3  -1 -12   16.10    4.00
  -3   1  11  -10.20    8.00
  -3  -1  11    9.50   10.30
   3  -1 -11   -1.10    3.10
  -3   1  10    1.20    9.60
  -3  -1  10   22.00    9.80
  -3   1   9   -7.60    7.90
  -3  -1   9   10.80    7.70
  -3   1   8   37.50    9.00
  -3  -1   8   24.10    8.80
  -3   1   7   13.10    4.80
  -3   1   7   14.00    7.30
   3   1  -7   24.60    6.70
   3  -1  -7   14.70    6.10
  -3  -1   7   16.40    7.30
  -3  -1   7   19.20    4.70
  -3  -1   7   25.90    4.60
  -3   1   6  141.79    7.80
   3   1  -6  137.79    6.80
  -3   1   6  132.29   10.40
  -3  -1   6  147.09   10.20
  -3  -1   6  130.19    7.10
  -3  -1   6  142.09    6.90
   3  -1  -6  140.59    6.10
  -3  -1   6  137.39   10.70
   3   1  -5   10.40    3.20
   3   1  -5    3.80    4.90
  -3   1   5    5.20    2.30
  -3   1   5   12.10    5.10
  -3   1   5    9.60    3.60
  -3   1   5   10.20    5.40
   3  -1  -5    5.90    5.10
  -3  -1   5   10.70    3.20
   3  -1  -5    2.80    2.40
  -3  -1   5    7.20    3.00
  -3  -1   5    7.20    5.00
  -3  -1   5    4.10    4.90
  -3   1   4   52.59    3.10
   3   1  -4   47.00    5.90
   3   1  -4   55.99    4.50
  -3   1   4   51.19    5.50
  -3   1   4   49.80    4.30
  -3  -1   4   54.29    4.20
   3  -1  -4   54.29    6.20
  -3  -1   4   59.19    4.50
  -3  -1   4   53.49    6.20
   3  -1  -4   53.29    3.20
   3   1  -3   63.49    4.30
  -3   1   3   59.49    2.90
   3   1  -3   50.99    5.40
  -3   1   3   68.19    5.90
   3  -1  -3   53.59    2.90
   3  -1  -3   54.19    2.70
  -3  -1   3   41.40    4.80
  -3  -1   3   58.99    4.40
   3  -1  -3   51.29    5.10
   3   1  -2   30.40    4.60
   3   1  -2   37.20    3.40
  -3   1   2   30.80    2.70
  -3   1   2   27.20    4.30
  -3  -1   2   35.60    4.70
  -3  -1   2   37.90    3.40
   3  -1  -2   22.90    4.20
  -3   1   1  141.29    6.20
  -3  -1   1  148.39    6.50
   3  -1  -1  133.49    6.20
  -3  -1   1  139.79    6.20
  -3  -1   1  142.99    6.50
  -3   1   0   21.40    2.80
  -3   1   0   19.40    4.20
  -3   1   0   24.60    4.10
   3   1   0   26.30    4.40
  -3  -1   0   26.60    4.20
  -3   1  -1   35.20    5.30
   3   1   1   45.90    5.80
  -3  -1  -1   45.10    5.60
  -3   1  -2 1016.30   20.10
   3   1   2  983.70   21.00
   3   1   2 1004.90   22.60
   3  -1   2 1056.79   22.80
  -3  -1  -2 1001.90   20.10
   3  -1   2  977.10   21.00
  -3   1  -3   31.60    4.10
   3   1   3   25.40    5.60
   3   1   3   26.10    5.00
  -3  -1  -3   21.60    3.80
   3  -1   3   18.40    6.10
   3  -1   3   21.00    4.70
   3   1   4   -3.30    5.00
   3   1   4    3.60    5.90
  -3   1  -4   -3.80    3.20
   3   1   4    6.10    4.30
  -3  -1  -4    3.90    3.50
   3  -1   4   -5.20    4.80
   3  -1   4    4.90    4.20
  -3   1  -5   72.19    5.70
   3   1   5   66.59    6.60
   3   1   5   70.99    7.70
  -3   1  -5   68.69    5.60
   3   1   5   73.59    8.50
   3  -1   5   69.49    6.50
  -3  -1  -5   79.79    5.80
   3  -1   5   94.59    9.10
   3   1   6   31.70    8.10
   3   1   6   38.40    6.10
   3   1   6   38.00    7.40
  -3   1  -6   41.80    5.40
  -3  -1  -6   39.70    5.30
   3  -1   6   38.20    6.10
   3  -1   6   32.70    7.20
   3  -1   6   54.49    8.60
  -3  -1  -6   33.40    6.20
   3   1   7   39.60    8.90
   3   1   7   39.10    8.60
  -3   1  -7   39.50    5.80
   3   1   7   34.20    6.40
  -3  -1  -7   29.60    5.50
   3  -1   7   25.40    8.10
   3  -1   7   27.00    5.90
   3  -1   7   39.30    8.90
  -3   1  -8   26.00    6.00
   3   1   8   35.80    9.70
   3   1   8   49.00    6.90
   3   1   8   17.30    8.20
   3  -1   8   29.60    9.30
   3  -1   8   38.50    9.50
  -3  -1  -8   30.60    6.00
   3  -1   8   32.90    6.50
   3   1   9    4.00    8.60
  -3   1  -9    5.40    5.60
   3   1   9   -0.40    5.80
   3  -1   9    6.60    5.90
   3  -1   9   12.40    9.40
  -3  -1  -9    8.50    5.90
  -3   1 -10    8.80    6.00
   3   1  10    3.30    9.00
   3   1  10  -10.30    5.30
   3  -1  10  -12.80    8.50
   3  -1  10    3.20    5.30
  -3  -1 -10    0.70    6.20
   3   1  11    6.90   10.40
  -3   1 -11   -2.60    6.50
   3  -1  11   -0.60   10.00
  -3  -1 -11   15.10    7.30
  -3   1 -12   11.40    7.40
   3   1  12    7.30   17.30
   3  -1  12   -3.40   10.30
  -3  -1 -12   -2.50    7.10
   3   2 -13    7.40    4.10
  -3   2  13   -9.90   11.00
   3  -2 -13    4.60    4.70
  -3  -2  13   15.40   12.40
  -3   2  12   11.30   10.80
   3   2 -12   -0.10    3.10
  -3  -2  12   15.60   11.30
   3  -2 -12   -5.90    3.70
  -3   2  11  -23.90    7.60
  -3  -2  11    3.50    9.80
   3  -2 -11    4.30    3.30
  -3   2  10    1.00    8.90
   3  -2 -10    2.80    2.70
  -3  -2  10    2.40    8.80
  -3   2   9    7.50    7.70
  -3  -2   9   -1.60    8.50
  -3   2   8   36.00    8.20
  -3  -2   8   29.20    8.80
  -3   2   7  458.35   14.00
  -3   2   7  457.35   17.30
  -3  -2   7  439.36   13.00
  -3  -2   7  446.96   13.10
   3  -2  -7  453.25   17.00
  -3  -2   7  466.65   16.50
  -3  -2   7  451.25   16.90
   3   2  -6   26.10    4.40
  -3   2   6   10.90    4.40
  -3   2   6   19.30    6.50
  -3  -2   6   15.00    3.60
  -3  -2   6   22.00    4.20
  -3  -2   6   26.80    6.30
  -3  -2   6   15.90    5.80
   3   2  -5   92.19    7.60
   3   2  -5   73.29    5.70
  -3   2   5   78.89    5.70
  -3   2   5   77.39    7.50
  -3  -2   5   84.09    5.70
   3  -2  -5   72.59    7.10
   3  -2  -5   76.59    3.80
  -3  -2   5   71.19    6.80
  -3  -2   5   80.69    4.90
  -3  -2   5   63.39    6.60
  -3   2   4   14.50    5.00
  -3   2   4   20.20    4.80
   3   2  -4   22.60    3.50
  -3   2   4   21.90    3.90
   3   2  -4   18.20    5.10
   3  -2  -4   12.00    4.50
  -3  -2   4    7.30    4.40
  -3  -2   4   15.70    2.60
  -3  -2   4   20.50    3.30
   3   2  -3   10.40    4.50
  -3   2   3    8.10    4.30
   3   2  -3    9.40    3.10
  -3  -2   3   11.00    3.10
   3  -2  -3   11.90    2.00
  -3  -2   3    8.30    4.30
   3  -2  -3   21.60    4.80
  -3   2   2  266.87    6.40
  -3   2   2  280.17    9.00
  -3   2   2  267.37    6.40
   3   2  -2  269.67    9.40
   3   2  -2  273.87    8.00
   3  -2  -2  269.57    9.10
  -3  -2   2  261.27    9.30
  -3  -2   2  261.97    6.50
  -3  -2   2  247.48    7.70
  -3   2   1   38.50    3.60
   3   2  -1   34.70    4.10
  -3   2   1   38.40    3.70
  -3  -2   1   40.50    3.80
  -3  -2   1   41.40    4.30
   3  -2  -1   41.90    3.90
  -3  -2   1   38.50    4.30
   3   2   0  440.46   11.80
  -3   2   0  441.06    9.30
  -3   2   0  456.45   11.50
  -3  -2   0  443.86   11.50
  -3  -2   0  433.86   11.50
   3   2   1  220.78    9.50
  -3  -2  -1  216.88    8.90
   3   2   2   39.20    5.40
   3   2   2   30.80    5.70
   3  -2   2   29.10    4.50
  -3  -2  -2   27.10    3.80
   3   2   3  107.59    7.50
   3   2   3  100.69    8.10
  -3  -2  -3   90.99    6.10
   3  -2   3   89.59    7.30
   3  -2   3  108.79    7.30
   3   2   4  219.28   11.50
  -3   2  -4  219.08    7.50
   3   2   4  207.38    9.30
   3   2   4  184.28   10.60
  -3  -2  -4  210.68    8.30
   3  -2   4  217.98    9.10
   3  -2   4  210.38   11.50
   3   2   5   52.59    6.40
  -3   2  -5   58.69    5.20
   3   2   5   35.80    6.90
   3   2   5   54.59    6.90
  -3  -2  -5   45.00    4.90
   3  -2   5   56.69    7.90
   3  -2   5   59.29    6.20
   3   2   6   15.00    6.40
  -3   2  -6   18.50    4.50
   3   2   6   12.50    5.40
   3   2   6   12.10    7.20
   3  -2   6   15.80    7.60
   3  -2   6   15.90    5.40
  -3  -2  -6   10.80    4.60
   3   2   7   33.50    8.30
   3   2   7   28.00    8.90
  -3   2  -7   31.30    5.30
   3   2   7   25.30    6.00
  -3  -2  -7   32.60    5.90
   3  -2   7   29.10    8.20
   3  -2   7   12.60    5.70
   3  -2   7   30.20    8.20
   3   2   8   -0.10    8.00
   3   2   8    7.40    6.00
   3   2   8    1.10    8.50
  -3   2  -8    8.40    5.20
   3  -2   8   10.60    8.40
  -3  -2  -8    9.10    5.40
   3  -2   8   14.30    8.40
   3  -2   8   13.70    5.80
   3   2   9    3.30    5.80
   3   2   9   14.80    9.00
  -3   2  -9    8.40    5.70
  -3  -2  -9   -2.10    5.60
   3  -2   9   16.90    9.40
   3  -2   9    5.40    5.30
  -3   2 -10    5.50    5.90
   3   2  10   -2.80    5.60
   3   2  10   -6.00    9.00
   3  -2  10    1.10    9.60
  -3  -2 -10   -3.20    6.20
   3  -2  10   -0.20    5.80
  -3   2 -11   15.20    6.80
   3   2  11   24.80   10.90
   3  -2  11   10.00   10.00
  -3  -2 -11   20.20    7.10
  -3   2 -12   11.80    7.40
  -3  -2 -12   -3.30    7.20
   3  -2  12   13.40   11.30
   3   3 -13    4.30    3.90
  -3   3  13    2.30   11.10
   3  -3 -13    2.90    4.70
  -3  -3  13    9.00   11.70
  -3   3  12   19.20   11.00
  -3  -3  12    6.50   10.60
   3  -3 -12    4.50    4.20
  -3   3  11    2.40    8.60
  -3  -3  11   13.50   10.20
   3  -3 -11    6.80    3.60
  -3   3  10   -6.30    7.80
  -3  -3  10   -0.10    9.00
   3  -3 -10   -0.90    2.90
  -3   3   9    5.70    7.60
  -3  -3   9   -1.50    8.60
   3  -3  -9    8.70    2.60
  -3   3   8  134.59   10.50
  -3   3   8  136.59   12.10
  -3  -3   8  137.49   12.50
   3  -3  -8  128.59    4.00
  -3   3   7   23.10    7.70
  -3   3   7   23.50    5.70
   3   3  -7   36.30    7.60
   3  -3  -7   24.60    6.90
  -3  -3   7   13.40    6.10
  -3  -3   7   26.00    5.00
  -3  -3   7   17.90    7.50
  -3   3   6  170.78    4.60
  -3   3   6  164.78   10.20
  -3   3   6  160.98    9.00
  -3  -3   6  168.48   11.10
  -3  -3   6  169.08   10.70
  -3  -3   6  163.98    8.10
  -3  -3   6  157.98    6.60
   3   3  -5   39.50    5.80
   3   3  -5   40.60    4.50
  -3   3   5   29.50    3.00
  -3   3   5   36.40    4.90
  -3   3   5   36.90    6.30
  -3  -3   5   37.40    3.20
  -3  -3   5   34.50    4.30
   3  -3  -5   31.20    6.10
  -3  -3   5   38.30    6.00
  -3   3   4  250.77   10.50
   3   3  -4  250.77    8.40
   3   3  -4  259.07   10.70
  -3   3   4  254.47    9.10
   3  -3  -4  262.97    5.80
  -3  -3   4  258.27    8.30
   3  -3  -4  256.67    5.80
  -3  -3   4  251.27   10.00
  -3  -3   4  263.47    5.90
   3  -3  -4  270.57   10.30
   3   3  -3   27.40    5.10
   3   3  -3   31.60    3.90
  -3  -3   3   32.00    3.80
   3  -3  -3   32.80    5.00
  -3  -3   3   33.60    5.20
  -3   3   2    4.80    3.70
   3   3  -2    8.90    4.30
  -3   3   2    5.60    2.10
   3   3  -2   10.30    3.40
  -3  -3   2   -2.20    3.60
  -3  -3   2    4.30    2.10
  -3  -3   2    7.90    3.50
   3  -3  -2    5.20    3.80
  -3   3   1   17.40    3.30
   3   3  -1   13.70    3.30
   3   3  -1   23.60    4.10
  -3   3   1   13.60    3.20
   3  -3  -1   14.10    3.30
  -3  -3   1   20.80    3.20
  -3  -3   1   15.30    3.80
  -3   3   0  659.63   12.60
   3   3   0  666.53   15.20
   3   3   0  676.73   14.90
  -3   3   0  679.13   15.00
   3  -3   0  655.03   12.60
  -3  -3   0  658.73   15.50
   3  -3   0  650.43   15.10
  -3  -3   0  654.63   14.80
   3   3   1   48.80    5.50
  -3   3  -1   53.49    6.60
  -3  -3  -1   43.30    5.20
   3  -3   1   43.20    5.10
  -3  -3  -1   48.00    5.40
   3   3   2   50.69    6.30
   3   3   2   47.60    5.20
  -3  -3  -2   48.60    4.40
   3  -3   2   54.49    5.40
   3  -3   2   57.69    6.40
  -3   3  -3   63.89    4.10
   3   3   3   60.89    7.10
   3   3   3   53.59    5.90
  -3  -3  -3   61.29    5.10
   3  -3   3   68.59    6.00
   3  -3   3   64.29    6.70
   3  -3   3   45.90    6.10
   3   3   4    4.20    4.90
   3   3   4    4.90    4.60
   3   3   4    6.30    5.80
  -3   3  -4   -1.30    2.80
  -3  -3  -4    0.70    3.60
   3  -3   4    0.60    4.00
   3  -3   4    0.10    5.40
   3   3   5    9.50    5.60
   3   3   5    3.90    6.30
   3   3   5   21.10    5.30
  -3   3  -5    6.90    3.60
   3  -3   5    3.50    6.00
   3  -3   5    8.50    4.70
  -3  -3  -5   11.30    4.10
   3   3   6   11.40    7.20
   3   3   6   13.30    6.50
   3   3   6   -0.90    5.10
  -3  -3  -6   11.40    4.60
   3  -3   6    4.30    5.00
   3  -3   6   10.30    7.30
   3   3   7  121.09   11.90
   3   3   7  126.79    9.40
  -3   3  -7  122.79    8.70
   3   3   7  135.09   11.00
   3  -3   7  140.99   12.20
  -3  -3  -7  137.49    9.30
   3  -3   7  118.49    8.90
  -3   3  -8    4.70    5.00
   3   3   8   -5.40    7.70
   3   3   8    2.00    7.80
   3   3   8    0.80    5.50
   3  -3   8    2.60    5.10
  -3  -3  -8    7.30    5.50
   3  -3   8    1.30    7.70
   3  -3   8    0.40    8.00
   3   3   9   36.00    7.00
  -3   3  -9   41.20    6.70
   3   3   9   40.50    9.80
   3  -3   9   34.10    9.70
  -3  -3  -9   31.20    7.00
   3  -3   9   33.40    6.20
   3   3  10    3.70    9.10
  -3   3 -10    1.90    5.90
   3   3  10    2.70    5.70
  -3  -3 -10    2.60    6.20
   3  -3  10   -9.00    9.60
   3   3  11    7.60   10.50
  -3   3 -11   15.90    6.70
   3  -3  11   24.00   10.70
  -3  -3 -11   13.70    7.10
  -3   3 -12    0.90    7.00
  -3  -3 -12   10.30    7.50
   3  -3  12   18.20   12.00
  -3   4  13   -0.10   11.10
   3   4 -13   -3.50    3.60
  -3  -4  13    1.00   11.40
   3  -4 -13   -2.40    4.90
  -3   4  12   -2.00   10.30
  -3  -4  12    9.70    9.60
   3  -4 -12    6.10    4.50
  -3   4  11   14.40    9.70
  -3  -4  11    9.80   10.20
   3  -4 -11   -5.40    3.60
  -3   4  10  -11.80    9.00
  -3  -4  10  -19.40    8.60
   3  -4 -10    1.90    3.30
  -3   4   9   42.80   10.00
  -3  -4   9   49.40    9.70
   3  -4  -9   46.30    3.80
  -3   4   8    6.40    8.20
  -3   4   8   13.80    6.30
  -3  -4   8   14.10    8.30
   3  -4  -8   15.40    2.60
  -3   4   7   47.50    8.60
  -3   4   7   53.19    3.20
   3   4  -7   49.30    7.70
  -3   4   7   47.70    6.70
   3  -4  -7   45.60    2.80
   3  -4  -7   49.99    8.20
  -3  -4   7   60.29    7.90
  -3  -4   7   46.60    7.70
  -3  -4   7   59.09    6.10
  -3   4   6  469.75   14.00
  -3   4   6  465.25   15.50
  -3   4   6  460.95   10.00
  -3  -4   6  454.35   13.10
   3  -4  -6  452.55    9.10
  -3  -4   6  452.65   10.80
  -3  -4   6  457.45   15.50
   3  -4  -6  476.05   10.00
  -3   4   5   19.50    3.20
   3   4  -5   20.90    5.40
  -3   4   5   27.30    5.00
  -3   4   5   19.40    5.80
  -3  -4   5   27.20    5.50
  -3  -4   5   31.50    4.40
   3  -4  -5   26.30    2.30
  -3  -4   5   32.30    2.60
   3   4  -4   18.90    3.90
  -3   4   4   15.70    3.20
   3   4  -4   21.70    5.30
  -3   4   4   20.60    5.40
   3  -4  -4   15.30    5.10
  -3  -4   4   24.50    4.10
  -3  -4   4   23.00    5.10
   3  -4  -4   18.00    2.40
   3   4  -3   19.70    4.00
   3   4  -3   31.90    5.40
  -3  -4   3   34.40    5.20
  -3  -4   3   28.10    4.00
   3  -4  -3   29.40    5.10
   3   4  -2 1136.29   22.30
  -3   4   2 1126.99   20.20
  -3  -4   2 1117.69   22.40
   3  -4  -2 1137.89   20.30
   3  -4  -2 1125.89   22.50
  -3  -4   2 1116.49   19.80
  -3  -4   2 1144.99   23.30
  -3   4   1  346.17    9.10
   3   4  -1  353.26   10.20
   3   4  -1  360.76    9.00
  -3  -4   1  358.46    8.80
  -3  -4   1  340.97   10.40
   3  -4  -1  348.57    9.20
   3  -4  -1  349.77    9.20
   3   4   0  200.28    9.00
   3   4   0  196.48    7.90
  -3   4   0  190.98    8.10
   3  -4   0  190.78    8.20
   3  -4   0  198.28    5.40
  -3  -4   0  189.98    7.60
  -3  -4   0  198.88    8.30
   3   4   1    9.30    4.50
   3  -4   1    3.10    4.00
  -3  -4  -1    5.30    4.30
  -3  -4  -1   12.20    4.80
   3   4   2  424.06   12.90
   3   4   2  422.16   12.50
  -3  -4  -2  445.96   13.50
   3  -4   2  399.26   13.40
  -3  -4  -2  415.46   11.10
   3  -4   2  425.96   12.30
   3   4   3   43.10    6.60
  -3   4  -3   50.39    3.60
   3   4   3   49.80    5.70
  -3  -4  -3   42.90    4.50
   3  -4   3   44.70    6.90
   3  -4   3   50.09    6.10
  -3  -4  -3   63.29    6.90
   3  -4   3   52.39    5.50
   3   4   4    7.90    4.90
   3   4   4   19.20    6.60
  -3   4  -4   15.60    3.10
   3   4   4   18.90    5.00
  -3  -4  -4   13.70    3.90
   3  -4   4   23.80    6.60
   3  -4   4   23.70    4.80
  -3   4  -5   70.29    5.70
   3   4   5   84.19    7.80
   3   4   5   78.59    7.10
   3   4   5   68.69    8.60
   3  -4   5   61.39    6.50
  -3  -4  -5   79.69    6.50
   3   4   6   11.30    6.50
   3   4   6   20.80    5.90
   3   4   6   34.10    8.00
   3  -4   6   18.90    5.60
  -3  -4  -6   27.90    5.40
   3   4   7    9.60    5.80
   3   4   7    4.30    7.60
   3   4   7   -3.60    6.70
  -3  -4  -7   -1.80    5.00
   3  -4   7    1.20    5.20
   3  -4   7    3.80    5.00
   3   4   8   23.80    8.50
   3   4   8   39.40    6.80
  -3   4  -8   27.20    5.90
   3   4   8   38.90    9.40
   3  -4   8   28.40    6.00
   3  -4   8   21.70    8.80
  -3  -4  -8   30.10    6.50
   3   4   9    5.80    6.20
   3   4   9    7.90    8.40
  -3   4  -9   11.20    5.70
  -3  -4  -9   -1.20    5.70
   3  -4   9   15.70    9.50
   3  -4   9   -3.20    5.20
   3   4  10    8.10    9.10
   3   4  10    3.30    6.00
  -3   4 -10    2.60    6.00
   3  -4  10   -1.90    9.90
  -3  -4 -10    1.30    6.30
   3   4  11   17.80   10.50
  -3   4 -11    8.20    6.40
   3  -4  11   12.00   11.10
  -3  -4 -11   10.60    7.00
  -3   4 -12    1.50    7.00
   3  -4  12   -8.60   10.70
  -3  -4 -12   -4.60    7.00
  -3   5  13    1.10   11.40
   3  -5 -13   -5.60    5.30
  -3  -5  13   -9.70   11.00
  -3   5  12   -1.00   10.70
  -3  -5  12    7.70   10.90
   3  -5 -12    4.60    4.80
  -3   5  11    5.40    9.80
   3  -5 -11   11.60    4.50
  -3  -5  11   -0.50   10.30
  -3   5  10   16.40    9.60
   3  -5 -10    1.60    3.70
  -3  -5  10  -10.70    9.10
  -3   5   9   17.60    9.30
  -3  -5   9    3.20    8.40
   3  -5  -9   12.50    3.40
  -3   5   8   26.50    6.90
  -3   5   8   17.70    7.50
   3  -5  -8   22.80    3.40
  -3  -5   8   13.40    7.60
  -3   5   7   61.39    9.20
  -3   5   7   67.09    4.40
  -3   5   7   59.29    7.20
  -3  -5   7   69.39    8.00
   3  -5  -7   68.09    4.50
  -3  -5   7   63.29    6.80
   3  -5  -7   63.59    8.60
  -3   5   6   43.20    5.90
  -3   5   6   25.00    7.00
  -3   5   6   32.10    3.50
   3  -5  -6   43.10    6.90
   3  -5  -6   35.90    3.10
  -3  -5   6   38.50    6.30
  -3  -5   6   32.20    5.40
   3   5  -5  621.54   19.80
  -3   5   5  595.04   13.30
  -3   5   5  599.04   17.50
  -3   5   5  614.54   16.10
   3  -5  -5  591.74   12.20
  -3  -5   5  606.34   17.10
  -3  -5   5  591.74   15.30
  -3   5   4   39.70    6.20
  -3   5   4   36.50    4.10
   3   5  -4   34.00    5.50
   3  -5  -4   37.30    3.10
   3  -5  -4   31.90    5.70
  -3  -5   4   35.70    5.50
  -3  -5   4   34.90    4.60
   3   5  -3  647.24   16.60
   3   5  -3  648.94   15.20
  -3   5   3  624.64   14.20
  -3  -5   3  648.04   15.20
  -3  -5   3  659.23   16.40
   3  -5  -3  648.64   16.20
   3   5  -2  107.69    4.10
   3   5  -2  100.59    6.50
  -3   5   2  110.19    4.60
   3  -5  -2  102.39    4.90
   3  -5  -2   97.19    7.20
  -3  -5   2  105.39    7.50
  -3  -5   2  106.89    6.90
  -3  -5   2   97.89    4.00
  -3   5   1   19.30    3.60
   3   5  -1   17.30    4.30
   3   5  -1   22.30    3.50
  -3  -5   1   22.00    3.40
   3  -5  -1   21.30    3.50
  -3  -5   1   26.20    4.50
   3  -5  -1   19.90    3.60
   3   5   0 1168.78   23.20
  -3   5   0 1153.78   23.10
  -3  -5   0 1155.28   23.00
   3  -5   0 1166.68   20.60
   3  -5   0 1154.98   23.60
  -3  -5   0 1150.18   24.10
   3   5   1   51.49    5.60
   3  -5   1   60.59    6.00
  -3  -5  -1   50.69    5.50
   3   5   2   46.60    6.10
   3   5   2   38.70    6.00
   3  -5   2   49.10    5.50
  -3  -5  -2   45.50    6.00
   3  -5   2   40.10    6.00
   3  -5   2   36.20    5.10
  -3  -5  -2   50.59    4.50
   3   5   3  130.69    9.00
   3   5   3  136.19    8.40
  -3   5  -3  143.19    4.50
  -3  -5  -3  156.28    7.20
  -3  -5  -3  146.39    9.50
   3  -5   3  157.48    8.20
   3  -5   3  148.19   10.30
   3  -5   3  150.58    8.90
   3   5   4   20.90    5.00
   3   5   4    9.90    6.00
  -3   5  -4   19.80    3.00
   3   5   4   15.30    5.00
  -3  -5  -4   22.50    6.30
   3  -5   4   17.50    6.00
  -3  -5  -4   22.60    4.20
   3  -5   4   22.80    5.10
   3   5   5    8.90    6.60
   3   5   5    1.70    4.90
   3   5   5    2.90    5.50
  -3  -5  -5    1.90    4.00
   3  -5   5   12.60    4.90
   3  -5   5   13.00    7.10
   3  -5   5    7.00    4.80
  -3  -5  -5    5.90    5.80
   3   5   6   33.80    6.70
   3   5   6   39.50    7.60
   3   5   6   50.79    8.90
  -3  -5  -6   59.59    8.90
  -3  -5  -6   52.49    6.00
   3  -5   6   62.19    6.50
   3   5   7   35.10    7.90
   3   5   7   35.90    8.80
   3   5   7   27.40    6.60
   3  -5   7   29.00    5.90
  -3  -5  -7   45.90    8.60
  -3  -5  -7   38.50    6.10
   3   5   8    6.20    7.80
   3   5   8    3.90    5.70
   3  -5   8    4.00    5.30
  -3  -5  -8   -3.60    5.10
  -3  -5  -8   -2.40    7.60
   3   5   9    8.90    6.00
   3   5   9   -1.70    7.90
  -3   5  -9   10.00    5.70
   3  -5   9   13.10    9.10
   3  -5   9    0.00    5.10
  -3  -5  -9    9.20    6.20
   3   5  10    9.40    9.00
  -3   5 -10    5.40    5.80
   3   5  10    8.00    6.20
  -3  -5 -10    6.60    6.20
   3  -5  10  -13.90    9.60
  -3   5 -11    1.80    6.40
   3   5  11   10.60   15.30
   3  -5  11    8.60   11.10
  -3  -5 -11    7.40    7.10
  -3   5 -12    8.30    7.20
   3  -5  12  -11.90   11.00
  -3  -5 -12  -14.50    6.90
  -3   6  13   -6.30   10.10
  -3  -6  13    3.00   11.80
   3  -6 -13    8.50    5.70
  -3   6  12    5.30   10.60
  -3  -6  12  -11.40   10.10
   3  -6 -12  -12.70    4.60
  -3   6  11    7.80    9.60
   3  -6 -11   -0.50    4.40
  -3  -6  11   13.00    9.80
  -3   6  10   -4.90    8.10
   3  -6 -10    1.90    4.00
  -3  -6  10  -13.10    7.80
  -3   6   9   24.30    8.70
   3  -6  -9   28.10    4.20
  -3  -6   9   22.90    9.10
  -3   6   8   65.89    4.60
  -3   6   8   47.90    9.00
  -3   6   8   69.79    8.50
   3  -6  -8   66.39    4.70
  -3   6   7  130.59   11.40
  -3   6   7  139.89    6.20
  -3   6   7  167.88   11.10
  -3  -6   7  174.48   11.40
   3  -6  -7  147.19    6.40
   3  -6  -7  159.88   11.80
  -3  -6   7  160.38   10.00
  -3   6   6    2.50    6.40
  -3   6   6    1.60    5.10
  -3   6   6   -2.50    3.00
  -3  -6   6    0.40    5.10
  -3  -6   6    7.00    5.00
   3  -6  -6    5.00    5.50
   3  -6  -6    1.40    2.70
  -3   6   5    0.70    4.60
  -3   6   5    6.20    5.90
  -3   6   5    3.30    3.40
  -3  -6   5    0.30    4.10
  -3  -6   5    8.90    4.90
   3  -6  -5    6.80    2.80
  -3   6   4  572.14   13.50
  -3   6   4  590.24   16.10
   3   6  -4  603.54   16.60
   3  -6  -4  573.54   16.30
  -3  -6   4  597.44   16.20
   3  -6  -4  586.74   12.60
  -3  -6   4  577.74   15.00
  -3   6   3   52.69    4.80
  -3   6   3   41.10    3.00
  -3  -6   3   48.30    5.00
   3  -6  -3   43.50    5.40
   3  -6  -3   44.30    3.20
  -3  -6   3   41.20    5.60
  -3   6   2    4.20    2.60
   3   6  -2    1.20    2.20
  -3  -6   2   -1.00    2.10
   3  -6  -2   -1.80    3.60
   3  -6  -2   -1.50    2.70
  -3  -6   2    1.90    3.90
  -3  -6   2   -0.30    4.10
   3   6  -1   17.30    3.50
  -3   6   1   13.40    3.50
  -3  -6   1   13.30    3.30
   3  -6  -1   14.40    3.70
   3  -6  -1    6.90    3.30
  -3  -6   1    9.30    4.50
   3   6   0  130.09    7.50
  -3   6   0  123.99    7.20
  -3  -6   0  125.29    7.50
   3  -6   0  128.79    4.90
   3  -6   0  136.09    7.70
  -3  -6   0  127.69    6.90
   3   6   1   51.79    5.70
   3  -6   1   58.29    6.30
   3  -6   1   62.69    7.30
  -3  -6  -1   52.39    6.30
   3   6   2  209.38    9.60
   3   6   2  208.88   10.40
   3  -6   2  210.08    9.30
   3  -6   2  201.68   10.60
  -3  -6  -2  218.48    8.20
  -3  -6  -2  240.98   10.70
   3   6   3  259.87   10.20
   3   6   3  259.27   11.40
  -3  -6  -3  278.97   11.90
   3  -6   3  272.67   10.20
   3  -6   3  278.27   11.00
   3  -6   3  272.47   11.70
  -3  -6  -3  278.77    9.50
   3   6   4   34.30    6.80
   3   6   4   43.20    5.70
   3   6   4   29.50    5.60
  -3   6  -4   36.40    3.30
   3  -6   4   46.20    5.60
  -3  -6  -4   31.50    4.60
  -3  -6  -4   35.60    6.70
   3  -6   4   31.80    7.20
   3   6   5    2.30    5.30
   3   6   5    5.00    5.10
   3   6   5    5.30    5.80
  -3  -6  -5    2.90    5.90
   3  -6   5    0.70    4.70
  -3  -6  -5    2.60    4.10
   3  -6   5    2.00    7.30
   3   6   6   16.20    6.50
   3   6   6    9.10    5.80
   3   6   6   19.10    7.50
  -3  -6  -6   19.10    7.00
   3  -6   6   16.80    8.60
   3  -6   6    6.80    5.10
  -3  -6  -6   12.20    4.80
   3   6   7   90.99    9.80
   3   6   7   85.59   10.70
   3   6   7  101.19    8.90
  -3  -6  -7  104.49   10.70
  -3  -6  -7   97.59    7.80
   3  -6   7  101.19    8.30
   3   6   8   13.60    8.00
   3   6   8    6.80    6.30
  -3  -6  -8   12.20    5.80
  -3  -6  -8   17.30    8.50
   3  -6   8   14.40    5.80
   3   6   9  -10.50    8.00
   3   6   9    9.40    6.10
   3  -6   9   -7.30    8.20
   3  -6   9   -3.10    4.90
  -3  -6  -9    2.70    5.90
   3   6  10    4.90    6.40
  -3   6 -10    0.00    5.80
   3   6  10   11.80    9.50
  -3  -6 -10    8.20    6.60
   3  -6  10   -8.70    9.50
  -3   6 -11   -4.80    6.10
  -3  -6 -11   -7.70    6.80
   3  -6  11    6.60   11.30
  -3   6 -12   10.20    7.10
  -3  -6 -12    0.40    7.60
   3  -6  12    0.50   11.50
  -3   7  13   15.00   13.00
  -3  -7  13   -6.00   10.80
   3  -7 -13    4.90    5.90
  -3   7  12    3.40   10.70
  -3  -7  12   -8.60   10.50
   3  -7 -12  -10.10    4.90
  -3   7  11   -6.30    9.10
  -3  -7  11   -2.00   10.40
   3  -7 -11   10.30    5.10
  -3   7  10    5.20    9.90
   3  -7 -10    5.20    4.30
  -3  -7  10   -5.60    9.30
  -3   7   9   13.50    8.10
   3  -7  -9    4.50    4.00
  -3  -7   9   14.10    7.90
  -3   7   8   98.59   11.20
  -3   7   8   86.29    5.80
  -3   7   8   99.19    9.60
   3  -7  -8  103.79    6.50
  -3   7   7    8.50    6.60
  -3   7   7    9.10    6.20
  -3   7   7    1.20    3.60
  -3  -7   7   16.60    6.30
   3  -7  -7   11.80    3.50
  -3  -7   7   12.00    5.50
   3  -7  -7    5.00    6.40
  -3   7   6   73.39    5.30
  -3   7   6   71.09    7.50
  -3   7   6   69.89    8.90
  -3  -7   6   62.19    6.90
  -3  -7   6   84.89    8.00
   3  -7  -6   67.89    4.60
   3  -7  -6   73.19    7.70
  -3   7   5  130.99   10.30
  -3   7   5  148.79    9.80
  -3   7   5  142.99    6.80
  -3  -7   5  140.39    4.10
  -3  -7   5  135.49    8.80
  -3  -7   5  133.29    9.40
   3  -7  -5  145.19    4.10
   3  -7  -5  140.79    6.10
   3  -7  -5  139.19    4.20
  -3   7   4  332.17   10.00
  -3   7   4  314.67   12.40
  -3  -7   4  335.27   11.50
  -3  -7   4  324.27    8.20
   3  -7  -4  329.77   12.30
   3  -7  -4  332.17    9.00
  -3  -7   4  342.97   12.20
   3  -7  -4  327.87    7.00
  -3   7   3    9.80    3.90
  -3   7   3    7.80    2.30
  -3  -7   3   10.80    4.80
   3  -7  -3   13.90    2.60
  -3  -7   3   11.20    4.50
  -3  -7   3    4.80    2.80
  -3   7   2  464.35   10.60
  -3   7   2  457.95   12.10
   3   7  -2  446.96    9.80
  -3  -7   2  450.95   11.50
   3  -7  -2  460.25   10.80
  -3  -7   2  451.25   13.00
   3   7  -1   34.00    4.00
  -3   7   1   35.60    4.20
   3  -7  -1   34.30    4.40
  -3  -7   1   41.10    5.50
  -3  -7   1   39.60    4.00
   3   7   0    1.20    4.10
  -3  -7   0   -2.80    3.90
  -3  -7   0   -3.40    4.60
   3  -7   0   -1.70    4.10
   3   7   1  108.19    7.90
  -3  -7  -1  111.39    8.00
   3  -7   1   96.69    7.20
   3  -7   1  120.39    7.90
   3   7   2  807.32   20.40
   3   7   2  829.72   19.40
   3  -7   2  814.02   20.40
  -3  -7  -2  847.62   18.20
  -3  -7  -2  857.41   20.70
   3  -7   2  812.32   19.30
   3   7   3    1.50    5.50
   3   7   3   -2.60    4.20
   3  -7   3    1.50    4.40
  -3  -7  -3    0.80    4.50
   3  -7   3   -6.30    4.20
   3  -7   3    3.60    5.20
  -3  -7  -3    4.70    3.70
   3   7   4   78.99    7.10
   3   7   4   72.19    7.40
   3   7   4   74.79    8.50
  -3  -7  -4   67.29    5.90
   3  -7   4   67.99    6.70
   3  -7   4   74.99    8.50
  -3  -7  -4   73.59    7.70
   3   7   5   30.60    6.10
   3   7   5   41.20    6.70
   3   7   5   47.20    8.30
  -3  -7  -5   35.90    7.30
   3  -7   5   34.40    5.80
  -3  -7  -5   44.70    5.60
   3  -7   5   42.00    8.70
   3   7   6    8.40    6.40
   3   7   6    9.10    7.30
   3   7   6   -3.20    5.50
  -3  -7  -6   -0.70    4.60
   3  -7   6   10.40    5.20
   3  -7   6   -8.40    7.40
  -3  -7  -6    8.60    6.80
   3   7   7   20.70    6.50
   3   7   7   33.60    8.00
   3   7   7   36.50    9.20
   3  -7   7   36.60    9.70
   3  -7   7   39.30    6.50
  -3  -7  -7   32.20    6.20
  -3  -7  -7   58.79    9.10
   3   7   8    1.60    7.30
   3   7   8    3.10    5.90
   3  -7   8    9.20    5.70
  -3  -7  -8    9.50    8.00
  -3  -7  -8   15.20    6.10
   3   7   9   10.60    6.40
   3   7   9   13.60    8.90
   3  -7   9   11.40    5.50
  -3  -7  -9    2.80    6.00
   3   7  10    8.40    6.30
   3   7  10   11.50    9.40
  -3   7 -10    0.00    6.00
   3  -7  10  -13.70    9.20
  -3  -7 -10    1.50    6.40
  -3   7 -11   -4.20    6.30
   3   7  11   -6.80    6.40
   3  -7  11  -12.50   10.10
  -3  -7 -11    4.40    7.10
  -3   7 -12   16.60    7.70
  -3  -7 -12    6.40    8.00
   3  -7  12   13.10   11.90
  -3   8  13    1.70   11.40
   3  -8 -13    7.20    6.30
  -3  -8  13   -4.00   11.10
  -3   8  12   -0.40   11.30
   3  -8 -12   -3.60    5.30
  -3  -8  12    2.40   10.30
  -3   8  11    4.20    9.50
  -3  -8  11    5.50   10.60
   3  -8 -11    4.50    4.90
  -3   8  10    0.30    9.30
   3  -8 -10    8.30    4.80
  -3  -8  10    0.10    8.20
  -3   8   9   10.30    9.20
  -3   8   9   27.60    8.50
   3  -8  -9   14.90    4.60
  -3   8   8   -0.40    6.90
  -3   8   8   -7.60    3.50
  -3   8   8   -8.50    7.80
   3  -8  -8   -3.40    3.70
  -3  -8   8    3.40    6.40
  -3   8   7    1.10    3.80
  -3   8   7   -9.60    5.40
  -3   8   7   -6.30    7.00
  -3  -8   7   -5.10    5.30
  -3  -8   7   -3.00    5.70
   3  -8  -7   -8.00    3.50
   3  -8  -7    4.90    6.20
  -3   8   6   51.49    5.10
  -3   8   6   30.30    7.00
  -3   8   6   43.30    7.00
   3  -8  -6   43.50    6.90
   3  -8  -6   48.10    4.60
  -3  -8   6   50.99    6.80
  -3  -8   6   51.59    7.10
  -3   8   5   86.39    7.70
  -3   8   5   82.89    8.50
  -3   8   5   92.99    6.50
  -3  -8   5   84.69    4.00
   3  -8  -5   83.19    4.20
  -3  -8   5   84.49    7.70
   3  -8  -5   78.49    5.00
  -3  -8   5   95.09    7.40
  -3   8   4    0.10    4.50
  -3   8   4    1.60    2.10
  -3   8   4    5.70    3.80
  -3  -8   4    1.40    4.60
  -3  -8   4    5.80    4.60
   3  -8  -4   -2.10    2.20
  -3  -8   4   -5.00    2.50
  -3   8   3   53.59    4.30
   3   8  -3   43.80    3.00
  -3   8   3   49.50    5.10
  -3  -8   3   53.69    5.90
  -3  -8   3   51.49    5.90
  -3  -8   3   48.10    4.20
   3  -8  -3   45.20    3.60
  -3   8   2    2.30    3.00
   3   8  -2   -4.00    2.60
  -3   8   2   -0.30    3.50
   3  -8  -2    5.80    3.30
  -3  -8   2    7.10    3.50
  -3  -8   2    4.00    3.90
  -3   8   1  877.21   18.40
   3   8  -1  868.21   17.90
  -3   8   1  862.31   19.10
  -3  -8   1  857.81   18.90
   3  -8  -1  872.51   18.70
  -3  -8   1  848.92   17.80
  -3  -8   1  875.01   20.30
   3   8   0  315.77   10.20
  -3  -8   0  308.07   11.00
  -3  -8   0  309.87   10.30
   3  -8   0  286.07   10.70
  -3  -8   0  301.27    9.90
   3   8   1   74.39    6.80
   3   8   1   71.69    6.50
  -3  -8  -1   73.89    6.80
   3  -8   1   61.39    5.80
   3  -8   1   59.19    6.00
  -3  -8  -1   61.69    5.90
   3   8   2    7.30    4.80
   3   8   2    4.30    4.50
   3  -8   2    8.90    4.80
  -3  -8  -2    7.90    5.40
  -3  -8  -2    3.60    3.80
   3  -8   2   11.20    5.00
   3   8   3    0.90    5.40
   3   8   3    4.00    4.40
   3  -8   3    3.70    4.20
  -3  -8  -3    5.00    3.90
   3  -8   3    9.80    6.40
  -3  -8  -3   11.50    5.50
   3  -8   3    5.30    4.70
   3   8   4   96.19    9.10
   3   8   4  105.89    8.30
   3   8   4   95.19    7.60
  -3  -8  -4   92.19    6.70
   3  -8   4   85.09    9.20
   3  -8   4   90.99    7.40
  -3  -8  -4   98.39    8.70
   3   8   5   65.19    7.60
   3   8   5   54.29    8.60
   3   8   5   57.89    7.40
  -3  -8  -5   55.39    6.00
   3  -8   5   43.40    8.20
   3  -8   5   60.89    6.80
  -3  -8  -5   65.89    8.20
   3   8   6   45.90    6.90
   3   8   6   33.80    7.60
   3   8   6   43.70    8.20
   3  -8   6   36.80    9.20
  -3  -8  -6   39.90    6.20
  -3  -8  -6   34.70    7.70
   3  -8   6   39.70    6.30
   3   8   7   -2.60    7.10
   3   8   7    2.20    7.80
   3   8   7    2.10    5.90
  -3  -8  -7    5.20    7.20
   3  -8   7   10.90    8.70
   3  -8   7   -7.80    5.00
  -3  -8  -7   -0.30    5.20
   3   8   8   28.90    8.80
   3   8   8   27.70    7.00
  -3  -8  -8   35.60    6.90
   3  -8   8   33.30    6.30
  -3  -8  -8   29.20    8.70
   3   8   9    0.40    8.40
   3   8   9   -2.30    6.20
   3  -8   9   11.60    5.60
  -3  -8  -9   -2.30    6.00
   3   8  10   11.10    6.60
   3   8  10   -2.30   10.20
   3  -8  10   -0.50    9.60
  -3  -8 -10   11.10    6.90
  -3   8 -11   -1.10    6.40
   3   8  11   -0.30    6.70
   3  -8  11  -10.60   10.50
  -3  -8 -11  -17.30    6.80
  -3   9  13    0.20   12.60
   3  -9 -13    1.60    6.30
  -3  -9  13  -18.30   11.20
  -3   9  12    1.60   11.90
  -3  -9  12   -3.50    9.90
   3  -9 -12    0.90    6.00
  -3   9  11   -0.50    9.40
   3  -9 -11    1.20    5.40
  -3  -9  11   11.20   10.90
  -3   9  10    4.80    9.80
   3  -9 -10    2.50    5.00
  -3   9   9    4.50    4.20
  -3   9   9    9.70    9.40
  -3   9   9   14.90    7.80
   3  -9  -9   12.50    4.90
  -3   9   8    5.90    6.90
  -3   9   8   -1.00    3.90
  -3   9   8    1.50    8.30
  -3  -9   8    1.10    6.10
   3  -9  -8    5.40    4.30
  -3   9   7   87.99    6.30
  -3   9   7   72.39   10.10
  -3   9   7   87.39    9.30
  -3  -9   7   90.19    8.80
  -3  -9   7   88.79    8.60
   3  -9  -7   91.29    9.50
   3  -9  -7   84.99    6.20
  -3   9   6   66.49    5.90
  -3   9   6   53.29    7.90
  -3   9   6   52.89    7.40
   3  -9  -6   65.49    5.20
   3  -9  -6   56.69    7.50
  -3  -9   6   56.79    7.20
  -3  -9   6   54.49    7.30
  -3   9   5  105.99    7.30
  -3   9   5  124.69    9.50
  -3   9   5  113.69    8.70
  -3  -9   5  133.89    9.20
  -3  -9   5  130.39    9.50
   3  -9  -5  122.49    5.30
   3  -9  -5  116.19    6.80
  -3  -9   5  129.99    5.20
   3  -9  -5  140.29    9.10
  -3   9   4  141.09    7.60
  -3   9   4  153.38    5.50
  -3  -9   4  159.28    9.30
  -3  -9   4  142.79    6.20
   3  -9  -4  152.58    5.70
  -3  -9   4  149.69    9.20
  -3   9   3  519.25   11.60
   3   9  -3  506.45   10.40
  -3   9   3  507.35   13.60
   3  -9  -3  511.45   11.90
  -3  -9   3  503.85   14.80
  -3  -9   3  509.85   12.50
  -3  -9   3  519.65   14.60
  -3   9   2 1156.58   24.20
  -3   9   2 1119.89   22.40
   3   9  -2 1146.49   21.80
   3  -9  -2 1154.18   22.80
  -3  -9   2 1144.59   23.20
  -3  -9   2 1169.58   25.10
  -3   9   1   -4.30    4.20
   3   9  -1   -1.30    3.40
   3  -9  -1    1.60    4.20
  -3  -9   1    4.10    4.10
  -3  -9   1    5.70    4.40
  -3  -9   1    4.20    3.40
   3   9   0  114.09    7.40
  -3  -9   0  115.69    7.70
   3  -9   0  112.29    8.10
  -3  -9   0  112.19    8.50
   3  -9   0  105.29    7.50
  -3  -9   0  109.99    7.90
   3   9   1  162.58    8.90
   3   9   1  143.19    8.80
  -3  -9  -1  168.88   10.00
   3  -9   1  151.48    8.30
  -3  -9  -1  177.98    9.10
   3  -9   1  151.98    9.00
   3   9   2   59.39    6.90
   3   9   2   70.49    7.00
   3  -9   2   59.29    6.50
   3  -9   2   61.69    5.60
  -3  -9  -2   72.39    5.80
   3  -9   2   66.79    3.20
  -3  -9  -2   60.69    6.20
  -3  -9  -2   61.69    6.80
   3  -9   2   69.49    7.70
   3   9   3   82.09    8.30
   3   9   3  114.99    8.50
   3  -9   3  113.09    9.40
   3  -9   3  110.49    7.90
  -3  -9  -3  101.99    8.60
   3  -9   3   96.19    7.80
   3  -9   3  101.69    3.90
  -3  -9  -3  115.99    8.10
  -3  -9  -3   93.39    6.30
   3   9   4   -4.20    4.90
   3   9   4    3.40    5.30
   3   9   4    2.40    6.00
  -3  -9  -4    7.40    5.50
   3  -9   4    9.90    4.80
  -3  -9  -4    3.00    5.80
   3  -9   4    1.80    6.80
  -3  -9  -4    2.50    4.30
   3   9   5    0.80    5.70
   3   9   5    1.00    6.80
   3   9   5   -3.50    5.70
  -3  -9  -5    3.40    4.60
  -3  -9  -5    9.00    6.20
   3  -9   5   -5.10    7.60
   3  -9   5   -3.10    4.80
   3   9   6   64.19   10.00
   3   9   6   42.40    7.20
   3   9   6   41.00    8.00
   3  -9   6   41.40    6.50
  -3  -9  -6   32.50    6.00
  -3  -9  -6   36.60    8.00
   3  -9   6   38.70    9.40
   3   9   7   -3.80    7.90
   3   9   7    1.70    6.10
   3   9   7   11.10    7.70
  -3  -9  -7   14.10    7.70
  -3  -9  -7   10.50    5.60
   3  -9   7    8.10    8.20
   3  -9   7    7.00    5.50
   3   9   8    2.00    8.20
   3   9   8   17.10    7.00
  -3  -9  -8    3.70    6.10
  -3  -9  -8    3.00    7.70
   3  -9   8   -3.00    5.30
   3   9   9   16.80    7.00
   3   9   9    5.00    8.90
   3  -9   9    7.80    5.40
  -3  -9  -9    6.80    6.50
   3   9  10    0.10    6.40
  -3  -9 -10    6.60    6.80
   3   9  11   -2.30    6.70
  -3   9 -11   -5.30    6.30
  -3  -9 -11  -14.00    6.60
   3  -9  11   -5.30   10.50
  -3  10  13    0.10   11.70
  -3 -10  13  -12.20   10.00
   3 -10 -13   -0.30    6.30
  -3  10  12    9.60   11.70
  -3 -10  12   -0.50   11.30
   3 -10 -12   -9.10    5.60
  -3  10  11    6.00    9.60
  -3 -10  11    4.00   10.40
   3 -10 -11    1.20    5.50
  -3  10  10    5.20   10.30
   3 -10 -10   10.60    5.40
  -3  10   9   22.70    8.50
  -3  10   9   20.00    9.10
  -3  10   9   15.10    4.50
   3 -10  -9   11.20    5.20
  -3  10   8    5.80    7.30
  -3  10   8    5.50    4.50
  -3  10   8   -7.20    8.30
   3 -10  -8    1.70    4.50
  -3 -10   8   -6.40    6.20
   3  10  -7    5.70    6.60
  -3  10   7    8.90    8.10
  -3  10   7    3.20    4.40
  -3  10   7   15.20    6.80
   3 -10  -7    5.20    4.30
   3 -10  -7   19.50    7.10
  -3 -10   7    7.90    6.30
  -3 -10   7   20.50    6.90
  -3  10   6  352.66   14.60
  -3  10   6  320.37   11.50
  -3  10   6  352.66   15.70
  -3 -10   6  347.57   14.00
  -3 -10   6  326.27    7.80
   3 -10  -6  336.57   10.80
   3 -10  -6  332.87   13.60
  -3 -10   6  325.37   14.30
  -3  10   5    0.30    5.50
  -3  10   5    4.00    6.30
  -3  10   5    5.10    4.40
   3 -10  -5   -0.60    3.70
  -3 -10   5   -4.70    5.00
   3 -10  -5    0.40    4.60
  -3 -10   5    0.70    2.70
   3 -10  -5   -1.30    2.90
  -3 -10   5    3.60    4.80
  -3  10   4   86.09    6.80
  -3  10   4   89.59    5.00
   3  10  -4   82.89    3.70
  -3 -10   4   84.79    7.40
  -3 -10   4   94.19    5.60
  -3 -10   4   89.49    7.50
   3 -10  -4   86.89    5.50
   3  10  -3  530.65   11.20
  -3  10   3  516.55   14.30
  -3  10   3  527.95   12.30
  -3 -10   3  525.75   15.10
  -3 -10   3  515.85   13.10
   3 -10  -3  521.75   12.60
  -3 -10   3  532.75   15.60
  -3  10   2  784.82   17.00
  -3  10   2  730.13   18.20
   3  10  -2  776.92   16.10
  -3 -10   2  794.12   19.50
  -3 -10   2  744.43   17.40
   3 -10  -2  770.02   17.10
   3  10  -1   16.60    4.00
  -3  10   1    7.20    4.20
  -3 -10   1   12.80    4.60
  -3 -10   1    7.40    5.20
   3 -10  -1    9.00    4.50
   3  10   0   51.89    5.70
  -3  10   0   42.90    6.00
   3 -10   0   41.50    5.90
  -3 -10   0   43.00    5.70
   3 -10   0   52.59    6.00
  -3 -10   0   59.69    6.20
   3  10   1   20.90    5.10
   3  10   1   23.50    5.50
   3 -10   1   24.80    5.70
  -3 -10  -1   21.00    5.30
   3 -10   1   11.20    5.00
  -3 -10  -1   30.60    5.10
   3  10   2   57.39    6.80
   3  10   2   49.50    6.40
  -3 -10  -2   57.69    6.80
   3 -10   2   50.49    3.50
   3 -10   2   49.50    5.80
   3 -10   2   52.69    6.80
  -3 -10  -2   59.89    5.50
  -3 -10  -2   54.99    7.00
   3 -10   2   46.20    5.20
   3  10   3   -5.00    5.00
   3  10   3   -0.20    5.70
   3 -10   3    6.30    4.90
  -3 -10  -3   -6.40    5.40
  -3 -10  -3    1.40    4.60
   3 -10   3   -2.10    4.10
   3 -10   3   -2.80    6.20
  -3 -10  -3   -2.80    4.10
   3 -10   3    0.40    2.00
   3  10   4    0.80    5.90
   3  10   4    0.80    4.70
   3 -10   4   -3.60    5.00
   3 -10   4    2.60    6.50
  -3 -10  -4   -0.40    6.00
  -3 -10  -4    7.40    4.50
  -3 -10  -4    2.60    5.20
   3  10   5   -0.90    5.50
   3  10   5   -4.00    5.80
   3  10   5    5.60    6.00
  -3 -10  -5   -9.10    4.50
   3 -10   5    7.70    8.20
   3 -10   5    1.90    5.10
  -3 -10  -5   -0.30    6.30
   3  10   6   72.79    9.90
   3  10   6   51.69    8.00
   3  10   6   75.09    9.30
   3 -10   6   94.09   11.40
  -3 -10  -6   80.09    9.40
   3 -10   6   68.69    7.50
  -3 -10  -6   71.49    7.40
   3  10   7   -8.60    7.30
   3  10   7    3.30    9.00
   3  10   7   -0.80    6.00
  -3 -10  -7  -10.80    6.80
   3 -10   7   -6.90    8.90
  -3 -10  -7   -2.30    5.40
   3 -10   7    6.00    5.60
   3  10   8   14.40    8.80
   3  10   8    7.40    6.90
  -3 -10  -8   28.10    6.70
   3 -10   8   31.10    6.50
  -3 -10  -8   27.60    9.10
   3  10   9   24.20    7.30
   3  10   9   -7.70    8.60
   3 -10   9    9.30    5.20
  -3 -10  -9   13.70    6.90
   3  10  10  -16.90    6.00
  -3 -10 -10    5.20    6.90
   3  10  11   10.90    6.90
   3 -10  11   16.00   11.30
  -3 -10 -11    0.70    7.70
  -3  11  13   -2.80   12.90
  -3 -11  13    2.90   12.60
   3 -11 -13   -1.90    6.90
  -3  11  12   -9.40   11.00
   3 -11 -12   -4.00    6.40
  -3 -11  12    1.80   11.00
  -3  11  11   13.10   10.60
  -3 -11  11   16.00   10.50
   3 -11 -11   -5.70    5.50
  -3  11  10   -0.90    9.90
   3 -11 -10   -4.20    5.20
  -3  11   9   12.80   10.10
  -3  11   9   24.50    5.20
  -3  11   9   22.30    8.50
   3 -11  -9   23.90    5.70
  -3  11   8   40.00   10.50
  -3  11   8   32.60    8.40
  -3  11   8   33.20    5.60
   3 -11  -8   23.60    5.50
  -3 -11   8   18.20    7.20
  -3  11   7   37.50    5.80
   3  11  -7   43.30    7.90
  -3  11   7   37.60    8.40
  -3  11   7   60.09    8.50
  -3 -11   7   51.09    8.00
   3 -11  -7   37.40    5.40
   3 -11  -7   39.30    7.70
  -3  11   6    4.10    6.90
  -3  11   6   -2.30    6.20
  -3  11   6    5.60    4.90
   3 -11  -6   -4.10    5.50
   3 -11  -6    7.70    4.30
  -3 -11   6    2.00    2.70
  -3 -11   6    8.80    5.60
  -3 -11   6   -1.00    5.60
  -3  11   5  100.29    7.50
  -3  11   5   82.19    8.60
   3 -11  -5   88.99    6.20
  -3 -11   5   87.89    7.90
  -3 -11   5   73.59    5.50
   3 -11  -5   89.79    6.30
   3 -11  -5   99.99    7.80
  -3 -11   5   89.99    8.40
  -3  11   4  245.28    7.90
  -3  11   4  229.78   10.00
   3  11  -4  244.38    6.60
  -3 -11   4  252.27   11.40
  -3 -11   4  238.68   11.50
   3 -11  -4  246.28    8.40
  -3 -11   4  262.37    8.70
  -3  11   3  125.29    8.00
  -3  11   3  139.89    6.80
   3  11  -3  141.29    5.70
  -3 -11   3  126.99    9.50
   3 -11  -3  126.49    6.90
  -3 -11   3  129.79    7.20
  -3 -11   3  124.99    8.90
  -3  11   2   21.60    4.80
   3  11  -2   12.30    3.60
  -3 -11   2   17.90    5.50
  -3 -11   2   16.30    4.50
   3 -11  -2   19.10    4.40
  -3  11   1  534.85   15.20
   3  11  -1  546.15   14.10
  -3 -11   1  547.65   14.90
   3 -11  -1  542.75   15.10
   3 -11  -1  534.75   15.00
  -3 -11   1  565.34   16.00
  -3  11   0  109.49    8.10
   3  11   0  104.79    8.90
   3  11   0  115.59    7.70
  -3 -11   0  115.89    7.90
   3 -11   0  101.89    7.90
   3 -11   0  123.49    8.30
  -3 -11   0  123.29    8.80
  -3  11  -1  321.67   11.30
   3  11   1  324.57   12.60
   3  11   1  323.57   11.80
  -3 -11  -1  330.77   11.60
  -3 -11  -1  332.97   13.20
   3 -11   1  338.17   12.20
   3 -11   1  342.47   13.20
   3  11   2   54.49    6.90
   3  11   2   43.70    6.40
   3 -11   2   36.50    5.60
  -3 -11  -2   48.10    5.50
  -3 -11  -2   38.50    6.40
   3 -11   2   48.50    5.00
  -3 -11  -2   60.49    6.90
   3 -11   2   43.20    7.30
   3  11   3   42.50    6.90
   3  11   3   29.90    6.70
  -3 -11  -3   39.20    6.10
   3 -11   3   25.80    7.50
   3 -11   3   35.30    5.30
   3 -11   3   36.10    6.20
   3 -11   3   38.30    3.00
  -3 -11  -3   52.09    7.70
  -3 -11  -3   42.40    5.40
   3  11   4   14.70    6.10
   3  11   4   12.10    6.80
   3 -11   4   17.40    5.60
  -3 -11  -4   11.00    4.80
   3 -11   4   29.10    8.20
  -3 -11  -4   18.20    5.70
  -3 -11  -4   14.50    6.60
   3  11   5   31.90    7.90
   3  11   5   56.89    7.70
   3  11   5   36.00    7.20
  -3 -11  -5   41.00    6.10
  -3 -11  -5   41.90    7.80
   3 -11   5   37.70    6.80
   3 -11   5   31.50    9.20
   3  11   6   10.60    6.60
   3  11   6   -6.40    6.80
   3  11   6   -4.00    7.00
  -3 -11  -6   10.80    7.50
   3 -11   6   -1.30    5.40
   3 -11   6    5.90    8.80
  -3 -11  -6   -3.40    5.20
   3  11   7   23.00    8.30
   3  11   7   10.10    6.90
  -3 -11  -7   20.70    8.30
   3 -11   7   24.40    6.30
   3 -11   7   27.60   10.20
  -3 -11  -7   42.20    7.20
   3  11   8   13.60    8.90
   3  11   8    0.80    6.60
   3 -11   8    1.40    5.40
  -3 -11  -8   12.50    6.50
   3  11   9    5.70    9.50
   3  11   9    9.00    6.90
   3 -11   9   -7.20    5.00
  -3 -11  -9   -8.30    6.30
   3  11  10    1.70    6.90
  -3 -11 -10   -2.30    7.20
   3  11  11  -13.40    6.60
   3 -11  11    0.90   10.80
  -3 -11 -11   10.10    7.90
   3 -12 -13   -5.90    6.70
  -3  12  12   -9.30   11.90
   3 -12 -12    5.30    6.80
  -3 -12  12   -4.70   11.00
  -3  12  11   16.30   11.10
   3 -12 -11   20.60    6.90
  -3  12  10    9.30    9.60
   3 -12 -10   -1.40    5.60
  -3  12   9    1.40    4.80
  -3  12   9    4.30    8.80
  -3  12   9   -0.70    7.70
   3 -12  -9   -1.60    5.20
  -3  12   8   55.99    9.30
  -3  12   8   46.60   10.40
  -3  12   8   51.59    6.60
  -3 -12   8   38.60    8.20
   3 -12  -8   43.50    6.20
  -3  12   7   15.60    7.60
  -3  12   7   27.20    7.70
  -3  12   7   15.30    5.50
   3  12  -7   15.40    7.10
   3 -12  -7   11.70    6.80
   3 -12  -7   10.80    5.00
  -3 -12   7    2.70    7.10
  -3  12   6   -4.20    6.20
  -3  12   6    4.00    5.10
  -3  12   6   12.90    7.40
  -3 -12   6   -0.70    5.20
  -3 -12   6    0.40    6.50
   3 -12  -6    0.60    5.80
  -3 -12   6   -1.60    3.00
   3 -12  -6    0.60    4.60
  -3  12   5  126.99    8.50
  -3  12   5  112.89    9.30
  -3 -12   5  115.19    9.40
  -3 -12   5  110.79    6.40
   3 -12  -5  134.99    9.10
  -3 -12   5  112.69    8.80
  -3  12   4    9.00    3.50
  -3  12   4   14.80    5.10
   3  12  -4   18.90    3.00
   3 -12  -4    7.90    3.80
  -3 -12   4    9.70    5.50
   3 -12  -4   19.90    4.70
  -3 -12   4   14.00    4.10
  -3 -12   4   14.00    5.70
   3  12  -3  268.97    8.20
  -3  12   3  258.17   10.70
  -3 -12   3  257.37    9.90
   3 -12  -3  265.17    9.60
  -3 -12   3  267.77   12.40
   3  12  -2   42.60    4.60
  -3  12   2   49.00    6.10
  -3 -12   2   53.59    5.70
  -3 -12   2   46.30    6.10
   3 -12  -2   37.30    5.90
   3 -12  -2   47.90    5.40
  -3  12   1  335.47   12.00
   3  12  -1  337.77   11.00
   3 -12  -1  320.37   11.70
  -3 -12   1  320.17   13.10
   3 -12  -1  344.87   12.40
  -3 -12   1  310.47   11.20
  -3  12   0  289.07   11.40
   3  12   0  288.17   10.90
   3  12   0  283.87   11.60
  -3 -12   0  281.37   12.50
  -3 -12   0  295.77   11.50
   3 -12   0  294.37   11.60
   3 -12   0  300.17   12.10
   3  12   1   35.90    6.60
  -3  12  -1   24.80    5.60
   3  12   1   23.50    5.60
   3 -12   1   22.40    6.10
  -3 -12  -1   20.90    6.20
   3 -12   1   30.20    6.10
  -3 -12  -1   33.40    5.80
  -3  12  -2   53.29    6.70
   3  12   2   53.69    7.00
   3  12   2   59.59    7.50
  -3 -12  -2   44.50    5.50
  -3 -12  -2   53.69    7.60
  -3 -12  -2   69.29    7.40
   3 -12   2   41.90    6.90
   3 -12   2   58.89    6.80
   3 -12   2   53.59    5.10
   3  12   3    2.20    6.10
   3  12   3    5.20    5.80
  -3 -12  -3   -0.70    5.90
  -3 -12  -3    0.80    4.50
   3 -12   3    5.30    7.20
   3 -12   3    1.20    2.40
  -3 -12  -3   -4.00    5.40
   3 -12   3    3.80    4.90
   3 -12   3    0.70    4.10
   3  12   4    4.70    6.50
   3  12   4   14.80    6.10
  -3 -12  -4   11.80    6.20
  -3 -12  -4   -2.10    6.30
   3 -12   4    1.10    5.10
   3 -12   4   12.90    7.30
  -3 -12  -4   -6.40    4.60
   3  12   5   26.60    7.90
   3  12   5   33.90    7.40
   3 -12   5   48.10    9.90
  -3 -12  -5   47.30    6.60
  -3 -12  -5   38.30    8.10
   3 -12   5   30.20    6.50
   3  12   6   15.20    8.10
   3  12   6    5.60    7.10
   3  12   6   17.50    7.20
  -3 -12  -6   20.20    7.80
   3 -12   6   18.80    6.10
   3 -12   6   10.20    9.30
  -3 -12  -6   13.30    6.10
   3  12   7    9.80    8.30
   3  12   7   13.10    7.00
  -3 -12  -7   14.00    8.20
   3 -12   7    5.20    5.50
   3 -12   7  -11.20    8.80
  -3 -12  -7   16.60    6.30
   3  12   8   37.80    8.10
   3  12   8    4.00    8.70
  -3 -12  -8   12.70    7.00
   3 -12   8    9.20    5.70
   3  12   9   -4.00   13.40
   3  12   9    8.00    7.00
   3 -12   9    6.10    5.40
  -3 -12  -9   -5.00    6.60
   3  12  10   -4.60    6.90
  -3 -12 -10    1.80    7.40
   3  12  11    7.80    7.20
  -3 -12 -11    0.00    7.80
  -3  13  12    3.40   12.70
  -3 -13  12   19.10   10.60
   3 -13 -12   -6.60    6.10
  -3  13  11  -19.00   10.30
   3 -13 -11    5.50    6.40
  -3  13  10   -1.60    5.20
  -3  13  10   -6.80   10.00
   3 -13 -10    8.30    6.00
  -3  13   9   -2.70    5.00
  -3  13   9    2.90   10.00
   3 -13  -9   11.30    5.80
  -3  13   8    6.00    7.90
  -3  13   8    3.80    7.40
  -3  13   8   -9.00    4.90
  -3 -13   8    2.30    7.30
   3 -13  -8   -9.90    4.90
   3  13  -7   11.00    7.00
  -3  13   7    9.80    7.30
  -3  13   7    4.90    7.40
  -3  13   7   16.60    5.60
  -3 -13   7   10.60    4.80
   3 -13  -7   15.50    6.80
  -3 -13   7   17.50    7.60
   3 -13  -7   -3.50    4.80
  -3  13   6   75.09    7.60
  -3  13   6   81.09    9.40
   3 -13  -6   75.39    6.80
  -3 -13   6   78.49    5.90
   3 -13  -6   72.09    8.00
  -3 -13   6   79.19    9.20
  -3 -13   6   88.89    8.70
  -3  13   5   37.50    6.50
  -3  13   5   38.60    7.80
  -3 -13   5   39.00    7.50
  -3 -13   5   36.40    6.70
  -3 -13   5   35.50    4.80
   3 -13  -5   45.30    6.20
  -3  13   4  129.59    9.00
   3  13  -4  123.49    5.90
   3 -13  -4  113.69    7.60
  -3 -13   4  129.89    7.50
   3 -13  -4  102.69    7.70
  -3 -13   4  109.09    8.60
  -3 -13   4  110.89    9.50
  -3  13   3   33.60    5.90
   3  13  -3   27.80    4.00
  -3 -13   3   37.20    6.20
   3 -13  -3   35.90    5.00
  -3 -13   3   23.00    4.90
  -3  13   2  154.28    8.70
   3  13  -2  153.88    7.70
  -3 -13   2  147.09    8.50
   3 -13  -2  142.99    8.80
  -3 -13   2  165.28   10.90
   3 -13  -2  144.79    9.80
  -3  13   1    2.10    4.50
   3  13  -1    2.30    4.10
  -3 -13   1    9.20    5.00
   3 -13  -1   -2.70    4.80
  -3 -13   1    0.70    4.60
   3 -13  -1   -1.80    5.30
   3  13   0  134.09    9.00
   3  13   0  119.39    8.50
  -3  13   0  133.39    9.00
  -3 -13   0  136.19    9.40
   3 -13   0  129.19    8.60
  -3 -13   0  148.49   10.60
   3 -13   0  118.19    8.70
   3  13   1  110.79    8.30
   3  13   1  129.09    9.40
  -3  13  -1  104.29    7.80
   3 -13   1  111.89    8.10
   3 -13   1  111.99    9.40
  -3 -13  -1  126.99    9.50
   3 -13   1  110.69    6.10
  -3 -13  -1  129.29    8.60
   3  13   2   10.10    5.90
  -3  13  -2   14.60    5.30
   3  13   2   -2.00    5.70
   3 -13   2   -1.50    4.80
   3 -13   2   12.80    6.10
  -3 -13  -2    2.60    4.40
  -3 -13  -2   -0.60    5.70
   3 -13   2    2.00    3.50
  -3 -13  -2    2.90    5.60
   3  13   3   -6.40    5.30
   3  13   3   13.20    6.80
  -3 -13  -3    1.40    4.80
  -3 -13  -3   -2.30    5.30
  -3 -13  -3   10.00    6.00
   3 -13   3   17.50    7.90
   3 -13   3    4.80    4.30
   3 -13   3    7.80    5.20
   3  13   4   39.70    7.50
   3  13   4   45.40    8.30
  -3 -13  -4   49.70    7.60
   3 -13   4   60.19    9.70
  -3 -13  -4   48.50    8.20
  -3 -13  -4   42.30    6.10
   3 -13   4   41.10    6.70
   3  13   5    5.80    7.10
   3  13   5    1.80    6.30
   3 -13   5    8.70    5.80
  -3 -13  -5   20.30    7.70
   3 -13   5    3.30    7.80
  -3 -13  -5   -7.20    4.80
   3  13   6   16.60    7.20
   3  13   6   18.10    8.20
   3 -13   6   24.00    6.30
  -3 -13  -6   17.30    7.80
  -3 -13  -6   19.40    6.00
   3 -13   6   18.10    9.90
   3  13   7   -5.00    7.30
   3  13   7   -3.40    6.60
   3 -13   7    5.20    5.90
  -3 -13  -7    3.30    6.60
  -3 -13  -7    6.70    7.80
   3  13   8    3.80    8.50
   3  13   8   -1.40    6.70
  -3 -13  -8    9.20    7.10
   3 -13   8    0.60    5.70
   3  13   9    3.40    7.10
  -3 -13  -9  -13.40    6.50
   3 -13   9    6.10    5.70
   3  13  10   -0.20    7.20
  -3 -13 -10   -0.20    7.50
   3  13  11   -5.40    7.00
  -3 -13 -11  -11.00    7.80
  -3  14  12  -12.70   10.20
  -3 -14  12    3.60   11.20
   3 -14 -12    2.10    7.40
  -3  14  11  -13.60   10.60
   3 -14 -11    3.30    6.70
  -3  14  10    3.50   10.90
  -3  14  10   -3.00    5.10
   3 -14 -10   -2.20    6.10
  -3  14   9   -7.80    8.40
  -3  14   9    1.60    5.30
   3 -14  -9    3.90    6.00
  -3  14   8    4.50    8.80
  -3  14   8  -10.80    7.10
  -3  14   8   -3.70    5.40
  -3 -14   8    3.50    7.50
   3 -14  -8    0.60    5.50
  -3  14   7   31.40    8.40
   3  14  -7   21.30    7.10
  -3  14   7   24.20    6.30
  -3 -14   7   32.50    3.90
  -3 -14   7   26.70    8.60
   3 -14  -7   28.30    6.10
   3 -14  -7   29.60    7.50
  -3  14   6   -2.70    5.50
  -3  14   6    5.70    7.10
   3 -14  -6    6.90    5.80
   3 -14  -6   11.00    5.10
  -3 -14   6    0.80    6.70
  -3 -14   6   -2.60    6.60
  -3 -14   6    0.80    3.60
  -3  14   5   16.70    6.00
  -3  14   5    0.10    6.80
   3 -14  -5    7.00    5.10
  -3 -14   5    3.20    4.10
  -3 -14   5   15.00    7.20
  -3 -14   5   11.70    6.00
  -3  14   4   17.40    6.00
  -3 -14   4    4.80    4.30
  -3 -14   4   16.20    6.80
   3 -14  -4   15.20    4.60
   3 -14  -4    9.70    4.30
  -3 -14   4   11.20    6.00
   3  14  -3   23.60    4.10
  -3  14   3   26.10    6.20
   3 -14  -3   23.30    3.90
   3 -14  -3   23.00    6.20
  -3 -14   3   36.30    7.40
   3 -14  -3   24.80    5.30
  -3 -14   3   31.10    5.50
  -3  14   2   35.80    6.50
   3  14  -2   22.40    4.40
   3 -14  -2   31.80    6.60
  -3 -14   2   29.30    5.40
  -3 -14   2   25.20    6.50
   3 -14  -2   25.60    5.40
   3  14  -1  252.47   10.70
  -3  14   1  249.18   11.30
   3  14  -1  263.47   10.40
   3 -14  -1  249.08   11.40
  -3 -14   1  254.67   10.60
  -3 -14   1  269.57   13.00
   3 -14  -1  266.87   11.50
   3  14   0   96.19    7.60
  -3  14   0  117.49    8.70
   3  14   0  110.89    8.70
  -3 -14   0   99.89    8.40
   3 -14   0  107.59    8.80
  -3 -14   0  111.19    8.70
   3 -14   0   92.59    7.90
   3  14   1    3.40    5.10
  -3  14  -1    1.10    5.00
   3  14   1   -1.30    4.90
  -3 -14  -1   -3.10    5.10
   3 -14   1   -4.30    5.70
   3 -14   1    0.80    2.90
   3 -14   1   -4.60    5.30
  -3 -14  -1    2.00    5.60
   3  14   2   71.99    7.80
   3  14   2   77.99    8.40
  -3  14  -2   75.39    7.20
   3 -14   2   68.39    7.60
  -3 -14  -2   63.89    6.40
  -3 -14  -2   57.49    7.30
  -3 -14  -2   57.69    7.60
   3 -14   2   71.99    5.40
   3 -14   2   69.79    8.30
   3  14   3   46.70    7.50
   3  14   3   39.90    7.50
   3 -14   3   36.00    5.60
   3 -14   3   43.10    8.90
  -3 -14  -3   32.10    6.70
   3 -14   3   53.19    7.00
  -3 -14  -3   36.20    7.80
  -3 -14  -3   44.00    6.00
   3  14   4   10.40    6.70
   3  14   4   -7.40    6.30
   3 -14   4   -3.40    6.80
  -3 -14  -4   -0.60    5.20
  -3 -14  -4   -1.30    6.90
   3 -14   4    3.50    5.60
  -3 -14  -4    5.50    5.60
   3  14   5    8.60    7.00
   3  14   5   -1.60    7.40
  -3 -14  -5   10.90    5.80
   3 -14   5    2.40    5.80
  -3 -14  -5   -1.50    6.80
   3 -14   5    9.00    9.00
   3  14   6  112.19   12.80
   3  14   6  131.39   11.20
  -3 -14  -6  107.29    9.10
   3 -14   6  126.09    9.80
   3 -14   6  113.59   12.30
  -3 -14  -6  121.19   11.50
   3  14   7    5.70    7.10
  -3 -14  -7    5.20    7.60
   3 -14   7   -4.60    5.70
  -3 -14  -7  -10.00    6.40
   3  14   8    2.20    7.30
   3 -14   8   -5.90    5.70
  -3 -14  -8    6.00    7.30
   3  14   9   -7.20    6.90
  -3 -14  -9   -1.00    7.20
   3 -14   9    5.60    5.80
   3  14  10    6.80    7.40
  -3 -14 -10    6.50    7.80
   3  14  11    7.60    7.80
  -3 -14 -11    9.40    8.50
  -3  15  12    9.50   12.60
   3 -15 -12   10.90    7.70
  -3  15  11   -4.60   11.10
   3 -15 -11   -0.90    6.80
  -3  15  10   -5.60   10.60
  -3  15  10   10.90    5.70
   3 -15 -10    0.50    6.20
  -3  15   9    1.30    5.50
   3 -15  -9    2.30    6.20
  -3  15   8    3.10    5.70
  -3  15   8   15.10    9.10
   3 -15  -8  -11.80    5.60
  -3 -15   8   -4.00    7.90
   3  15  -7    1.10    7.50
  -3  15   7   -2.70    5.70
  -3  15   7    2.60    7.60
   3 -15  -7   17.80    6.20
  -3 -15   7    9.10    3.70
  -3 -15   7    4.20    7.70
  -3  15   6   70.59    9.90
  -3  15   6   73.09    8.20
  -3 -15   6   64.39    5.80
  -3 -15   6   56.19    9.00
  -3  15   5    6.60    6.90
  -3  15   5    1.20    5.80
   3 -15  -5   -5.30    5.90
  -3 -15   5    4.40    4.40
  -3 -15   5    6.00    7.20
  -3 -15   5   -1.80    5.60
  -3  15   4   13.50    5.80
  -3 -15   4    5.00    5.40
   3 -15  -4   13.10    4.90
  -3 -15   4    7.90    4.70
   3 -15  -4   11.40    4.50
  -3 -15   4   19.40    7.30
   3  15  -3  100.29    7.00
  -3  15   3   87.99    7.80
  -3 -15   3  115.49    9.60
   3 -15  -3  107.79    9.40
  -3 -15   3   90.79    7.40
   3 -15  -3   99.19    7.40
   3 -15  -3   99.89    6.30
  -3  15   2   29.00    5.80
   3  15  -2   37.00    5.10
  -3 -15   2   36.10    7.50
  -3 -15   2   29.10    5.80
   3 -15  -2   28.70    5.90
   3 -15  -2   24.40    6.10
  -3  15   1   17.30    6.00
   3  15  -1   27.40    5.30
   3  15  -1   20.90    6.10
  -3 -15   1   -0.70    5.40
  -3 -15   1   13.00    5.30
   3 -15  -1   14.40    5.80
   3 -15  -1   19.10    6.00
   3  15   0   57.19    6.90
  -3  15   0   51.69    6.70
   3  15   0   58.59    6.80
  -3 -15   0   48.70    7.60
   3 -15   0   57.89    7.90
   3 -15   0   55.29    7.70
   3 -15   0   62.19    4.50
  -3 -15   0   62.49    7.60
   3  15   1  415.76   14.90
  -3  15  -1  398.86   14.60
   3  15   1  401.36   14.50
   3 -15   1  418.56   15.10
  -3 -15  -1  401.76   15.20
   3 -15   1  413.66   16.50
  -3 -15  -1  407.66   16.30
  -3  15  -2   57.09    7.20
   3  15   2   68.19    8.20
   3  15   2   61.09    8.40
  -3 -15  -2   54.69    8.10
  -3 -15  -2   58.09    7.60
   3 -15   2   51.79    8.70
   3 -15   2   51.19    7.20
   3  15   3    1.70    6.70
   3  15   3   -8.30    5.20
  -3 -15  -3   -0.20    6.40
  -3 -15  -3   -7.40    5.30
   3 -15   3   -0.60    5.80
  -3 -15  -3    2.10    4.90
   3 -15   3    0.50    8.10
   3  15   4   54.49    9.20
   3  15   4   51.39    8.60
  -3 -15  -4   41.90    7.10
  -3 -15  -4   50.29    8.40
   3 -15   4   34.80    7.10
  -3 -15  -4   66.09    8.90
   3 -15   4   39.60   10.10
   3  15   5  102.99   10.10
   3  15   5   93.89   11.50
  -3 -15  -5  100.29    9.00
   3 -15   5   76.49   12.10
   3 -15   5   79.09    8.50
  -3 -15  -5   94.59   10.40
   3  15   6    6.90    7.20
  -3 -15  -6   13.60    7.90
  -3 -15  -6  -13.10    5.50
   3 -15   6   -1.10    9.70
   3 -15   6   -3.00    6.00
   3  15   7   11.70    7.70
  -3 -15  -7    8.10    7.00
   3 -15   7    8.50    6.50
  -3 -15  -7    8.00    8.00
   3  15   8   -5.50    6.80
   3 -15   8   -5.30    6.00
  -3 -15  -8    2.40    6.80
   3  15   9    6.30    7.50
  -3 -15  -9    6.30    7.30
   3 -15   9    7.90    6.00
   3  15  10    1.10    7.60
  -3 -15 -10   -5.00    7.50
   3  15  11   -9.60    7.10
  -3 -15 -11    2.00    8.60
   3 -16 -12   -1.40    7.40
   3 -16 -11    0.30    6.90
  -3  16  10   -0.40    5.90
   3 -16 -10    4.70    6.80
  -3  16   9    1.40    6.10
   3 -16  -9    7.40    6.60
  -3  16   8   -9.30    5.50
  -3 -16   8    2.40    8.20
   3 -16  -8    5.30    6.20
  -3  16   7   -7.00    7.30
  -3  16   7   -6.50    5.90
  -3 -16   7    0.10    3.70
   3 -16  -7   -0.50    5.70
  -3 -16   7    7.50    7.90
  -3  16   6   13.60    6.50
  -3  16   6   13.70    7.90
  -3 -16   6   10.00    8.00
  -3 -16   6   12.20    4.70
  -3  16   5  105.89    9.60
  -3  16   5   87.89   10.40
  -3 -16   5  100.09    9.40
  -3 -16   5   92.19   10.50
  -3 -16   5  103.09    7.60
  -3  16   4    6.30    5.90
  -3 -16   4    5.00    4.80
  -3 -16   4    5.20    5.80
  -3 -16   4   -0.50    6.50
   3 -16  -4   -5.30    4.70
   3  16  -3    1.30    3.90
  -3  16   3   -9.80    5.50
  -3 -16   3   -2.20    4.70
   3 -16  -3   -6.30    6.00
   3 -16  -3    1.60    5.10
  -3 -16   3    1.30    6.50
   3  16  -2    8.50    4.40
  -3  16   2   -3.20    5.10
   3 -16  -2   -0.60    5.40
  -3 -16   2   14.20    6.20
  -3 -16   2    3.20    5.30
   3 -16  -2   10.40    6.30
   3  16  -1  177.88   10.90
  -3  16   1  198.78   10.60
   3  16  -1  201.28   10.30
  -3 -16   1  205.18   11.10
  -3 -16   1  182.38   11.60
   3 -16  -1  204.08   11.00
   3 -16  -1  188.18   11.20
  -3  16   0   33.30    6.80
   3  16   0   29.60    6.20
   3  16   0   35.70    7.10
  -3 -16   0   41.70    7.20
   3 -16   0   37.10    7.00
   3 -16   0   35.90    7.20
  -3 -16   0   27.20    6.10
   3  16   1    5.20    5.80
  -3  16  -1    7.40    5.30
   3  16   1    9.20    5.80
   3 -16   1    4.40    5.60
  -3 -16  -1    6.80    6.80
  -3 -16  -1    1.20    5.60
   3 -16   1    7.30    6.40
  -3  16  -2   82.59    8.20
   3  16   2   74.09    9.00
   3  16   2   75.69    8.90
  -3 -16  -2   66.59    8.60
   3 -16   2   81.69    9.00
   3 -16   2   64.79    9.60
  -3 -16  -2   63.89    8.80
   3  16   3   90.19    9.60
   3  16   3   91.49   10.10
  -3 -16  -3   75.19    8.60
  -3 -16  -3   94.89   10.40
   3 -16   3   79.39    8.90
   3 -16   3  105.29   11.30
   3  16   4    2.10    6.50
   3  16   4   -0.40    7.00
   3 -16   4    0.60    8.80
  -3 -16  -4    4.50    7.30
   3 -16   4   -3.50    6.00
  -3 -16  -4    0.40    6.20
  -3 -16  -4    2.00    6.70
   3  16   5   10.30    7.20
   3  16   5    6.40    8.00
   3 -16   5   -4.70    6.10
  -3 -16  -5   -0.50    6.10
  -3 -16  -5   10.00    7.60
   3 -16   5    9.70    9.60
   3  16   6   13.50    7.70
  -3 -16  -6    8.20    8.10
  -3 -16  -6    6.50    6.00
   3 -16   6   15.10    6.90
   3  16   7   12.90    7.90
  -3 -16  -7  -11.30    6.10
   3 -16   7    5.20    6.30
  -3 -16  -7    0.00    8.10
   3  16   8   11.90    7.90
  -3 -16  -8   12.20    7.90
   3 -16   8  -16.80    5.70
   3  16   9   15.60    8.10
  -3 -16  -9    6.50    8.00
   3 -16   9    8.10    6.40
   3  16  10    4.60    7.90
  -3 -16 -10   -4.90    7.60
   3 -17 -12   -2.30    7.80
   3 -17 -11   -9.20    7.00
  -3  17  10   -5.20    6.00
   3 -17 -10    1.80    7.20
  -3  17   9   11.50    6.60
   3 -17  -9   23.30    7.20
  -3  17   8   -1.30    6.10
  -3 -17   8   -4.30    8.20
   3 -17  -8   -2.30    6.00
  -3  17   7    9.70    7.80
  -3  17   7    0.90    6.40
  -3 -17   7    1.00    4.10
  -3 -17   7   -3.50    7.90
  -3  17   6  -10.60    7.00
  -3  17   6   -1.30    6.30
  -3 -17   6    6.50    4.80
  -3 -17   6    6.90    7.60
  -3  17   5    9.40    6.90
  -3  17   5    7.60    7.60
  -3 -17   5    8.90    5.10
  -3 -17   5   12.80    8.10
  -3  17   4   10.00    6.50
  -3 -17   4    7.40    6.50
  -3 -17   4   12.00    5.40
  -3 -17   4   18.00    8.00
   3 -17  -4   16.00    6.50
   3  17  -3  109.49    7.90
  -3  17   3   95.19    9.30
  -3 -17   3   93.29    8.30
  -3 -17   3  104.19   10.30
   3 -17  -3   96.39    9.40
   3 -17  -3  111.29    8.50
   3  17  -2   24.90    5.30
  -3  17   2   31.80    7.10
  -3 -17   2   16.20    7.10
   3 -17  -2   14.70    6.30
  -3 -17   2   22.70    6.30
   3 -17  -2   29.20    6.40
   3  17  -1    2.60    5.00
  -3  17   1   14.80    6.50
   3  17  -1   -3.00    5.90
  -3 -17   1   10.20    6.20
  -3 -17   1    9.30    6.40
   3 -17  -1   -3.70    5.90
   3 -17  -1    2.30    5.90
  -3  17   0  326.67   13.90
   3  17   0  316.47   13.10
   3  17   0  327.67   13.40
   3 -17   0  327.77   13.80
  -3 -17   0  329.07   15.70
   3 -17   0  309.97   14.90
  -3 -17   0  331.47   14.30
  -3  17  -1   85.39    9.00
   3  17   1   66.19    8.20
   3  17   1   65.59    7.90
  -3 -17  -1   60.09    9.30
   3 -17   1   52.49    8.40
  -3 -17  -1   54.29    7.80
   3 -17   1   48.00    8.90
   3  17   2    3.80    6.10
  -3  17  -2   -4.20    5.50
   3  17   2    3.90    6.50
   3 -17   2    9.90    6.50
   3 -17   2   -9.50    6.60
  -3 -17  -2   -1.20    5.90
  -3 -17  -2    0.20    6.70
   3  17   3   20.00    6.80
   3  17   3   12.30    7.20
  -3 -17  -3    5.20    7.00
   3 -17   3   18.30    9.00
   3 -17   3   22.40    6.90
  -3 -17  -3   14.30    7.70
   3  17   4   85.49    9.80
   3  17   4   77.09    9.90
  -3 -17  -4   84.09   10.50
  -3 -17  -4   73.89    9.00
   3 -17   4   82.09    9.40
   3 -17   4  111.19   13.10
   3  17   5   -0.70    6.40
   3  17   5   -1.40    7.60
   3 -17   5    0.90    9.70
  -3 -17  -5   -9.90    7.30
   3 -17   5   -4.60    6.20
   3  17   6   10.30    7.70
  -3 -17  -6    5.80    8.30
   3 -17   6    3.60    6.50
   3  17   7    7.90    7.70
  -3 -17  -7  -11.20    7.30
   3 -17   7    0.90    6.40
   3  17   8    3.20    7.50
   3 -17   8   -4.70    6.30
  -3 -17  -8    7.00    8.20
   3  17   9   -5.20    7.60
   3 -17   9    8.90    6.60
   3  17  10   -6.30    7.80
   3 -18 -12    2.60    8.00
   3 -18 -11   -4.90    7.30
  -3  18  10   -6.40    6.10
   3 -18 -10  -11.50    6.80
  -3  18   9   -5.60    6.00
   3 -18  -9   -1.80    6.70
  -3  18   8   -1.40    6.50
  -3  18   7    3.00    6.80
  -3 -18   7   -8.30    3.90
  -3 -18   7    2.10    8.60
  -3  18   6    6.40    7.50
  -3  18   6    3.00    6.70
  -3 -18   6   -4.10    4.60
  -3 -18   6    8.30    8.10
  -3  18   5   34.80    8.20
  -3  18   5   25.00    7.80
  -3 -18   5   31.30    6.10
  -3 -18   5   25.00    9.30
  -3  18   4   23.10    7.20
  -3 -18   4   15.70    6.00
  -3 -18   4   24.20    8.40
  -3  18   3   22.20    7.10
  -3 -18   3   18.10    6.20
  -3 -18   3   26.50    8.30
   3 -18  -3   16.20    6.60
   3 -18  -3   16.10    6.30
  -3  18   2    3.00    5.90
   3  18  -2    3.90    4.80
  -3 -18   2    0.40    5.50
   3 -18  -2    7.50    6.00
  -3 -18   2  -11.00    6.60
   3 -18  -2   -2.50    6.00
   3  18  -1   80.69    8.80
  -3  18   1   52.59    7.70
   3  18  -1   79.09    7.80
  -3 -18   1   70.39    8.80
   3 -18  -1   71.69    9.00
   3 -18  -1   59.09    8.30
  -3 -18   1   72.79    8.60
   3  18   0   99.99    9.60
  -3  18   0   93.99    9.10
   3  18   0   84.59    8.40
  -3 -18   0   89.09   10.20
  -3 -18   0   85.59    8.80
   3 -18   0   70.09    8.40
   3 -18   0   87.49    9.60
  -3  18  -1    9.30    6.30
   3  18   1   15.10    7.30
   3  18   1    3.50    6.10
  -3 -18  -1   23.90    7.90
  -3 -18  -1    4.80    6.20
   3 -18   1   22.40    7.30
   3 -18   1   16.60    8.00
   3  18   2   65.39    9.40
  -3  18  -2   46.30    7.80
   3  18   2   54.99    8.50
  -3 -18  -2   66.59    9.30
  -3 -18  -2   49.00    8.90
   3 -18   2   56.09    8.60
   3 -18   2   65.69   10.70
   3  18   3   26.00    8.20
   3  18   3   30.40    8.20
  -3 -18  -3   23.30    8.20
  -3 -18  -3   47.50    8.70
   3 -18   3   49.70   10.40
   3 -18   3   47.90    8.40
   3  18   4   -3.10    7.50
   3  18   4   -4.10    7.20
  -3 -18  -4    0.40    7.50
   3 -18   4   -0.60    6.90
   3 -18   4   -6.90    9.00
  -3 -18  -4    3.40    7.30
   3  18   5    1.90    6.50
   3 -18   5   -2.90    6.90
  -3 -18  -5    6.00    8.00
   3 -18   5   13.30   10.40
   3  18   6    0.30    7.20
   3 -18   6   10.90    7.30
  -3 -18  -6  -10.20    7.60
   3  18   7    5.40    7.60
   3 -18   7    7.40    6.90
   3  18   8    6.80    8.50
   3 -18   8    0.30    6.50
   3  18   9    3.20    7.90
   3 -18   9    8.20    6.90
   3  18  10  -14.70    7.40
  -3  19  11  -11.60    6.10
   3 -19 -11   -0.80    7.60
  -3  19  10   -4.60    6.40
   3 -19 -10    2.20    7.30
  -3  19   9   11.20    7.50
  -3  19   8   25.90    7.60
  -3  19   7   -2.30    6.90
  -3 -19   7   -8.20    8.60
  -3 -19   7    2.60    4.70
  -3  19   6    2.00    6.80
  -3 -19   6   20.70    5.70
  -3 -19   6   19.70    9.40
  -3  19   5   -2.60    6.70
  -3  19   5   -1.00    7.50
  -3 -19   5    7.40    7.60
  -3 -19   5   -2.70    5.30
  -3  19   4   26.00    6.90
  -3 -19   4   29.70    6.60
  -3 -19   4   51.19    9.90
  -3  19   3   -0.70    6.80
   3 -19  -3   -2.70    7.00
  -3 -19   3   -1.80    6.70
  -3 -19   3    5.10    5.90
   3 -19  -3    3.40    6.10
  -3  19   2   91.79    9.30
   3  19  -2   98.39    8.30
   3 -19  -2  104.49   10.00
  -3 -19   2  103.49    9.90
  -3 -19   2   98.99   11.00
   3 -19  -2  105.69    9.30
  -3  19   1    5.20    6.60
   3  19  -1   -7.70    5.20
   3  19  -1   -3.30    6.10
  -3 -19   1    1.00    7.30
   3 -19  -1   -2.00    6.60
   3 -19  -1   -9.10    6.40
  -3 -19   1   -0.70    6.30
  -3  19   0   22.00    6.60
   3  19   0   14.60    6.30
   3  19   0   30.10    8.00
  -3 -19   0   14.00    8.00
   3 -19   0   27.70    8.10
   3 -19   0   32.50    8.10
  -3 -19   0   22.30    6.80
   3  19   1   31.90    8.00
   3  19   1   35.70    7.40
  -3  19  -1   30.90    7.70
  -3 -19  -1   22.70    8.50
   3 -19   1   46.20    8.70
  -3 -19  -1   41.70    7.80
   3 -19   1   43.90    9.30
  -3  19  -2   65.29   10.50
   3  19   2   47.00    8.30
   3  19   2   77.49   10.20
  -3 -19  -2   48.60    9.10
   3 -19   2   32.10   10.00
   3 -19   2   60.09    9.20
  -3 -19  -2   47.40    9.40
   3  19   3   42.00    8.60
   3  19   3   34.50    8.10
  -3 -19  -3   45.80    9.30
   3 -19   3   35.30    8.10
  -3 -19  -3   38.60    8.20
   3 -19   3   40.00   10.30
   3  19   4    6.50    7.10
   3  19   4    3.10    7.50
  -3 -19  -4    8.80    8.20
  -3 -19  -4    3.20    8.60
   3 -19   4   10.30   10.10
   3 -19   4    8.30    7.50
   3  19   5   96.69   11.30
   3 -19   5  110.39   10.80
  -3 -19  -5   95.69   11.30
   3  19   6   13.30    8.10
   3 -19   6   15.20    7.60
  -3 -19  -6   16.70    8.90
   3  19   7   19.00    9.00
   3 -19   7    0.30    7.10
   3  19   8  -11.80    7.70
   3 -19   8   -5.40    6.60
   3  19   9    7.50    8.50
   3 -19   9  -12.30    6.10
   3  19  10    0.40    8.40
  -3  20  11    0.80    6.80
  -3  20  10   15.90    7.50
  -3  20   9    9.30    7.60
  -3  20   8    1.70    7.10
  -3  20   7   -1.30    6.90
  -3 -20   7    9.90    5.30
  -3  20   6   24.50    8.00
  -3 -20   6   29.80   10.00
  -3 -20   6    8.00    5.60
  -3  20   5    4.10    7.30
  -3  20   5    4.10    7.40
  -3 -20   5    1.60    5.70
  -3 -20   5    2.50    9.00
  -3  20   4  -11.20    6.60
  -3 -20   4  -14.20    7.80
  -3 -20   4    4.10    6.00
  -3  20   3   -1.60    6.90
   3 -20  -3    9.60    6.70
  -3 -20   3   11.90    6.70
   3 -20  -3    2.20    6.60
  -3 -20   3    1.20    8.10
  -3  20   2   20.60    7.90
   3  20  -2   25.60    6.20
   3 -20  -2   15.10    7.10
  -3 -20   2   13.90    8.30
   3 -20  -2    4.90    6.60
  -3 -20   2    9.80    6.70
   3  20  -1   30.30    7.10
   3  20  -1   29.40    6.90
  -3  20   1   18.00    7.80
   3 -20  -1   49.70    8.60
  -3 -20   1   37.40    7.90
  -3 -20   1   39.20    9.30
   3 -20  -1   35.30    7.80
   3  20   0   73.79    8.60
  -3  20   0   71.59    9.40
   3  20   0   53.09    8.30
   3 -20   0   59.39    8.70
  -3 -20   0   79.99    9.80
   3 -20   0   65.89   10.00
  -3 -20   0   60.99    9.20
   3  20   1   15.20    6.80
  -3  20  -1    5.50    6.80
   3  20   1    4.90    6.30
   3 -20   1  -10.70    6.30
   3 -20   1   21.30    9.10
  -3 -20  -1   14.80    8.40
  -3 -20  -1   11.40    7.90
   3  20   2  186.68   13.50
   3  20   2  166.68   13.50
   3 -20   2  189.48   14.90
  -3 -20  -2  176.88   12.70
  -3 -20  -2  195.48   15.20
   3 -20   2  182.68   13.40
   3  20   3   71.19    9.70
   3  20   3   70.79    9.80
  -3 -20  -3   69.39    9.90
   3 -20   3   59.79    9.20
  -3 -20  -3   78.49   10.30
   3 -20   3   90.49   12.40
   3  20   4   15.70    9.10
   3  20   4   25.80    9.00
   3 -20   4   28.00   10.90
  -3 -20  -4    1.80    7.90
   3 -20   4   15.50    7.70
   3  20   5   17.10    8.40
  -3 -20  -5   22.70    9.20
   3 -20   5   27.20    8.10
   3  20   6    3.00    8.20
   3 -20   6    2.40    7.50
  -3 -20  -6    6.70    8.70
   3  20   7   -1.30    7.60
   3 -20   7   -9.60    6.70
   3  20   8  -12.30    8.00
   3 -20   8   -7.80    6.70
   3  20   9    7.60    8.60
   3 -20   9    7.00    7.30
   3  20  10    9.60    8.80
  -3  21  11  -13.90    6.60
  -3  21  10   -3.90    7.10
  -3  21   9    4.50    7.70
  -3  21   8   14.70    7.70
  -3  21   7    5.30    7.50
  -3 -21   7   -5.40    5.10
  -3  21   6    6.00    7.50
  -3 -21   6   -3.50    5.40
  -3  21   5   40.90    8.60
  -3 -21   5   57.69   11.00
  -3 -21   5   47.00    7.70
  -3  21   4  112.19   11.80
  -3 -21   4  102.19   12.20
  -3 -21   4  100.99    9.70
  -3  21   3   -9.40    6.90
   3 -21  -3   -9.20    6.50
  -3 -21   3    0.30    7.10
   3 -21  -3    7.50    8.10
  -3 -21   3   -6.50    6.20
  -3  21   2   10.60    7.10
  -3 -21   2   13.90    8.30
   3 -21  -2    9.70    7.40
   3 -21  -2   17.00    7.60
  -3 -21   2   16.90    7.00
  -3  21   1   53.19    9.30
   3  21  -1   47.80    8.70
   3  21  -1   35.30    7.40
  -3 -21   1   32.80    8.70
  -3 -21   1   52.99    9.00
   3 -21  -1   43.70    8.90
   3 -21  -1   43.90    8.50
   3  21   0  113.39   10.20
  -3  21   0  113.09   11.30
   3  21   0  106.49   10.10
  -3 -21   0   93.29   10.60
   3 -21   0   91.09   10.90
  -3 -21   0   81.79   10.50
   3 -21   0   94.79   11.10
  -3  21  -1    1.70    6.50
   3  21   1    2.20    6.60
   3  21   1    0.50    7.60
  -3 -21  -1    3.70    6.80
   3 -21   1   13.60    8.10
  -3 -21  -1    1.80    8.00
   3 -21   1   -1.80    8.00
   3  21   2    0.40    6.90
   3  21   2    0.70    7.20
   3 -21   2    3.80    9.50
  -3 -21  -2    6.30    8.40
   3 -21   2    0.80    6.60
  -3 -21  -2   20.10    8.50
   3  21   3    6.60    7.60
   3  21   3    2.50    7.20
  -3 -21  -3   -9.50    7.70
  -3 -21  -3   -1.10    8.40
   3 -21   3   -3.70    9.30
   3 -21   3    2.20    7.60
   3  21   4   18.50    9.00
  -3 -21  -4   35.10    9.70
   3 -21   4   17.50    8.20
   3  21   5    5.80    8.30
  -3 -21  -5    9.70    8.80
   3 -21   5   -5.00    7.20
   3  21   6    7.50    8.00
   3 -21   6   -7.50    7.20
   3  21   7   -3.50    7.90
   3 -21   7    8.00    7.70
   3  21   8   23.60    9.10
   3 -21   8   -3.40    7.10
   3  21   9   -1.80    8.30
   3 -21   9    6.00    7.60
  -3  22  11    6.40    7.90
  -3  22  10   18.70    8.00
  -3  22   9   12.20    7.90
  -3  22   8  -12.90    6.60
  -3 -22   8   11.20    7.90
  -3  22   7   -0.60    7.60
  -3 -22   7   -2.40    5.50
  -3  22   6    2.00    7.50
  -3 -22   6    5.20    6.00
  -3  22   5    1.00    7.60
  -3 -22   5    0.50    6.00
  -3  22   4   40.70    9.10
  -3 -22   4   50.19    8.30
  -3 -22   4   57.89   11.00
  -3  22   3   16.30    7.20
   3 -22  -3    9.00    7.30
  -3 -22   3   18.20    9.20
   3 -22  -3   24.40    9.50
  -3 -22   3   28.20    7.80
  -3  22   2   25.40    8.80
  -3 -22   2   28.20    8.60
  -3 -22   2   14.40    6.80
   3 -22  -2   21.10    8.60
   3 -22  -2   29.70    7.90
  -3  22   1    0.60    7.30
   3  22  -1    3.50    6.50
   3 -22  -1   -2.10    7.00
  -3 -22   1    8.70    7.60
   3 -22  -1   -9.10    7.20
  -3 -22   1  -12.90    7.70
  -3  22   0  243.28   14.80
   3  22   0  249.68   14.00
   3  22   0  249.48   14.80
  -3 -22   0  254.97   15.80
   3 -22   0  226.08   15.90
  -3 -22   0  248.98   15.20
   3 -22   0  241.88   15.50
  -3  22  -1  131.09   11.80
   3  22   1   90.69   10.70
   3  22   1  106.69   10.80
  -3 -22  -1  109.99   12.30
   3 -22   1  105.79   12.30
  -3 -22  -1  106.69   11.40
   3 -22   1   91.59   10.20
   3  22   2   -3.40    6.90
   3  22   2   -0.60    7.90
  -3 -22  -2    1.60    8.10
  -3 -22  -2   -1.30    7.20
   3 -22   2  -12.50    8.70
   3 -22   2   -0.20    7.50
   3  22   3   -3.80    7.80
   3  22   3    7.50    7.90
  -3 -22  -3   13.50    9.00
   3 -22   3    4.10   10.00
   3 -22   3    2.00    7.70
  -3 -22  -3   -8.80    6.80
   3  22   4    8.60    8.70
  -3 -22  -4   17.50    9.00
   3 -22   4   -2.20    7.60
   3  22   5    8.30    8.50
   3 -22   5   11.20    7.90
   3  22   6    0.60    8.00
   3 -22   6   -7.80    7.70
   3  22   7   10.90    9.00
   3 -22   7    1.30    7.90
   3  22   8    2.80    8.90
   3 -22   8    1.30    7.80
   3  22   9   -4.70    8.70
   3 -22   9   11.10    7.90
  -3  23  10    1.00    7.80
  -3  23   9    6.40    8.30
  -3  23   8    0.40    7.90
  -3 -23   8   21.40    5.90
  -3  23   7   13.30    8.20
  -3 -23   7   -3.60    5.50
  -3  23   6    3.50    7.80
  -3 -23   6   -2.20    5.80
  -3  23   5   23.10    8.80
  -3 -23   5   16.70    7.30
  -3  23   4   -9.40    6.70
  -3 -23   4    2.10    6.90
  -3  23   3   14.10    7.60
   3 -23  -3   29.20    9.40
  -3 -23   3    5.20    8.70
  -3 -23   3   10.60    7.50
  -3  23   2   15.30    7.50
  -3 -23   2    8.00    7.90
   3 -23  -2   18.10    8.30
   3 -23  -2    7.90    8.10
  -3 -23   2   11.90    7.60
   3  23  -1  -11.60    5.90
  -3  23   1   12.30    7.50
   3 -23  -1   -3.00    7.10
   3 -23  -1    4.30    7.80
  -3 -23   1    4.80    8.30
  -3 -23   1    5.10    7.50
  -3  23   0    6.10    7.70
   3  23   0   -3.00    6.30
   3  23   0    6.40    8.00
  -3 -23   0    4.30    7.90
   3 -23   0    5.10    8.30
  -3 -23   0    3.60    7.70
   3 -23   0   -7.40    7.70
   3  23   1    8.90    7.30
  -3  23  -1   -5.30    7.60
   3  23   1    7.70    7.30
  -3 -23  -1   14.30    9.50
   3 -23   1    8.10    8.40
  -3 -23  -1    5.60    8.40
   3 -23   1   17.80    9.70
   3  23   2    0.20    7.20
   3  23   2   18.00    8.10
  -3 -23  -2   20.00    8.30
  -3 -23  -2    8.80    7.80
   3 -23   2    9.00    7.40
   3 -23   2    0.50    9.80
   3  23   3   -5.60    8.10
  -3 -23  -3    1.30    8.80
   3 -23   3   -5.40    7.70
  -3 -23  -3    9.30    8.60
   3  23   4    0.00    7.70
   3 -23   4   12.50    8.40
   3  23   5   11.90    8.90
   3 -23   5   12.00    8.60
   3  23   6   -0.60    8.40
   3 -23   6  -10.70    7.60
   3  23   7  -13.40    8.50
   3 -23   7   15.20    8.50
   3  23   8    5.80    9.50
   3 -23   8  -12.00    7.80
   3  23   9    3.30    9.30
   3 -23   9    1.10    7.80
  -3  24  10    8.70    8.20
  -3  24   9    2.20    8.20
  -3  24   8   16.50    8.70
  -3 -24   8   19.50    6.10
  -3  24   7   13.60    8.40
  -3 -24   7    7.40    6.60
  -3  24   6   15.00    8.40
  -3 -24   6   33.50    7.70
  -3  24   5   -2.20    7.40
  -3 -24   5   10.50    7.30
  -3  24   4   15.60    8.90
  -3 -24   4    1.70    7.50
  -3  24   3   -3.50    7.80
   3 -24  -3   -8.90    8.10
  -3 -24   3   -0.80    7.20
  -3  24   2   11.60    8.90
   3 -24  -2    1.90    8.00
  -3 -24   2    1.60    8.70
  -3 -24   2   25.30    8.80
   3 -24  -2    0.10    8.10
  -3  24   1   34.10    9.40
  -3 -24   1   22.10    8.20
   3 -24  -1   17.90    8.80
   3 -24  -1   37.30    9.30
  -3 -24   1   21.50    9.80
   3  24   0   11.90    7.60
  -3  24   0   22.10    8.70
   3  24   0    7.50    7.40
  -3 -24   0    8.70    8.90
  -3 -24   0    7.10    8.30
   3 -24   0    1.20    8.90
   3 -24   0   23.30    9.40
  -3  24  -1  -14.00    7.60
   3  24   1    1.70    7.20
   3  24   1    5.60    7.40
   3 -24   1   -9.50    9.00
   3 -24   1   17.00    9.10
  -3 -24  -1    5.60    9.10
  -3 -24  -1   12.10    8.70
   3  24   2   -1.20    7.90
   3  24   2    5.60    7.60
   3 -24   2   -5.00    8.10
  -3 -24  -2    1.40    8.40
  -3 -24  -2   -5.60    8.90
   3  24   3    2.00    9.00
  -3 -24  -3    2.80    9.00
   3 -24   3  -10.50    7.60
   3  24   4   21.80    9.60
   3 -24   4   32.70    9.50
   3  24   5    4.60    8.50
   3 -24   5   18.80    8.90
   3  24   6   -2.10    8.30
   3 -24   6   19.10    9.10
   3  24   7   10.00    9.80
   3 -24   7   12.30    8.80
   3  24   8    0.50    9.40
   3 -24   8   -3.20    8.10
   3  24   9    4.20    9.90
   3 -24   9    3.40    7.80
  -3  25  10   13.50    8.70
  -3  25   9    2.70    8.30
  -3  25   8  -13.80    7.80
  -3 -25   8    7.50    6.00
  -3  25   7   -7.30    8.10
  -3 -25   7    9.40    6.70
  -3  25   6   -9.50    7.50
  -3 -25   6    9.80    7.10
  -3  25   5   11.20    8.50
  -3 -25   5    1.70    7.40
  -3  25   4    8.00    8.80
  -3 -25   4   15.60    7.90
  -3  25   3    4.00    8.00
   3 -25  -3  -11.90    7.00
  -3 -25   3   -8.00    7.10
  -3  25   2   -7.80    7.20
   3 -25  -2    3.90    8.50
  -3 -25   2   -5.80    7.10
   3 -25  -2   -5.60    8.40
  -3  25   1   -3.20    8.60
   3 -25  -1   14.30    9.40
   3 -25  -1   12.00    8.80
  -3 -25   1   -3.10    8.10
   3  25   0    9.70    8.70
  -3  25   0   12.90    9.00
   3  25   0   13.40    7.60
   3 -25   0    4.20    8.90
  -3 -25   0   17.10    8.90
   3 -25   0   24.80    9.70
   3  25   1    9.80    8.60
   3  25   1   -5.40    7.00
   3 -25   1   -7.20    9.40
   3 -25   1   19.90    9.40
  -3 -25  -1   13.50    8.10
   3  25   2  -13.80    7.20
   3 -25   2   20.40    9.40
  -3 -25  -2   -8.40    8.50
   3  25   3   -2.30    8.00
   3 -25   3    9.20    8.70
  -3 -25  -3    3.20    9.10
   3  25   4    5.70    8.10
   3 -25   4   -0.80    8.60
   3  25   5   -6.80    8.50
   3 -25   5   29.60    9.80
   3  25   6    4.40    8.50
   3 -25   6   -0.90    8.40
   3  25   7   17.60   10.20
   3 -25   7    2.00    8.70
   3  25   8   -8.90    9.70
   3 -25   8   -3.30    8.30
  -3  26   9    1.80    8.80
  -3  26   8  -13.20    7.80
  -3 -26   8   -0.10    5.80
  -3  26   7    2.30    8.40
  -3 -26   7   10.50    7.20
  -3  26   6    5.40    8.50
  -3 -26   6   33.00    8.40
  -3  26   5   15.20    9.30
  -3 -26   5    0.60    7.40
  -3  26   4   -4.60    7.40
  -3 -26   4   -8.50    7.30
  -3  26   3   10.90    9.00
   3 -26  -3    6.20    9.40
  -3 -26   3    8.90    7.90
  -3  26   2    8.80    8.70
   3 -26  -2    3.10    9.40
  -3 -26   2   13.90    8.80
   3 -26  -2   17.10    9.40
  -3  26   1  -14.80    6.80
   3 -26  -1   -6.30    8.80
  -3 -26   1   -5.10    7.90
   3 -26  -1   -5.50    8.60
  -3  26   0   16.10    9.40
   3  26   0   -5.90   10.30
   3  26   0    4.70    7.60
   3 -26   0   17.60    9.70
  -3 -26   0  -14.40    7.90
   3 -26   0   -1.90    9.10
   3  26   1   17.90    9.60
  -3 -26  -1    9.60    9.10
   3 -26   1   -2.80    9.00
   3  26   2    3.80    8.20
  -3 -26  -2    3.50    8.30
   3 -26   2    4.80    9.00
   3  26   3   12.30    8.70
  -3 -26  -3   -9.80    8.80
   3 -26   3    1.20    8.70
   3  26   4   -0.20    8.60
   3 -26   4   11.70    8.90
   3  26   5   14.70    9.60
   3 -26   5   -4.80    8.70
   3  26   6   14.00   10.20
   3 -26   6  -10.70    8.60
   3  26   7    5.00   10.10
   3 -26   7    6.50    9.20
   3  26   8   -2.60    9.30
   3 -26   8    2.90    8.60
  -3  27   9   -7.00    8.60
  -3  27   8   10.30    9.60
  -3 -27   8    6.20    6.50
  -3  27   7  -24.40    7.70
  -3 -27   7  -20.10    6.60
  -3  27   6    1.70    8.60
  -3 -27   6    0.50    7.40
  -3  27   5   -6.00    8.30
  -3 -27   5   -3.20    7.30
  -3  27   4  -11.90    7.90
  -3 -27   4    6.00    8.10
  -3  27   3   -2.80    8.60
  -3 -27   3   -3.80    7.60
   3 -27  -3   -0.80   10.80
  -3  27   2   10.40    9.40
  -3 -27   2   -1.60    8.10
   3 -27  -2    1.50    9.20
  -3  27   1  -12.00    8.50
   3 -27  -1   -7.30    8.40
  -3 -27   1    2.10    8.60
   3 -27  -1    9.30    9.60
  -3  27   0   -9.30    7.70
   3 -27   0    5.40    9.40
  -3 -27   0   -6.40    8.40
   3  27   1    3.20    9.00
  -3 -27  -1   10.00    9.60
   3 -27   1    7.10    9.50
   3  27   2   -6.80    8.20
  -3 -27  -2    7.30    9.80
   3 -27   2   21.70   10.10
   3  27   3    7.00    8.60
  -3 -27  -3  -10.50    8.90
   3 -27   3  -16.00    8.10
   3  27   4   -3.00    9.40
   3 -27   4    9.80    8.90
   3  27   5   -4.30    9.50
   3 -27   5    0.20    9.30
   3  27   6   14.50    9.90
   3 -27   6    8.00    9.30
   3  27   7  -19.10    9.10
   3 -27   7    0.70    8.90
   3  27   8    5.00   10.00
  -3  28   9   -2.60    8.80
  -3  28   8   11.70    9.30
  -3 -28   8    3.50    6.80
  -3  28   7   15.90    9.30
  -3 -28   7    8.00    7.50
  -3  28   6   -3.00    8.70
  -3 -28   6   14.10    8.20
  -3  28   5    5.40    9.50
  -3 -28   5    0.00    8.00
  -3  28   4   16.30   10.00
  -3 -28   4    7.10    8.40
  -3  28   3  -13.50    8.70
  -3 -28   3   -1.40    8.30
  -3  28   2   -1.20    8.70
   3 -28  -2    2.90    9.70
  -3 -28   2  -12.70    7.60
  -3  28   1   -1.00    8.00
  -3 -28   1   -3.50    8.20
   3 -28  -1  -23.30    8.80
  -3  28   0   18.00    9.50
  -3 -28   0   23.70    9.90
   3 -28   0    1.50    8.20
   3  28   1   -7.70    8.50
   3 -28   1   -1.80    9.50
  -3 -28  -1   -2.00    8.20
   3  28   2   10.40    9.80
   3 -28   2   -5.50    9.20
  -3 -28  -2    8.30    9.70
   3  28   3   -3.70    9.00
  -3 -28  -3   12.50    9.80
   3 -28   3    4.20    9.30
   3  28   4    3.80   10.10
   3 -28   4   10.20    9.70
   3  28   5   11.40   10.20
   3 -28   5    8.70    9.50
   3  28   6   -6.70    9.90
   3 -28   6   -3.80    9.40
   3  28   7    1.40    9.80
   3 -28   7    5.40    9.60
  -3  29   8    4.20    9.10
  -3 -29   8   11.00    7.30
  -3  29   7   12.70    9.50
  -3 -29   7    9.80    7.80
  -3  29   6    5.60    9.40
  -3 -29   6    5.60    8.20
  -3  29   5   -1.50    8.70
  -3 -29   5    8.30    8.50
  -3  29   4   -9.00    8.90
  -3 -29   4    4.40    8.40
  -3  29   3   -8.10    8.60
  -3 -29   3   14.00    9.20
  -3  29   2   -0.80    8.30
  -3 -29   2   14.30    9.30
   3 -29  -2   -0.60    8.60
  -3  29   1    5.30    9.20
   3 -29  -1    7.70    8.80
  -3 -29   1    1.10    8.70
  -3  29   0   15.10   10.30
   3 -29   0    8.50   10.20
  -3 -29   0    2.60    8.50
   3  29   1    8.90    9.70
   3 -29   1    2.40    9.30
  -3 -29  -1  -12.60    9.30
   3  29   2    4.60    9.70
  -3 -29  -2    0.60    8.70
   3 -29   2    7.80   10.30
   3  29   3  -22.70    9.20
   3 -29   3  -16.10    9.00
  -3 -29  -3   -2.10    9.60
   3  29   4   12.10   10.80
   3 -29   4    5.10    9.90
   3  29   5   18.30   10.30
   3 -29   5   -4.40    9.50
   3  29   6   -3.60    9.80
   3 -29   6   -6.40    8.90
   3  29   7    1.60   10.10
   3 -29   7    5.70    9.40
  -3  30   8  -18.10    8.20
  -3 -30   8   -0.50    7.30
  -3  30   7   11.40    9.10
  -3 -30   7   18.10    8.40
  -3  30   6   31.60   10.80
  -3 -30   6   19.70    9.10
  -3  30   5    8.30    9.90
  -3 -30   5    9.20    9.10
  -3  30   4    2.40    9.10
  -3 -30   4    2.50    8.80
  -3  30   3   -0.30    9.90
  -3 -30   3  -10.00    8.70
  -3  30   2   15.50    9.70
   3 -30  -2   38.00   11.40
  -3 -30   2   25.50   10.00
  -3  30   1   21.00   10.10
  -3 -30   1    9.00    9.50
   3 -30  -1   26.50   11.00
   3 -30   0   40.90   11.70
  -3 -30   0    2.10    9.90
   3  30   1   10.80   10.10
  -3 -30  -1    1.70    9.80
   3 -30   1   11.80    9.70
   3  30   2    3.20    9.90
   3 -30   2  -13.50    9.40
  -3 -30  -2    2.10   10.50
   3  30   3    5.50   10.80
   3 -30   3   -5.70    9.40
  -3 -30  -3   -3.10   10.00
   3  30   4   27.60   11.30
   3 -30   4   10.60   10.10
   3  30   5  -25.50    8.80
   3 -30   5    5.40   10.00
   3  30   6  -30.20    8.80
   3 -30   6    1.80    9.60
  -3  31   7    1.40    9.40
  -3 -31   7    5.30    8.40
  -3  31   6  -10.90    9.50
  -3 -31   6   -2.30    8.60
  -3  31   5    0.20    9.50
  -3 -31   5   -2.10    8.90
  -3  31   4    4.20    9.70
  -3 -31   4   -4.50    8.30
  -3  31   3    0.60    9.70
  -3 -31   3    4.30    9.10
  -3  31   2   17.90   10.90
  -3 -31   2  -11.00    8.90
   3 -31  -2   20.30   11.30
  -3  31   1   31.00    9.90
  -3 -31   1    9.90   10.10
   3 -31  -1   10.90    9.50
  -3 -31   0   17.20   10.90
   3 -31   0   20.10   10.60
  -3 -31  -1    5.70    9.30
   3 -31   1  -20.20    9.40
   3  31   2  -13.30    9.50
   3 -31   2   15.80   10.90
  -3 -31  -2   -8.10   10.10
   3  31   3    7.00   10.40
  -3 -31  -3   13.10   10.50
   3 -31   3   -4.20    9.90
   3  31   4   16.40   10.10
   3 -31   4    4.30   10.10
   3  31   5    5.00   10.80
   3 -31   5  -18.40    9.50
   3  31   6  -11.80   10.30
   3 -31   6    9.40   10.00
  -3  32   6   -0.70   10.40
  -3 -32   6    1.50    9.30
  -3  32   5  -22.20    8.80
  -3 -32   5    6.10    9.30
  -3  32   4   -4.60   10.40
  -3 -32   4    7.20    9.50
  -3  32   3  -14.30    9.30
  -3 -32   3   12.90   10.10
  -3  32   2   -9.20   10.10
   3 -32  -2   -4.70    9.00
  -3 -32   2   -9.90    9.40
  -3  32   1   18.70   10.80
  -3 -32   1   -4.90    9.90
   3 -32  -1   -5.00   10.40
  -3 -32   0   -1.20   10.30
   3 -32   0  -19.00    9.90
  -3 -32  -1    2.30   10.50
   3 -32   1   -9.40   10.30
   3  32   2   -2.50   10.60
  -3 -32  -2   -5.90    9.10
   3 -32   2    4.70    9.70
   3  32   3    9.60   11.30
  -3 -32  -3   -7.20    9.80
   3 -32   3   10.60   10.70
   3  32   4   -4.00   10.90
   3 -32   4  -11.30    9.20
   3  32   5   -5.70   10.60
   3 -32   5   -0.60   10.20
  -3  33   6   11.20   10.60
  -3 -33   6   -2.10    9.10
  -3  33   5   14.40   10.70
  -3 -33   5    5.20    9.40
  -3  33   4    5.10   11.00
  -3 -33   4    0.70    9.50
  -3  33   3   12.00   10.10
  -3 -33   3    6.30    9.80
  -3  33   2   21.90   11.50
  -3 -33   2   -7.80    9.60
   3 -33  -2   -1.30   10.50
  -3  33   1    6.10   10.60
  -3 -33   1   10.80   10.70
   3 -33  -1  -14.70   10.50
  -3 -33   0   26.90   11.90
   3 -33   0    0.40    9.50
   3 -33   1  -13.50    9.40
  -3 -33  -1   20.90   11.60
   3  33   2    3.80   10.40
   3 -33   2   -4.40   10.20
  -3 -33  -2    5.70   11.00
   3  33   3    1.00   10.40
   3 -33   3   -9.80    9.70
  -3 -33  -3   -8.90   10.80
   3  33   4   -9.10   10.00
   3 -33   4    0.10   10.10
  -3  34   5   -8.40    9.40
  -3 -34   5  -10.10    9.30
  -3  34   4   -9.40   10.10
  -3 -34   4   -1.90    9.70
  -3  34   3  -15.70    9.70
  -3 -34   3   -1.70    9.60
  -3  34   2   -5.50   10.10
   3 -34  -2    3.70   11.80
  -3 -34   2   11.90   10.30
  -3  34   1    6.90   10.10
  -3 -34   1   -4.10   10.40
   3 -34  -1   -5.30    9.70
   3 -34   0   -9.10   11.30
  -3 -34   0    1.20   11.10
   3 -34   1    9.10   11.60
  -3 -34  -1    6.40   11.10
   3  34   2    8.10   11.00
  -3 -34  -2  -14.70   10.50
   3 -34   2    7.80   10.80
   3  34   3    4.20   11.00
  -3 -34  -3    4.40   11.80
   3 -34   3   -2.30   10.00
  -3  35   4   -3.10    9.90
  -3 -35   4    4.00   10.80
  -3  35   3    1.40   11.10
  -3 -35   3   -2.10   10.30
  -3  35   2   -1.90   10.70
  -3 -35   2   13.60   11.10
   3 -35  -2    8.90   11.80
  -3 -35   1    3.80   10.90
   3 -35  -1  -10.60   11.20
  -3 -35   0   28.80   12.70
   3 -35   0   -1.30   10.60
  -3 -35  -1   16.20   12.30
   3 -35   1    7.60   10.80
  -3 -35  -2   -6.30   11.30
   3 -35   2   -3.80   10.10
  -3  36   2   -4.00    9.50
  -3 -36   2    6.20   11.10
   3 -36  -2   18.70   12.00
   3 -36  -1   10.30   12.10
  -3 -36   1   19.30   11.80
   3 -36   0  -18.20   11.10
  -3 -36   0    6.30   12.00
  -3 -36  -1   -2.30   11.10
   3 -36   1   18.80   12.20
  -4   0  13   -8.00   11.20
   4   0 -13  -12.40    3.30
  -4   0  12    4.60   11.00
   4   0 -12   18.10    3.40
  -4   0  11  -11.20    9.40
  -4   0  10    1.90    8.00
  -4   0   9   -7.90    7.10
  -4   0   8    4.00    7.80
  -4   0   7   -0.50    6.70
  -4   0   6    2.60    5.50
  -4   0   6    8.70    2.70
  -4   0   6   -4.20    3.30
  -4   0   6    1.70    5.80
  -4   0   5   -0.70    2.30
   4   0  -5   -1.60    2.30
  -4   0   5    3.80    3.00
  -4   0   5   -3.90    4.60
  -4   0   5    0.40    4.90
  -4   0   5   -0.20    2.20
   4   0  -4  264.17   11.10
  -4   0   4  267.07   11.10
   4   0  -4  271.67    6.90
  -4   0   4  263.47    6.80
  -4   0   4  257.57    7.10
   4   0  -4  272.07    5.90
  -4   0   3    0.90    4.20
  -4   0   3   -2.00    3.00
   4   0  -3   -5.60    4.20
  -4   0   3    1.00    2.50
   4   0  -3    1.20    2.50
  -4   0   2  150.38    7.60
   4   0  -2  148.29    7.80
  -4   0   2  134.49    6.30
  -4   0   1    4.70    3.70
  -4   0   1   -2.00    3.30
  -4   0   1   -0.30    3.70
  -4   0   0  659.63   14.10
  -4   0   0  655.33   16.10
   4   0   1   -4.10    4.70
   4   0   1   -7.00    4.10
   4   0   2 1947.51   38.20
   4   0   2 1979.30   39.60
  -4   0  -2 2071.99   37.20
  -4   0  -3    5.70    3.80
   4   0   3    0.50    4.20
   4   0   3    2.70    5.80
  -4   0  -4  193.38    8.70
   4   0   4  220.28   10.20
   4   0   4  190.78   12.10
   4   0   4  188.58    9.70
   4   0   5   -3.00    5.50
   4   0   5   -3.70    5.00
  -4   0  -5    3.20    4.30
   4   0   5   -6.00    6.50
   4   0   6  527.85   18.60
   4   0   6  620.54   21.30
   4   0   6  565.44   17.30
  -4   0  -6  556.24   16.20
   4   0   7   -2.30    6.80
   4   0   7    3.70    5.80
  -4   0  -7    0.60    5.20
   4   0   7   -7.60    7.90
   4   0   8    8.70    8.40
   4   0   8   -5.50    5.70
  -4   0  -8   -0.80    5.40
  -4   0  -9    7.90    6.50
   4   0   9   11.50    9.10
   4   0   9  -10.40    6.10
   4   0  10    2.00    6.30
   4   0  10   12.00    6.40
  -4   0 -10  -15.20    5.90
  -4   0 -11   -1.90    7.50
  -4   1  13    0.80   11.90
   4   1 -13   10.00    3.60
   4  -1 -13   10.60    4.10
  -4  -1  13   12.60   12.00
  -4   1  12   -8.10   10.00
  -4  -1  12   17.50   10.90
   4  -1 -12   -2.40    3.00
  -4   1  11   10.00   10.20
   4  -1 -11   -3.10    2.40
  -4  -1  11    2.30    9.60
  -4   1  10   15.90    9.50
  -4  -1  10    5.90    8.30
  -4   1   9   15.90    9.10
  -4  -1   9    4.60    8.60
  -4   1   8   74.09   10.10
  -4  -1   8   72.29   10.00
  -4   1   7   16.30    4.50
  -4   1   7   24.60    7.40
  -4  -1   7   20.90    6.90
  -4  -1   7   15.10    7.40
  -4   1   6    3.50    3.70
  -4   1   6   -2.20    5.60
  -4   1   6    8.40    5.70
  -4  -1   6   10.70    5.80
  -4  -1   6    8.50    3.10
  -4  -1   6    2.80    6.00
  -4  -1   6    8.20    3.30
  -4   1   5   28.70    4.10
  -4   1   5   16.70    5.10
  -4   1   5   23.40    2.60
   4   1  -5   30.70    3.30
  -4   1   5   22.10    2.10
  -4   1   5   11.40    5.30
   4  -1  -5   16.80    2.10
  -4  -1   5   20.90    3.10
  -4  -1   5   24.70    5.60
  -4  -1   5   20.90    3.10
  -4  -1   5   20.10    5.80
   4   1  -4    2.90    2.60
  -4   1   4   -3.00    2.50
  -4   1   4    1.30    5.20
  -4   1   4    1.40    4.40
   4   1  -4    2.10    4.70
  -4   1   4    4.20    1.80
   4   1  -4   -1.00    1.50
  -4  -1   4   -0.80    2.50
  -4  -1   4   -4.00    4.50
   4  -1  -4    2.60    1.80
   4  -1  -4    0.10    4.60
  -4  -1   4   -3.60    2.40
   4   1  -3  186.68    5.60
   4   1  -3  177.68    6.60
  -4   1   3  194.98    6.60
   4   1  -3  186.68    9.20
  -4   1   3  183.78    5.60
  -4   1   3  183.98    8.90
   4  -1  -3  175.18    8.80
  -4  -1   3  190.38    7.60
  -4  -1   3  177.38    6.50
  -4  -1   3  174.58    8.90
  -4   1   2   73.89    5.50
  -4   1   2   70.29    5.00
   4   1  -2   63.59    5.50
  -4  -1   2   67.39    4.70
  -4  -1   2   68.59    5.60
   4  -1  -2   65.49    5.50
  -4   1   1  250.67    8.10
  -4  -1   1  256.37    8.60
  -4  -1   1  242.98    8.70
  -4  -1   1  252.17    8.30
   4  -1  -1  242.38    8.50
  -4   1   0 1423.56   25.90
  -4  -1   0 1419.16   28.40
  -4  -1   0 1417.26   28.10
   4   1   1  122.79    7.50
  -4   1  -1  119.79    6.60
   4   1   1  122.39    8.80
   4  -1   1  102.99    7.20
   4   1   2   43.20    6.10
   4   1   2   36.60    6.10
  -4   1  -2   40.50    4.80
  -4  -1  -2   40.20    4.40
   4  -1   2   38.60    6.30
   4  -1   2   44.80    6.10
  -4   1  -3  115.69    7.00
   4   1   3  113.69    8.10
   4   1   3  132.99   10.30
  -4  -1  -3  130.49    7.10
   4  -1   3  117.29    8.10
   4  -1   3  131.29   10.10
   4   1   4  124.89    8.50
   4   1   4  152.18    9.10
   4   1   4  145.79   11.60
  -4   1  -4  138.19    8.10
   4  -1   4  135.79    8.80
  -4  -1  -4  137.99    7.70
   4  -1   4  115.79    9.80
   4   1   5   27.20    6.20
  -4   1  -5   29.20    5.10
   4   1   5   34.90    6.70
   4   1   5   19.00    7.50
   4  -1   5   33.50    8.10
   4  -1   5   20.60    5.80
  -4  -1  -5   23.50    5.10
  -4   1  -6   85.29    7.30
   4   1   6   74.89   10.10
   4   1   6   91.19    8.60
   4   1   6   63.59    8.80
  -4  -1  -6   57.09    6.60
   4  -1   6   68.49    7.80
   4  -1   6   86.69    9.20
   4  -1   6   81.39   10.20
  -4   1  -7   39.00    6.50
   4   1   7   37.70    9.50
   4   1   7   48.20    7.50
   4   1   7   36.70    8.30
  -4  -1  -7   54.59    7.10
   4  -1   7   43.10    8.80
   4  -1   7   46.30    7.40
   4  -1   7   42.20    9.60
   4   1   8   -1.70    7.70
  -4   1  -8   -3.80    5.40
   4   1   8    1.10    6.10
  -4  -1  -8   -5.50    5.60
   4  -1   8    4.30    6.10
   4  -1   8   -2.70    7.70
  -4   1  -9   -7.40    5.80
   4   1   9    4.30    6.30
  -4  -1  -9    7.30    6.20
   4  -1   9  -10.20    5.90
   4  -1   9   -5.80    7.90
   4   1  10    2.90    6.30
  -4   1 -10    1.70    6.60
   4  -1  10  -10.30    5.70
  -4  -1 -10   -1.60    6.70
  -4   1 -11    0.00    7.20
  -4  -1 -11    0.80    7.20
  -4   2  13    5.40   11.60
   4   2 -13    4.00    3.20
  -4  -2  13    9.20   10.40
   4  -2 -13   16.40    4.40
  -4   2  12   -8.90   10.50
   4  -2 -12   -4.40    3.40
  -4  -2  12    1.70   10.60
  -4   2  11   -8.00    9.00
   4  -2 -11   -3.00    2.80
  -4  -2  11  -12.80    7.90
  -4   2  10   -4.50    9.00
   4  -2 -10   -2.60    2.00
  -4  -2  10    5.20    8.40
  -4   2   9   -4.70    8.10
  -4  -2   9   -9.80    7.10
  -4   2   8   -2.70    7.40
  -4  -2   8   18.20    8.30
  -4   2   7   38.20    5.50
  -4   2   7   29.00    7.50
  -4  -2   7   31.60    7.40
  -4  -2   7   27.80    7.20
  -4   2   6   41.70    2.60
  -4   2   6   32.10    6.50
  -4   2   6   43.60    5.20
  -4  -2   6   46.40    4.30
  -4  -2   6   37.00    3.70
  -4  -2   6   34.40    6.70
  -4  -2   6   35.00    6.60
  -4   2   5  145.79    7.20
  -4   2   5  155.48    9.60
  -4   2   5  140.69    9.60
   4   2  -5  146.19    6.50
  -4   2   5  147.39    5.30
   4  -2  -5  144.59    4.00
  -4  -2   5  146.19    5.30
  -4  -2   5  148.99    9.70
  -4  -2   5  138.99    6.30
   4  -2  -5  139.69    4.00
  -4  -2   5  145.79    9.70
  -4   2   4   84.49    6.60
   4   2  -4   79.39    7.00
  -4   2   4   72.09    6.80
  -4   2   4   69.89    4.70
   4   2  -4   79.99    5.50
   4   2  -4   70.29    2.70
   4  -2  -4   75.59    3.90
  -4  -2   4   58.29    6.10
  -4  -2   4   78.39    4.20
   4  -2  -4   66.49    6.40
  -4  -2   4   71.49    5.20
  -4   2   3  276.47   10.30
   4   2  -3  275.87    7.00
  -4   2   3  281.67    8.40
  -4   2   3  280.97    6.60
   4   2  -3  288.27    8.40
   4   2  -3  269.67   10.70
  -4  -2   3  274.97   10.60
   4  -2  -3  279.47   10.30
  -4  -2   3  261.77    7.90
  -4  -2   3  288.77    8.30
  -4   2   2   55.69    5.70
  -4   2   2   60.39    4.60
   4   2  -2   54.09    4.60
   4   2  -2   64.29    5.70
  -4   2   2   58.39    4.10
  -4   2   2   53.39    5.10
  -4  -2   2   57.39    4.00
  -4  -2   2   53.89    4.60
  -4  -2   2   43.20    5.20
   4  -2  -2   58.39    5.30
  -4   2   1   14.90    3.80
  -4   2   1   17.20    3.50
  -4  -2   1   22.40    4.10
  -4  -2   1   16.80    4.30
  -4  -2   1   27.20    4.10
   4  -2  -1   18.90    3.60
   4   2   0   60.99    5.80
  -4   2   0   56.79    3.70
  -4  -2   0   58.99    5.60
  -4  -2   0   57.19    5.80
   4   2   1 1155.18   24.90
  -4   2  -1 1199.58   23.40
   4   2   1 1174.38   25.40
  -4   2  -1 1165.08   21.10
   4  -2   1 1189.18   25.00
  -4   2  -2   71.19    5.60
   4   2   2   73.49    7.40
   4   2   2   72.69    7.00
  -4  -2  -2   74.19    5.70
   4  -2   2   64.79    6.50
   4   2   3    7.00    5.00
  -4   2  -3    0.40    3.70
   4   2   3    4.20    5.10
   4  -2   3    1.70    4.60
  -4  -2  -3    0.10    3.50
  -4   2  -4   37.80    5.10
   4   2   4   42.60    6.70
   4   2   4   43.20    7.70
   4   2   4   53.09    7.00
  -4   2  -4   41.90    4.00
   4  -2   4   43.60    7.80
   4  -2   4   40.10    5.90
  -4  -2  -4   26.80    4.70
   4   2   5  212.78   10.50
   4   2   5  192.78   13.30
   4   2   5  198.48   10.90
  -4   2  -5  195.28    9.50
  -4  -2  -5  198.98    9.60
   4  -2   5  188.48   10.40
   4  -2   5  189.38   13.20
   4   2   6   42.00    7.00
   4   2   6   29.60    7.10
   4   2   6   37.80    8.80
  -4   2  -6   25.70    5.60
   4  -2   6   29.00    8.70
  -4  -2  -6   20.10    5.40
   4  -2   6   40.20    6.90
   4   2   7    5.10    7.40
   4   2   7   -6.50    7.80
  -4   2  -7   -4.30    5.10
   4   2   7    6.90    6.00
  -4  -2  -7   -1.90    5.30
   4  -2   7    2.90    5.90
   4  -2   7   -5.70    6.90
   4  -2   7  -10.80    7.80
   4   2   8    2.80    6.10
  -4   2  -8    7.20    5.90
   4   2   8    4.80    7.90
  -4  -2  -8  -16.60    5.30
   4  -2   8    8.80    6.30
   4  -2   8    9.90    8.50
  -4   2  -9    0.20    6.00
   4   2   9   -2.80    6.10
   4  -2   9   -0.20    9.10
  -4  -2  -9   12.10    6.50
   4  -2   9   -4.60    6.00
   4  -2   9    3.20    6.10
   4   2  10  -10.20    6.10
  -4   2 -10  -12.50    5.90
   4  -2  10   -4.70    5.90
  -4  -2 -10   -9.70    6.40
  -4   2 -11   -6.60    7.00
  -4  -2 -11   10.20    7.20
  -4   3  13   11.50   11.70
   4   3 -13    1.80    2.90
  -4  -3  13    2.00   10.50
   4  -3 -13    1.30    4.40
  -4   3  12   -8.20    9.30
   4  -3 -12    1.00    3.90
  -4  -3  12   -5.40   10.10
  -4   3  11   14.30    9.50
   4  -3 -11    5.20    3.30
  -4  -3  11   -3.70    9.90
  -4   3  10   -3.40    8.90
   4  -3 -10    0.10    2.70
  -4  -3  10   -3.90    7.80
  -4   3   9   26.30    8.50
   4  -3  -9   27.90    2.60
  -4  -3   9   30.30   10.10
  -4   3   8   45.80    8.40
   4  -3  -8   53.29    2.80
  -4  -3   8   60.09   10.00
  -4   3   7   47.90    6.10
  -4   3   7   33.00    7.20
  -4  -3   7   51.19    8.10
  -4  -3   7   44.40    8.60
  -4   3   6    1.30    2.30
  -4   3   6   -7.10    5.60
  -4   3   6    1.40    4.20
  -4  -3   6    0.90    3.60
  -4  -3   6    1.50    4.70
   4  -3  -6    0.10    1.60
  -4  -3   6    4.60    6.10
  -4  -3   6   -2.10    2.50
   4  -3  -6    0.80    1.80
  -4   3   5    4.60    5.40
  -4   3   5   10.60    4.10
  -4   3   5   11.70    2.90
   4   3  -5    7.10    3.50
   4  -3  -5    8.90    2.10
   4  -3  -5    5.10    2.10
  -4  -3   5   -0.30    5.00
  -4  -3   5    9.10    3.40
  -4  -3   5    8.70    2.10
  -4  -3   5    8.40    5.10
  -4   3   4  205.88    9.70
   4   3  -4  194.68   10.20
  -4   3   4  202.78    7.00
   4   3  -4  196.08    7.50
   4   3  -4  203.88    4.60
  -4   3   4  206.88   10.00
  -4  -3   4  209.68    7.70
  -4  -3   4  193.48   10.00
   4  -3  -4  203.38    6.00
  -4  -3   4  195.18    6.10
   4  -3  -4  207.68   10.20
  -4   3   3   95.69    5.80
   4   3  -3   80.89    6.50
  -4   3   3   91.99    3.70
   4   3  -3   91.39    4.50
  -4   3   3   86.89    3.70
   4   3  -3   82.89    5.80
  -4   3   3   99.89    7.40
  -4  -3   3   85.99    5.20
  -4  -3   3   94.49    7.10
  -4  -3   3   84.59    5.80
  -4  -3   3   86.39    4.00
   4  -3  -3   89.39    6.60
  -4   3   2  455.35   10.50
  -4   3   2  442.36   11.50
   4   3  -2  462.85   11.90
  -4   3   2  447.46   12.20
  -4  -3   2  441.96   10.30
  -4  -3   2  470.45   12.90
  -4  -3   2  464.65   12.00
   4  -3  -2  435.66   11.90
  -4  -3   2  442.36   11.50
  -4   3   1  148.59    7.00
  -4   3   1  146.49    6.50
   4   3  -1  159.18    7.20
  -4  -3   1  168.38    8.00
   4  -3  -1  142.59    6.60
  -4  -3   1  151.28    7.00
  -4  -3   1  143.09    7.80
  -4   3   0  364.56    8.50
   4   3   0  376.16   11.40
  -4  -3   0  366.66   11.90
  -4  -3   0  363.86   11.10
   4   3   1    3.50    4.90
  -4   3  -1    5.10    3.60
   4   3   1    2.20    5.10
  -4   3  -1   -0.30    1.80
   4  -3   1   -2.10    4.30
  -4  -3  -1   -6.80    4.70
   4   3   2  185.08   10.80
   4   3   2  203.28    9.70
   4  -3   2  178.18    9.40
  -4  -3  -2  192.68    8.30
  -4  -3  -2  186.18    9.80
   4   3   3  217.78   10.30
  -4   3  -3  243.68    9.00
  -4   3  -3  226.98    6.20
   4   3   3  243.98   12.30
  -4  -3  -3  232.18    9.30
   4  -3   3  227.28   10.30
  -4   3  -4  202.48    8.80
   4   3   4  191.68   11.50
   4   3   4  209.78   10.30
  -4   3  -4  206.88    6.90
   4  -3   4  202.98   10.10
  -4   3  -5    6.30    4.20
   4   3   5    4.20    5.50
   4   3   5    3.20    5.50
   4   3   5    4.00    7.30
  -4  -3  -5    5.00    4.50
   4  -3   5   10.70    5.60
   4   3   6   -1.60    5.70
  -4   3  -6   -3.50    4.60
   4   3   6   15.60    6.70
   4   3   6   14.60    7.90
   4  -3   6    3.80    5.70
  -4  -3  -6    2.60    5.10
   4   3   7   48.30   10.40
   4   3   7   60.79    8.80
  -4   3  -7   39.60    6.20
   4   3   7   57.89    7.70
   4  -3   7   57.19    7.80
  -4  -3  -7   57.99    7.40
   4  -3   7   66.49    9.20
  -4   3  -8   -5.90    5.20
   4   3   8   -1.90    8.30
   4   3   8   -5.70    6.10
   4  -3   8   -2.40    6.00
   4  -3   8  -11.00    7.50
   4  -3   8    7.70    6.20
  -4  -3  -8    5.30    5.90
  -4   3  -9    7.80    6.10
   4   3   9    4.60    6.50
  -4  -3  -9    2.50    6.30
   4  -3   9    9.10    6.40
   4  -3   9    3.80    8.90
  -4   3 -10    5.20    6.60
   4   3  10   -5.50    6.50
   4  -3  10   -4.00    6.10
   4  -3  10    6.50   11.30
  -4  -3 -10    0.20    6.50
  -4   3 -11   -8.40    6.60
   4   3  11   -5.90   10.90
  -4  -3 -11    6.80    7.50
  -4   4  13    2.30   11.60
  -4  -4  13    5.60   10.70
   4  -4 -13   -1.60    4.70
  -4   4  12   -3.30   11.00
  -4  -4  12    3.40    9.80
   4  -4 -12    4.90    4.20
  -4   4  11    6.60    9.10
   4  -4 -11    9.70    3.90
  -4  -4  11   -5.90    8.60
  -4   4  10   -4.70    8.00
   4  -4 -10   -2.10    3.10
  -4  -4  10   22.10    9.60
  -4   4   9   -0.50    8.30
  -4  -4   9    8.70    9.00
   4  -4  -9    4.70    2.90
  -4   4   8   -8.60    7.40
  -4  -4   8   -9.30    7.60
   4  -4  -8    1.30    2.50
  -4   4   7   38.10    6.10
  -4   4   7   36.30    2.70
  -4   4   7   33.90    7.30
  -4  -4   7   41.40    7.40
   4  -4  -7   35.00    3.00
  -4  -4   7   50.29    8.80
  -4  -4   7   36.00    8.00
  -4   4   6    2.60    2.70
  -4   4   6   -1.00    4.30
  -4   4   6    7.40    6.20
  -4  -4   6    4.70    5.30
  -4  -4   6    4.80    5.60
  -4  -4   6    1.90    3.90
   4  -4  -6    6.60    2.40
  -4   4   5   35.10    3.80
  -4   4   5   35.00    6.50
  -4   4   5   39.40    5.20
  -4  -4   5   34.00    5.80
   4  -4  -5   35.10    3.10
  -4  -4   5   33.80    4.40
   4   4  -4  230.08   10.00
   4   4  -4  221.98    8.30
  -4   4   4  212.48    7.50
   4   4  -4  209.68    5.10
  -4   4   4  219.38    9.40
  -4  -4   4  214.28    8.30
  -4  -4   4  211.28    6.30
  -4  -4   4  208.68   10.30
   4  -4  -4  221.48   10.30
   4   4  -3  220.88    6.40
   4   4  -3  238.08   10.30
  -4   4   3  223.28    7.80
   4   4  -3  229.28    8.30
  -4   4   3  217.08    5.50
  -4   4   3  210.78    5.40
   4  -4  -3  212.78    9.80
  -4  -4   3  228.18    5.50
  -4  -4   3  219.18    8.40
  -4  -4   3  222.48    7.20
  -4  -4   3  210.78    9.80
  -4   4   2   99.29    6.30
  -4   4   2   78.99    6.20
   4   4  -2  101.29    7.10
  -4   4   2   94.99    5.30
  -4  -4   2   81.09    4.80
  -4  -4   2   83.09    6.60
   4  -4  -2   90.29    6.90
  -4  -4   2   84.59    5.90
  -4  -4   2  100.49    6.90
  -4   4   1  349.07   10.50
  -4   4   1  338.27    9.10
  -4   4   1  348.17   10.10
   4   4  -1  329.27   10.00
  -4  -4   1  359.06   10.50
  -4  -4   1  354.76   11.20
   4  -4  -1  335.17    9.30
  -4  -4   1  345.67    9.90
  -4   4   0   46.00    3.10
   4   4   0   48.10    5.70
   4  -4   0   45.50    3.10
  -4  -4   0   40.00    5.00
  -4  -4   0   43.70    6.20
  -4  -4   0   52.19    6.00
   4   4   1   38.70    5.40
   4   4   1   47.80    6.10
   4  -4   1   48.40    5.70
  -4  -4  -1   41.80    6.20
   4  -4   1   40.40    5.80
   4   4   2  194.78    9.80
   4   4   2  210.08   10.60
   4  -4   2  203.88   10.70
  -4  -4  -2  191.28    8.40
  -4  -4  -2  203.08   10.80
   4  -4   2  192.58    9.50
   4   4   3    0.50    5.40
   4   4   3    0.30    5.00
  -4   4  -3    2.40    1.70
  -4  -4  -3    9.90    5.70
   4  -4   3    2.10    4.80
  -4  -4  -3    3.90    3.70
   4   4   4   36.70    6.40
   4   4   4   52.19    8.00
   4   4   4   50.99    6.90
  -4  -4  -4   40.80    5.30
   4  -4   4   39.20    6.30
   4   4   5  -14.10    6.30
   4   4   5   -3.50    5.30
   4   4   5    5.00    5.80
  -4  -4  -5    2.40    4.50
   4  -4   5   -8.40    4.80
   4   4   6  138.49   10.30
   4   4   6  143.49   11.30
   4   4   6  140.79   12.40
  -4   4  -6  140.39    9.30
  -4  -4  -6  148.39    9.90
   4  -4   6  161.28   10.70
  -4   4  -7   11.80    5.70
   4   4   7   16.60    6.50
   4   4   7   13.10    8.90
   4   4   7    4.00    7.20
  -4  -4  -7   17.30    5.70
   4  -4   7    3.60    6.00
   4  -4   7   24.00    6.50
  -4   4  -8    9.20    5.70
   4   4   8   17.90    6.80
  -4  -4  -8   16.80    9.20
   4  -4   8   14.50    8.40
   4  -4   8   21.60    6.60
  -4  -4  -8   15.00    6.40
  -4   4  -9   11.40    6.40
   4   4   9    5.20    6.50
  -4  -4  -9   -1.50    6.40
   4  -4   9    6.90    6.20
   4  -4   9    7.20    9.50
   4   4  10   -7.80    6.20
  -4   4 -10    4.60    6.60
  -4  -4 -10    3.10    7.00
   4  -4  10  -16.70    8.70
   4  -4  10    4.00    6.20
   4   4  11   -8.40    6.40
  -4   4 -11   -2.30    6.80
  -4  -4 -11    1.30    7.00
  -4   5  13   18.60   11.50
   4  -5 -13    4.40    5.10
  -4  -5  13  -14.50   10.70
  -4   5  12   -4.50   10.10
  -4  -5  12    3.70   10.50
   4  -5 -12    2.40    4.60
  -4   5  11   -5.00    8.60
  -4  -5  11  -14.70    9.80
   4  -5 -11    6.00    4.10
  -4   5  10   -0.70    9.40
  -4  -5  10   -7.60    9.10
   4  -5 -10    5.30    3.70
  -4   5   9   75.19   11.30
   4  -5  -9   66.59    4.70
  -4  -5   9   79.59   11.50
  -4   5   8   98.99   11.60
  -4   5   8  105.29   10.10
   4  -5  -8   95.39    5.50
  -4  -5   8   96.69   10.50
  -4   5   7   38.90    3.50
  -4   5   7   37.10    8.40
  -4   5   7   33.20    6.40
  -4  -5   7   33.40    6.80
  -4  -5   7   51.09    8.70
   4  -5  -7   38.10    3.50
  -4  -5   7   32.30    5.40
  -4   5   6  146.49    6.40
  -4   5   6  145.69   10.20
  -4   5   6  141.99    9.50
  -4  -5   6  147.59   10.70
  -4  -5   6  142.89    8.30
   4  -5  -6  155.18    5.90
  -4   5   5    2.60    4.40
  -4   5   5    5.10    3.20
  -4   5   5    0.40    5.60
  -4  -5   5    4.80    4.80
  -4  -5   5    1.30    1.80
  -4  -5   5    0.60    3.70
  -4   5   4    8.90    5.20
   4   5  -4    5.20    5.40
  -4   5   4    4.80    3.30
   4   5  -4    4.70    1.90
   4  -5  -4   -2.30    4.70
  -4  -5   4    0.40    3.70
  -4  -5   4   -1.50    4.60
  -4  -5   4    8.60    2.60
  -4   5   3  523.45   10.40
  -4   5   3  517.95   13.20
   4   5  -3  540.45   11.40
  -4  -5   3  523.05   12.30
  -4  -5   3  535.35   10.00
   4  -5  -3  534.25   14.60
  -4  -5   3  536.65   15.00
  -4  -5   3  549.54   13.80
  -4   5   2  154.58    7.50
   4   5  -2  166.28    6.20
  -4   5   2  186.18    6.60
  -4  -5   2  177.78    6.00
  -4  -5   2  175.38    7.40
  -4  -5   2  175.18    8.20
   4  -5  -2  179.38    7.70
  -4  -5   2  173.08    8.90
  -4   5   1   91.89    6.40
   4   5  -1  101.99    6.40
  -4   5   1   92.09    6.30
   4  -5  -1  100.09    6.40
  -4  -5   1  101.79    6.00
  -4  -5   1   91.49    6.60
  -4  -5   1  104.89    7.50
   4  -5  -1   90.99    5.70
   4   5   0   69.29    5.70
  -4  -5   0   49.60    6.10
  -4  -5   0   59.99    5.50
   4  -5   0   50.69    3.90
  -4  -5   0   55.29    5.90
   4  -5   0   52.49    5.50
   4   5   1  230.08   10.10
   4   5   1  216.38   10.00
   4  -5   1  224.38   10.10
  -4  -5  -1  214.38    9.10
   4  -5   1  220.48   10.60
  -4  -5  -1  213.38   10.60
   4   5   2  176.18    9.50
   4   5   2  168.38   10.30
   4  -5   2  175.08   10.80
  -4  -5  -2  163.48   10.40
  -4  -5  -2  179.18    8.80
  -4  -5  -2  187.08    8.10
   4  -5   2  179.98    9.40
   4   5   3  187.58    9.30
   4   5   3  179.38   11.40
   4  -5   3  200.08   12.30
   4  -5   3  197.68    9.80
  -4  -5  -3  202.28   11.50
  -4  -5  -3  203.28    8.60
  -4  -5  -3  201.58   10.70
   4   5   4    5.10    4.80
   4   5   4    5.30    5.10
   4   5   4    7.30    6.50
   4  -5   4    0.60    5.00
  -4  -5  -4    4.70    4.30
   4  -5   4   24.10    7.40
  -4  -5  -4    8.10    5.80
  -4  -5  -4    9.90    6.40
   4   5   5  158.58   11.70
   4   5   5  153.98    9.50
   4   5   5  150.38   10.30
  -4  -5  -5  169.98    9.20
   4  -5   5  154.58   10.40
  -4  -5  -5  169.08   12.10
   4   5   6  297.47   13.60
   4   5   6  296.87   13.80
   4   5   6  304.97   16.60
  -4  -5  -6  317.97   16.30
  -4  -5  -6  297.17   12.40
   4  -5   6  296.47   12.70
   4  -5   6  280.47   12.40
   4   5   7   11.90    6.60
  -4   5  -7   13.30    5.70
   4   5   7   19.20    7.90
   4   5   7   18.90    9.50
   4  -5   7   22.30    6.40
  -4  -5  -7   29.00    6.20
  -4  -5  -7    4.00    7.80
   4   5   8    0.80    6.20
  -4   5  -8    0.90    5.60
  -4  -5  -8    1.50    8.10
  -4  -5  -8   -3.20    5.80
   4  -5   8    0.70    6.10
   4   5   9   -9.90    6.20
  -4   5  -9   -3.30    5.90
  -4  -5  -9   -3.40    5.80
   4  -5   9   -6.80    8.40
   4  -5   9    5.90    6.00
  -4   5 -10   -0.60    6.70
   4   5  10   -2.00    6.50
  -4  -5 -10    7.20    6.90
   4  -5  10    3.90    6.00
   4  -5  10   -2.90    9.50
   4   5  11   12.40    7.20
  -4   5 -11   13.00    7.30
  -4  -5 -11    6.70    7.60
  -4   6  13    4.20   11.70
  -4  -6  13  -12.20   11.10
   4  -6 -13    0.60    5.40
  -4   6  12   -8.00   10.00
  -4  -6  12  -15.90    9.70
   4  -6 -12   -0.20    4.90
  -4   6  11    8.60    9.90
  -4  -6  11    9.30   10.50
   4  -6 -11    5.40    4.50
  -4   6  10   10.40   10.10
   4  -6 -10    6.30    4.10
  -4  -6  10   -8.10    9.10
  -4   6   9   39.20    9.20
  -4  -6   9   38.00    9.20
   4  -6  -9   47.80    4.60
  -4   6   8   78.59   11.10
  -4   6   8   68.29    8.20
  -4  -6   8   78.59   10.60
   4  -6  -8   70.79    4.90
  -4   6   7   31.40    3.80
  -4   6   7   22.00    8.10
  -4   6   7   28.60    6.40
  -4  -6   7   44.90    9.50
   4  -6  -7   25.50    3.80
  -4  -6   7   27.50    5.60
  -4   6   6   84.09    5.90
  -4   6   6  105.29    9.30
  -4   6   6   92.09    7.70
   4  -6  -6   83.99    5.40
  -4  -6   6  106.39    9.00
  -4  -6   6   86.09    6.90
  -4   6   5   43.60    4.60
  -4   6   5   42.20    7.20
  -4  -6   5   38.20    5.20
  -4  -6   5   37.60    6.20
  -4  -6   5   50.69    3.30
   4   6  -4   44.90    3.00
  -4   6   4   33.80    5.50
  -4   6   4   50.09    4.90
   4   6  -4   37.30    6.40
  -4  -6   4   39.30    3.60
  -4  -6   4   40.90    5.10
   4  -6  -4   39.80    5.70
  -4  -6   4   40.10    6.00
  -4   6   3   14.90    2.40
   4   6  -3   18.70    3.60
  -4   6   3   15.70    4.00
  -4  -6   3   18.00    5.20
  -4  -6   3   13.50    3.60
  -4  -6   3   10.20    4.40
   4  -6  -3   12.90    4.60
   4   6  -2   14.80    3.10
  -4   6   2    9.50    4.30
  -4   6   2   11.40    3.20
   4  -6  -2    8.50    3.30
  -4  -6   2   17.90    3.90
   4  -6  -2   15.70    4.10
  -4  -6   2   11.90    4.60
  -4  -6   2   18.00    3.00
  -4  -6   2   11.70    4.80
   4   6  -1  574.44   13.50
  -4   6   1  554.34   14.30
  -4   6   1  578.04   13.80
   4  -6  -1  559.84   12.80
   4  -6  -1  548.05   13.90
  -4  -6   1  570.54   14.20
  -4  -6   1  549.05   13.30
  -4  -6   1  571.14   15.30
   4   6   0   32.90    5.20
  -4   6   0   42.40    5.60
   4  -6   0   44.40    5.60
  -4  -6   0   41.40    5.90
  -4  -6   0   48.30    5.70
   4  -6   0   40.90    3.00
   4   6   1  288.47   10.80
   4   6   1  297.67   11.30
  -4  -6  -1  286.77   11.90
  -4  -6  -1  260.67   10.70
   4  -6   1  274.57   11.60
   4  -6   1  279.17   11.20
   4  -6   1  288.77   11.10
   4   6   2    9.10    5.30
   4   6   2   15.80    5.50
  -4  -6  -2    0.90    5.40
   4  -6   2   10.60    4.60
  -4  -6  -2    5.40    4.40
   4  -6   2   11.50    5.90
   4  -6   2   11.00    4.70
  -4  -6  -2   17.10    4.20
   4   6   3    7.60    5.70
   4   6   3   15.40    5.60
  -4  -6  -3   13.20    4.40
   4  -6   3   11.40    5.20
  -4  -6  -3    7.10    5.90
   4  -6   3   15.60    6.80
   4  -6   3    8.70    5.30
  -4  -6  -3   12.10    4.90
   4   6   4  267.17   13.90
   4   6   4  271.57   11.80
   4   6   4  230.08   10.20
   4  -6   4  255.17   11.30
  -4  -6  -4  241.78   13.40
  -4  -6  -4  235.38   10.90
   4  -6   4  248.38   11.20
   4  -6   4  268.07   13.80
  -4  -6  -4  271.37   10.50
   4   6   5  232.28   14.80
   4   6   5  254.97   11.70
   4   6   5  250.77   12.00
  -4  -6  -5  239.58   10.70
   4  -6   5  261.57   11.60
   4  -6   5  256.67   14.50
  -4  -6  -5  272.17   14.60
   4  -6   5  239.68   11.50
   4   6   6   10.50    7.90
   4   6   6    5.50    6.40
   4   6   6    5.00    6.00
  -4  -6  -6   10.20    5.30
  -4  -6  -6   14.80    7.50
   4  -6   6   14.90    6.00
   4   6   7    1.10    6.30
   4   6   7   -2.00    9.20
  -4  -6  -7    8.00    8.10
  -4  -6  -7   -0.70    5.20
   4  -6   7    6.00    6.10
   4   6   8    6.80    6.70
  -4   6  -8   15.70    6.10
  -4  -6  -8   12.80    8.60
   4  -6   8   12.20    6.50
  -4  -6  -8   20.50    6.40
   4   6   9   11.40    6.70
  -4   6  -9   -2.00    5.80
   4  -6   9    1.20    6.00
  -4  -6  -9    3.50    6.40
   4  -6   9    6.00    8.70
  -4   6 -10    1.30    6.50
   4   6  10   -2.70    6.90
  -4  -6 -10   14.70    7.20
   4  -6  10  -10.50   10.00
   4  -6  10   10.40    6.40
   4   6  11   -2.20    6.80
  -4   6 -11    0.90    6.90
  -4  -6 -11   14.90    7.70
  -4   7  13  -16.10   10.90
  -4  -7  13    1.00   11.90
   4  -7 -13    0.90    5.40
  -4   7  12   10.70   12.00
  -4  -7  12   -5.60   10.60
   4  -7 -12    4.90    5.20
  -4   7  11    8.90   10.10
  -4  -7  11   -0.10    9.00
   4  -7 -11    2.50    4.70
  -4   7  10   11.00    9.60
  -4  -7  10    0.50    9.30
   4  -7 -10   10.80    4.50
  -4   7   9   60.69   11.00
   4  -7  -9   97.19    7.00
  -4  -7   9  100.09   12.20
  -4   7   8   60.49    8.40
  -4   7   8   69.09    5.20
  -4   7   8   50.19   10.30
   4  -7  -8   62.49    5.20
  -4   7   7  100.59    6.30
  -4   7   7  115.79    9.10
  -4   7   7   89.89    9.90
   4  -7  -7   95.39    9.90
  -4  -7   7  101.59    8.00
   4  -7  -7  109.09    6.40
  -4   7   6   18.60    5.80
  -4   7   6   31.10    7.70
  -4   7   6   27.40    4.50
  -4  -7   6   22.00    6.40
   4  -7  -6   20.90    3.80
  -4  -7   6   15.40    5.20
  -4   7   5  180.08   11.20
  -4   7   5  186.18    8.10
  -4  -7   5  172.88   10.60
  -4  -7   5  190.48    5.70
  -4  -7   5  198.68    9.50
  -4   7   4   22.00    4.40
  -4   7   4   20.50    5.80
   4   7  -4   20.40    2.70
  -4  -7   4   17.90    4.90
  -4  -7   4   12.70    3.20
  -4  -7   4   23.00    5.60
   4  -7  -4   28.40    5.50
  -4   7   3   25.30    2.80
  -4   7   3   23.20    4.40
   4  -7  -3   38.00    5.50
  -4  -7   3   24.10    3.80
   4  -7  -3   26.20    3.00
  -4  -7   3   25.90    4.90
  -4  -7   3   23.00    4.90
  -4   7   2   82.29    5.50
   4   7  -2   88.49    5.20
  -4   7   2   94.39    6.70
  -4  -7   2   89.49    6.80
  -4  -7   2   88.99    6.50
   4  -7  -2   91.89    7.00
   4  -7  -2   91.69    6.20
  -4  -7   2   72.29    6.20
  -4  -7   2   97.19    5.10
  -4   7   1   38.10    5.60
   4   7  -1   39.90    4.50
  -4   7   1   41.10    5.40
  -4  -7   1   38.00    5.10
   4  -7  -1   29.50    4.70
   4  -7  -1   35.90    4.00
  -4  -7   1   30.90    5.50
  -4  -7   1   35.10    4.40
   4   7   0   32.20    5.10
  -4   7   0   36.80    5.20
   4  -7   0   52.09    6.50
  -4  -7   0   39.10    5.10
   4  -7   0   36.80    3.10
   4  -7   0   32.10    5.30
  -4  -7   0   28.40    5.30
  -4   7  -1  288.37   11.10
   4   7   1  286.87   10.90
   4   7   1  281.07   11.30
  -4  -7  -1  287.97   12.20
  -4  -7  -1  271.17   10.50
   4  -7   1  274.07   11.80
   4  -7   1  314.77   11.60
   4   7   2   52.99    6.90
   4   7   2   63.99    6.80
  -4  -7  -2   49.30    6.40
   4  -7   2   50.19    6.70
  -4  -7  -2   69.69    5.80
  -4  -7  -2   57.49    6.30
   4  -7   2   50.39    7.30
   4   7   3   94.09    7.70
   4   7   3  102.19    9.20
   4  -7   3  106.79    8.10
  -4  -7  -3   98.79    8.90
   4  -7   3   85.19    8.40
  -4  -7  -3  115.79    8.40
  -4  -7  -3  112.99    7.60
   4   7   4  179.38   12.40
   4   7   4  170.68   10.40
   4   7   4  160.48    9.40
   4  -7   4  165.38   12.20
  -4  -7  -4  169.18   10.50
  -4  -7  -4  186.78   11.30
   4  -7   4  159.58   10.00
  -4  -7  -4  179.88    9.20
   4   7   5   -8.40    5.50
   4   7   5    4.80    6.00
   4   7   5   12.10    7.50
   4  -7   5   13.10    5.70
  -4  -7  -5    3.10    4.60
  -4  -7  -5   -0.40    6.40
   4  -7   5    4.20    8.20
   4   7   6   22.10    7.00
   4   7   6   20.60    7.10
   4   7   6   19.70    8.60
   4  -7   6   11.30    6.00
  -4  -7  -6   18.00    7.80
   4  -7   6    6.90    8.50
  -4  -7  -6   16.90    5.90
   4   7   7   51.89    8.20
   4  -7   7   50.49    7.70
  -4  -7  -7   45.20    7.10
  -4  -7  -7   62.09    9.80
   4   7   8   38.90    8.20
  -4  -7  -8   37.80    9.80
  -4  -7  -8   36.50    7.40
   4  -7   8   34.20    7.30
   4   7   9    7.00    6.70
  -4   7  -9    9.50    6.40
   4  -7   9    3.40    6.20
  -4  -7  -9   12.30    6.70
   4   7  10    1.40    6.90
  -4   7 -10   -2.10    6.30
  -4  -7 -10   -8.00    7.00
   4  -7  10    3.80    5.90
   4  -7  10   17.40   10.80
  -4   7 -11    7.10    7.10
   4   7  11   -6.20    6.90
   4  -7  11   11.70   12.60
  -4  -7 -11    0.60    7.40
  -4   8  13   -2.70   11.80
   4  -8 -13    7.30    6.00
  -4  -8  13    3.20   11.70
  -4   8  12   -0.80   11.00
  -4  -8  12   -0.60   11.00
   4  -8 -12   -5.50    5.10
  -4   8  11   -4.20   10.10
   4  -8 -11   -0.40    4.60
  -4  -8  11   -0.90   10.10
  -4   8  10   -5.00    8.70
   4  -8 -10    4.60    4.70
  -4  -8  10   18.40   10.10
  -4   8   9    4.10    9.30
   4  -8  -9    9.10    4.30
  -4   8   8    5.50    3.80
  -4   8   8   15.90    8.80
  -4   8   8    8.00    6.50
   4  -8  -8   12.90    4.10
  -4   8   7  446.26   18.60
  -4   8   7  463.25   16.60
  -4   8   7  438.66   12.10
   4  -8  -7  452.15   17.00
   4  -8  -7  437.06   12.00
  -4  -8   7  434.26   15.60
  -4   8   6    2.80    5.70
  -4   8   6    3.20    6.90
  -4   8   6    7.10    4.30
   4  -8  -6    4.00    3.70
  -4  -8   6   11.10    5.50
  -4  -8   6    6.10    5.20
  -4   8   5    6.70    4.20
  -4   8   5    8.50    5.60
  -4  -8   5   16.10    5.70
  -4  -8   5    5.90    2.60
  -4  -8   5    7.90    4.90
  -4   8   4   -0.20    1.70
  -4   8   4   -2.60    3.70
  -4   8   4    4.30    4.60
   4   8  -4    2.40    2.50
  -4  -8   4    2.80    4.40
  -4  -8   4    3.00    5.00
   4  -8  -4    1.80    1.80
  -4  -8   4    0.40    2.80
   4  -8  -4   -6.90    4.60
  -4   8   3  480.55   10.70
  -4   8   3  456.35   13.00
   4   8  -3  475.45    9.50
  -4  -8   3  476.05   13.90
   4  -8  -3  486.55   14.00
  -4  -8   3  483.55   12.20
   4  -8  -3  477.65   10.90
  -4  -8   3  454.75   14.10
  -4   8   2   67.59    6.30
  -4   8   2   61.79    4.60
   4   8  -2   58.49    4.30
  -4  -8   2   55.99    4.10
   4  -8  -2   55.19    4.80
  -4  -8   2   47.30    5.10
   4  -8  -2   60.59    5.50
  -4  -8   2   54.49    6.40
   4   8  -1   78.39    5.60
  -4   8   1   67.79    6.30
  -4  -8   1   76.19    6.00
  -4  -8   1   57.59    6.40
   4  -8  -1   64.19    5.80
  -4  -8   1   62.39    5.60
   4  -8  -1   78.19    6.00
  -4   8   0  337.37   11.20
   4   8   0  319.47   11.40
   4  -8   0  313.17   11.50
  -4  -8   0  326.17   12.60
   4  -8   0  325.57   11.80
  -4  -8   0  328.27   11.70
   4  -8   0  319.77    8.10
  -4   8  -1   -3.80    4.70
   4   8   1   -1.60    4.80
   4   8   1    3.70    5.20
   4  -8   1   -6.60    5.00
   4  -8   1    4.70    5.10
  -4  -8  -1    2.80    4.80
  -4  -8  -1    6.00    4.70
   4   8   2   13.30    5.80
   4   8   2    0.60    5.20
  -4   8  -2   15.80    6.10
   4  -8   2   24.60    5.90
   4  -8   2    5.30    5.90
  -4  -8  -2   16.10    5.50
  -4  -8  -2   17.20    4.30
  -4  -8  -2   33.20    6.60
   4   8   3    0.60    5.60
   4   8   3    5.40    5.80
   4  -8   3    2.40    5.00
   4  -8   3    2.10    6.00
  -4  -8  -3    5.00    4.90
  -4  -8  -3    1.70    4.30
  -4  -8  -3   13.00    6.30
   4   8   4   -7.50    6.20
   4   8   4    0.60    5.60
   4   8   4    0.20    5.10
  -4  -8  -4   10.80    6.70
  -4  -8  -4    9.90    4.80
   4  -8   4    7.00    7.60
  -4  -8  -4   -1.00    5.50
   4  -8   4    0.70    5.30
   4   8   5   63.69    9.70
   4   8   5   49.70    7.80
   4   8   5   54.19    7.50
  -4  -8  -5   52.29    6.60
   4  -8   5   47.60    9.00
  -4  -8  -5   55.09    8.80
   4  -8   5   59.29    7.60
   4   8   6   -3.00    6.20
   4   8   6   -2.60    6.80
   4   8   6    1.80    8.80
  -4  -8  -6    1.30    7.20
   4  -8   6   13.50    6.10
   4  -8   6   13.20    9.40
  -4  -8  -6   -2.80    5.20
   4   8   7    4.10    6.60
  -4  -8  -7   10.50    6.10
  -4  -8  -7    2.70    7.90
   4  -8   7    3.80    6.10
   4   8   8   35.70    8.10
  -4  -8  -8   21.40   10.20
  -4  -8  -8   46.30    7.90
   4  -8   8   40.00    7.40
   4   8   9   -7.50    6.40
  -4  -8  -9    1.10    6.40
   4  -8   9    2.50    6.00
  -4   8 -10   -8.90    6.10
   4   8  10   10.70    7.40
   4  -8  10   12.20   10.20
  -4  -8 -10    0.70    6.90
   4  -8  10   -8.00    5.60
  -4   8 -11    6.80    7.10
   4   8  11   -1.20    6.90
  -4  -8 -11   -1.00    7.80
   4  -8  11  -26.20    9.70
  -4   9  13  -15.80   11.60
  -4  -9  13    6.20   12.00
   4  -9 -13   -6.70    6.10
  -4   9  12    6.20   11.20
   4  -9 -12    0.00    5.70
  -4  -9  12   -3.80   10.30
  -4   9  11    8.10   11.20
  -4  -9  11    1.40   10.00
   4  -9 -11    3.60    5.10
  -4   9  10   10.60   10.70
  -4  -9  10    2.30    9.80
   4  -9 -10   -3.50    4.80
  -4   9   9   21.40    9.40
   4  -9  -9   36.10    5.40
  -4   9   8   93.99   12.10
  -4   9   8   95.39    9.90
  -4   9   8   88.39    6.20
   4  -9  -8   82.99    6.30
  -4   9   7    6.20    7.20
  -4   9   7    5.70    4.20
  -4   9   7    3.80    6.20
   4  -9  -7   10.80    6.90
  -4  -9   7    5.90    6.00
   4  -9  -7   12.70    4.30
  -4   9   6  139.19   10.60
  -4   9   6  130.29   10.30
  -4   9   6  128.39    8.00
  -4  -9   6  126.69   10.20
  -4  -9   6  132.19    4.30
   4  -9  -6  135.19    7.60
  -4  -9   6  129.89    9.80
  -4   9   5   78.69    6.50
  -4   9   5   60.99    7.40
  -4  -9   5   76.89    7.90
  -4  -9   5   76.69    4.90
  -4  -9   5   83.29    7.40
   4   9  -4  178.28    6.50
  -4   9   4  183.48    8.40
  -4   9   4  188.18    5.60
  -4  -9   4  187.68    7.20
  -4  -9   4  163.78   10.20
   4  -9  -4  183.08    5.80
  -4  -9   4  169.58   10.00
  -4   9   3   49.60    5.50
   4   9  -3   55.59    3.90
  -4   9   3   70.59    4.90
  -4  -9   3   52.09    6.20
  -4  -9   3   74.19    7.20
   4  -9  -3   78.49    6.80
  -4  -9   3   67.19    5.50
   4  -9  -3   54.79    4.30
  -4   9   2   52.29    5.70
   4   9  -2   47.60    4.40
  -4   9   2   43.50    4.40
  -4  -9   2   49.20    4.10
   4  -9  -2   47.50    5.20
  -4  -9   2   45.80    5.10
  -4  -9   2   42.20    5.70
   4  -9  -2   43.90    4.70
   4   9  -1    9.50    4.00
  -4   9   1    8.10    4.80
   4  -9  -1   -4.60    3.90
  -4  -9   1   12.60    4.00
  -4  -9   1   11.90    4.60
  -4  -9   1    2.10    4.20
   4  -9  -1    9.30    5.10
   4   9   0   50.89    5.80
  -4   9   0   57.29    6.40
   4   9   0   57.19    6.60
  -4  -9   0   45.90    5.70
   4  -9   0   64.99    7.10
   4  -9   0   50.29    3.80
   4  -9   0   62.29    6.70
  -4  -9   0   47.40    6.20
   4   9   1   21.40    5.30
  -4   9  -1   23.30    5.20
   4   9   1   23.90    5.50
   4  -9   1   11.80    5.70
  -4  -9  -1   14.20    5.60
  -4  -9  -1    8.30    5.00
   4  -9   1   10.90    5.00
   4   9   2    8.10    5.70
  -4   9  -2   14.10    5.30
   4   9   2    5.00    5.00
   4  -9   2   18.40    5.30
   4  -9   2    9.60    6.40
  -4  -9  -2   24.20    4.80
  -4  -9  -2   17.20    5.70
  -4  -9  -2   22.30    6.40
   4   9   3   -4.50    5.70
   4   9   3   -5.30    5.40
  -4  -9  -3   -5.80    4.00
  -4  -9  -3   -7.00    4.40
   4  -9   3   -3.60    6.40
   4  -9   3   -4.70    5.10
  -4  -9  -3    1.50    6.20
   4   9   4   29.10    6.40
   4   9   4   50.09    8.50
   4   9   4   51.69    6.50
  -4  -9  -4   50.59    7.70
  -4  -9  -4   58.79    7.80
   4  -9   4   26.10    7.70
  -4  -9  -4   44.30    5.80
   4  -9   4   41.00    6.60
   4   9   5    7.90    6.20
   4   9   5   -0.50    6.90
   4   9   5   16.00    6.60
  -4  -9  -5   -6.00    6.70
   4  -9   5   -0.80    5.60
  -4  -9  -5    7.00    5.20
   4  -9   5    4.80    7.50
   4   9   6   -4.50    6.10
   4   9   6    9.10    8.00
  -4  -9  -6   -3.30    5.40
   4  -9   6  -18.30    7.40
  -4  -9  -6   -5.10    7.20
   4  -9   6   -2.70    5.70
   4   9   7    6.40    6.80
   4  -9   7    9.50   10.10
   4  -9   7    2.70    6.00
  -4  -9  -7   21.20    8.50
  -4  -9  -7    7.10    6.00
   4   9   8   -9.60    6.30
  -4  -9  -8   -2.00    6.00
   4  -9   8    0.70    6.10
   4   9   9   -7.60    6.90
  -4  -9  -9    0.50    6.60
   4  -9   9   13.90    6.50
  -4   9 -10    4.70    6.70
   4   9  10   12.30    7.50
   4  -9  10    5.20    5.90
   4  -9  10   11.90   10.30
  -4  -9 -10   -2.80    7.20
   4   9  11    4.30    7.40
  -4   9 -11    6.80    7.20
  -4  -9 -11    8.80    8.20
   4  -9  11   -7.40   10.60
  -4  10  13  -11.50   12.10
  -4 -10  13    6.40   12.30
   4 -10 -13   -4.10    6.20
  -4  10  12    5.60   11.70
  -4 -10  12    5.10   12.10
   4 -10 -12   -4.00    5.70
  -4  10  11    0.20   10.50
   4 -10 -11    5.60    5.50
  -4 -10  11   16.80    9.80
  -4  10  10   23.40   11.40
   4 -10 -10   15.20    5.40
  -4  10   9    0.40    9.50
  -4  10   9   17.30    4.40
   4 -10  -9   10.40    5.20
  -4  10   8   74.09   11.40
  -4  10   8   51.49    8.60
  -4  10   8   64.29    6.00
   4 -10  -8   67.79    6.40
  -4  10   7  198.18   12.70
  -4  10   7  187.58   13.30
  -4  10   7  197.98    9.20
   4 -10  -7  190.58   13.20
   4 -10  -7  185.88    9.40
  -4 -10   7  193.78   12.50
  -4  10   6  395.76   12.70
  -4  10   6  363.16   15.40
  -4  10   6  384.46   16.40
  -4 -10   6  370.56    8.90
  -4 -10   6  388.86   14.80
  -4 -10   6  420.16   15.70
  -4  10   5    3.60    4.70
  -4 -10   5   -6.70    5.10
  -4 -10   5    3.20    5.30
  -4 -10   5    6.50    3.20
  -4  10   4    4.50    4.50
  -4  10   4   -0.10    2.50
   4  10  -4   -2.30    2.90
  -4 -10   4    4.30    4.90
   4 -10  -4    0.00    2.70
  -4 -10   4    4.80    3.40
  -4 -10   4    3.80    5.20
  -4  10   3   37.20    5.40
   4  10  -3   33.70    3.20
  -4  10   3   33.60    3.80
  -4 -10   3   38.20    6.20
   4 -10  -3   28.50    3.90
  -4 -10   3   34.40    4.70
  -4 -10   3   31.80    6.00
   4  10  -2  850.21   17.70
  -4  10   2  844.12   20.10
   4 -10  -2  842.12   18.70
  -4 -10   2  842.02   19.40
  -4 -10   2  841.52   21.10
   4  10  -1  550.54   14.30
  -4  10   1  551.24   15.60
   4 -10  -1  544.25   15.60
   4 -10  -1  558.34   15.00
  -4 -10   1  547.05   14.10
  -4 -10   1  552.54   15.20
  -4 -10   1  564.54   16.70
   4  10   0    6.90    4.70
   4  10   0    6.40    4.60
  -4  10   0    6.50    4.90
  -4 -10   0    3.20    4.80
  -4 -10   0    1.10    4.20
   4 -10   0   -1.10    5.30
   4 -10   0    2.60    5.10
  -4  10  -1   10.80    4.70
   4  10   1    6.40    5.50
   4  10   1   15.20    5.40
  -4 -10  -1   17.50    6.10
   4 -10   1    4.30    5.40
  -4 -10  -1    2.80    5.10
   4 -10   1    8.20    5.90
   4  10   2   15.10    5.60
   4  10   2    5.10    5.10
  -4  10  -2   -0.80    4.30
  -4 -10  -2    3.20    5.30
   4 -10   2    3.00    4.70
   4 -10   2    1.80    6.20
  -4 -10  -2    5.80    4.30
  -4 -10  -2   -5.80    5.00
  -4  10  -3    5.80    5.60
   4  10   3   11.20    6.30
   4  10   3    6.80    6.10
  -4 -10  -3   11.20    5.80
  -4 -10  -3    9.90    4.50
  -4 -10  -3    4.70    5.90
   4 -10   3   12.50    6.80
   4 -10   3    0.50    5.40
   4  10   4   -5.30    6.00
   4  10   4   -5.00    6.40
  -4 -10  -4    6.30    4.90
  -4 -10  -4    4.00    6.00
   4 -10   4    9.30    7.00
  -4 -10  -4    3.50    6.70
   4 -10   4    9.10    5.70
   4  10   5    7.80    7.60
   4  10   5   12.80    6.50
   4  10   5    0.20    7.10
  -4 -10  -5    9.80    5.30
   4 -10   5   14.60    8.90
   4 -10   5   14.00    6.10
  -4 -10  -5   16.90    7.60
   4  10   6    1.20    6.40
   4  10   6   11.10    8.00
   4 -10   6    5.60    6.30
  -4 -10  -6   -5.50    5.40
  -4 -10  -6    6.90    7.20
   4 -10   6   -8.70    9.00
   4  10   7   18.90    7.60
  -4 -10  -7   32.00    7.30
  -4 -10  -7   19.50    8.80
   4 -10   7   25.30    7.30
   4  10   8    4.70    6.90
   4 -10   8    4.30    6.30
  -4 -10  -8    3.40    6.20
   4  10   9   -7.00    6.70
  -4 -10  -9    3.60    7.10
   4 -10   9    8.90    6.30
   4  10  10    4.10    7.20
  -4 -10 -10   -0.90    7.40
   4 -10  10   11.20    7.70
  -4  10 -11   -4.10    6.80
   4  10  11    2.30    7.40
  -4 -10 -11  -14.20    7.50
   4 -10  11   18.10   11.80
  -4  11  13    4.40   13.60
  -4 -11  13   32.80   13.60
   4 -11 -13   -7.90    6.30
  -4  11  12    3.90   12.10
   4 -11 -12    1.10    6.40
  -4 -11  12  -24.70    9.90
  -4  11  11   -7.80   10.60
  -4 -11  11   -8.90    9.60
   4 -11 -11   -1.80    5.60
  -4  11  10   19.20   11.00
   4 -11 -10    9.90    5.60
  -4  11   9  -15.10    8.00
  -4  11   9    5.60    4.50
  -4  11   9    7.30    8.20
   4 -11  -9   -1.30    5.10
  -4  11   8   33.90    8.30
  -4  11   8   26.50    9.80
  -4  11   8   37.70    5.70
   4 -11  -8   37.70    5.90
  -4  11   7  200.28   14.90
  -4  11   7  184.48   12.90
  -4  11   7  179.48    9.70
   4 -11  -7  188.58   13.10
  -4 -11   7  176.18   12.00
   4 -11  -7  193.48    9.60
  -4  11   6    9.70    6.50
  -4  11   6   19.40    7.00
  -4  11   6    4.80    4.90
  -4 -11   6    6.20    5.90
  -4 -11   6   11.40    3.00
  -4 -11   6    6.70    5.80
   4 -11  -6   11.70    6.10
  -4  11   5  671.53   17.60
  -4 -11   5  653.53   15.20
  -4 -11   5  682.53   19.40
  -4 -11   5  679.13   20.00
  -4  11   4  342.47   11.90
  -4  11   4  347.57   11.10
   4  11  -4  333.67    9.90
  -4 -11   4  332.17   10.30
  -4 -11   4  319.37   13.30
  -4 -11   4  358.86   13.80
   4 -11  -4  341.07    9.40
  -4  11   3  229.88   10.30
  -4  11   3  249.78    8.20
   4  11  -3  243.88    7.30
  -4 -11   3  223.88   11.20
   4 -11  -3  251.07    9.00
  -4 -11   3  248.78   11.70
  -4 -11   3  246.98    9.50
  -4  11   2  133.69    7.90
   4  11  -2  131.09    6.80
  -4 -11   2  115.79    7.50
   4 -11  -2  114.79    7.90
  -4 -11   2  124.19    9.70
   4 -11  -2  132.69    8.00
   4  11  -1  679.73   16.90
  -4  11   1  718.13   18.50
   4 -11  -1  693.13   18.30
  -4 -11   1  743.03   18.20
   4 -11  -1  713.53   18.20
  -4 -11   1  730.13   19.70
   4  11   0    8.30    5.20
   4  11   0   10.50    4.60
  -4  11   0    6.70    5.10
  -4 -11   0    4.90    5.60
   4 -11   0    5.80    5.20
   4 -11   0    8.40    5.50
  -4 -11   0   16.90    5.40
  -4  11  -1   55.69    7.00
   4  11   1   38.60    6.10
   4  11   1   53.39    6.60
   4 -11   1   45.90    6.60
   4 -11   1   47.60    6.30
  -4 -11  -1   40.60    7.10
  -4 -11  -1   54.09    7.10
   4  11   2    5.90    5.40
   4  11   2    5.00    5.30
  -4  11  -2    4.30    5.30
  -4 -11  -2    4.40    5.60
   4 -11   2    7.20    5.70
  -4 -11  -2    1.40    6.00
   4 -11   2   15.70    7.00
  -4 -11  -2    3.60    4.20
  -4  11  -3  141.69    9.60
   4  11   3  146.79   11.20
   4  11   3  118.49    9.70
   4 -11   3  126.19   10.50
   4 -11   3  118.19    8.80
  -4 -11  -3  135.99   10.10
  -4 -11  -3  116.59   10.00
  -4 -11  -3  125.09    8.30
   4  11   4   -2.40    6.00
   4  11   4    8.10    7.00
  -4 -11  -4   -1.80    6.60
   4 -11   4    4.00    5.90
  -4 -11  -4    1.80    5.10
   4 -11   4   -9.90    7.80
  -4 -11  -4    2.80    6.30
   4  11   5    5.00    6.70
   4  11   5    2.60    7.30
   4 -11   5   -6.80    8.50
   4 -11   5   -4.40    5.70
  -4 -11  -5    2.10    7.20
  -4 -11  -5    2.20    5.30
   4  11   6    5.40    8.20
   4  11   6   -6.00    6.70
   4 -11   6   -5.10    9.30
  -4 -11  -6   -7.40    7.20
  -4 -11  -6   -3.40    5.40
   4 -11   6   -1.00    6.20
   4  11   7    3.70    7.10
  -4 -11  -7   16.10    8.40
   4 -11   7    5.20    6.40
  -4 -11  -7   17.00    6.80
   4  11   8   16.30    7.80
   4 -11   8   11.50    6.70
  -4 -11  -8   -2.50    6.10
   4  11   9   20.90    8.00
   4 -11   9    3.50    6.20
  -4 -11  -9   12.50    7.40
   4  11  10    3.90    7.30
   4 -11  10    0.30    8.70
  -4 -11 -10   -5.90    7.50
  -4  11 -11   -7.40    7.10
   4  11  11    9.60    7.80
  -4 -11 -11   -4.30    7.50
   4 -11  11    0.30   10.50
  -4  12  13   -8.80   11.90
  -4 -12  13    5.70   11.20
   4 -12 -13    1.80    6.70
  -4  12  12   12.80   10.80
  -4 -12  12   -3.40   11.10
   4 -12 -12    9.00    6.40
  -4  12  11  -19.80   10.80
   4 -12 -11    2.00    6.00
  -4 -12  11   27.90   11.90
  -4  12  10   15.00    9.80
   4 -12 -10    7.20    5.70
  -4  12   9   50.09    9.50
  -4  12   9   59.39   12.10
  -4  12   9   45.50    6.10
   4 -12  -9   44.20    6.50
  -4  12   8   -8.20    7.50
  -4  12   8   -0.90    4.60
  -4  12   8   -2.40    7.10
  -4 -12   8   12.00   11.20
   4 -12  -8    4.40    5.30
  -4  12   7  377.46   18.00
  -4  12   7  371.86   16.60
  -4  12   7  356.86   12.90
   4 -12  -7  385.56   16.30
  -4 -12   7  378.76   16.00
  -4  12   6    7.00    6.30
  -4  12   6    7.60    5.30
  -4 -12   6    3.80    3.20
   4 -12  -6    3.70    5.60
  -4 -12   6    4.40    6.50
  -4  12   5    1.30    5.00
  -4 -12   5   -1.90    5.50
  -4 -12   5   -1.20    5.80
  -4 -12   5    6.00    3.60
  -4  12   4   71.59    7.10
  -4 -12   4   60.89    7.70
   4 -12  -4   59.89    4.90
  -4 -12   4   58.09    7.10
  -4 -12   4   56.59    5.50
   4  12  -3  115.59    5.80
  -4  12   3  112.29    8.50
  -4 -12   3  106.59    8.40
  -4 -12   3  111.79    8.70
  -4 -12   3  106.49    7.60
   4 -12  -3  113.49    7.40
   4  12  -2   59.29    5.10
  -4  12   2   45.80    6.30
  -4 -12   2   68.89    7.70
   4 -12  -2   59.19    6.00
  -4 -12   2   61.89    6.20
   4 -12  -2   59.79    7.30
   4  12  -1   35.10    5.10
  -4  12   1   33.20    6.00
   4 -12  -1   25.70    5.60
  -4 -12   1   41.80    6.10
  -4 -12   1   51.39    7.20
   4 -12  -1   34.40    5.80
   4  12   0  244.08   10.70
  -4  12   0  259.17   11.30
   4  12   0  250.47   10.60
  -4 -12   0  245.18   11.70
   4 -12   0  247.68   11.00
   4 -12   0  223.88   12.20
  -4 -12   0  248.18   11.10
  -4  12  -1    4.10    4.70
   4  12   1   12.90    5.40
   4  12   1    6.80    5.40
   4 -12   1    4.70    6.00
  -4 -12  -1    2.40    6.20
  -4 -12  -1   -7.50    4.60
   4 -12   1   13.10    6.00
   4  12   2   -3.50    5.10
  -4  12  -2   -2.20    4.60
   4  12   2   -2.90    5.50
  -4 -12  -2   -3.80    4.80
   4 -12   2  -12.60    4.30
   4 -12   2  -11.20    6.40
  -4 -12  -2   -3.40    4.10
   4 -12   2   -8.00    4.10
  -4 -12  -2    9.20    6.40
   4  12   3    7.30    5.70
  -4  12  -3   -6.30    5.80
   4  12   3   -3.10    6.00
   4 -12   3    0.60    5.60
  -4 -12  -3   -8.40    5.70
  -4 -12  -3    0.70    4.80
   4 -12   3   -8.00    7.30
  -4 -12  -3    1.40    6.60
   4  12   4   -6.90    6.00
   4  12   4   -5.20    6.40
   4 -12   4    2.90    7.50
  -4 -12  -4    1.70    5.70
  -4 -12  -4   14.40    7.30
  -4 -12  -4    7.40    5.50
   4 -12   4    7.00    5.90
   4  12   5   44.40    9.20
   4  12   5   45.70    8.60
  -4 -12  -5   41.40    8.20
   4 -12   5   25.00    9.90
   4 -12   5   53.79    7.80
  -4 -12  -5   38.20    7.00
   4  12   6    4.30    6.90
  -4 -12  -6   -3.30    5.90
   4 -12   6   -8.30    9.20
   4 -12   6   -6.30    6.20
  -4 -12  -6    7.60    8.00
   4  12   7   22.60    8.00
  -4 -12  -7   14.90    8.70
  -4 -12  -7   33.10    7.30
   4 -12   7   33.10    7.60
   4  12   8   21.30    8.00
   4 -12   8   10.60    6.50
  -4 -12  -8   11.70    7.10
   4  12   9   -2.90    7.10
  -4 -12  -9   -1.90    7.30
   4 -12   9   -4.90    6.00
   4  12  10  -13.90    7.30
  -4 -12 -10   -4.40    7.40
   4  12  11    0.10    7.20
  -4  12 -11   -0.60    7.30
   4 -12  11  -17.40   10.00
  -4 -12 -11  -21.70    7.50
  -4  13  12   16.00   12.80
   4 -13 -12   -3.70    6.60
  -4 -13  12    9.40   10.20
  -4  13  11  -13.80   11.10
   4 -13 -11   12.70    6.70
  -4  13  10    2.30    9.50
   4 -13 -10    1.30    6.00
  -4  13   9   14.60    5.70
  -4  13   9   34.80   11.00
  -4  13   9   24.00    9.30
   4 -13  -9   44.20    7.00
  -4  13   8   49.00   10.80
  -4  13   8   51.69    9.60
  -4  13   8   38.50    6.30
   4 -13  -8   61.29    7.20
  -4 -13   8   41.10    8.70
  -4  13   7   16.10    5.90
  -4  13   7   12.40    7.90
   4 -13  -7    6.70    6.50
  -4 -13   7   17.80    7.30
  -4  13   6  167.98   12.70
  -4  13   6  155.68    9.80
   4 -13  -6  165.48   11.10
  -4 -13   6  170.88    7.40
  -4 -13   6  156.18   12.20
  -4  13   5   74.19    7.80
  -4 -13   5   73.79    8.50
  -4 -13   5   77.79    6.00
  -4 -13   5   59.29    7.90
  -4  13   4   41.90    6.60
  -4 -13   4   35.00    7.10
  -4 -13   4   39.10    6.60
  -4 -13   4   39.40    5.30
   4 -13  -4   31.20    4.60
  -4  13   3    7.50    4.80
   4  13  -3    3.60    3.20
   4 -13  -3   -2.40    4.00
   4 -13  -3    0.50    5.60
  -4 -13   3    0.50    6.00
  -4 -13   3    6.00    4.30
   4  13  -2   41.80    4.90
  -4  13   2   45.90    6.60
  -4 -13   2   45.20    6.10
  -4 -13   2   59.39    7.70
   4 -13  -2   44.70    6.00
   4 -13  -2   36.30    6.80
   4  13  -1  129.19    9.20
   4  13  -1  121.59    8.10
  -4  13   1  128.39    9.20
  -4 -13   1  117.29    8.90
  -4 -13   1  108.29    8.00
   4 -13  -1  112.59    8.20
   4 -13  -1  127.99    9.30
  -4  13   0   17.70    5.30
   4  13   0    9.50    5.00
   4  13   0   10.70    6.00
  -4 -13   0    4.10    5.50
  -4 -13   0   16.10    5.90
   4 -13   0    7.00    5.20
   4 -13   0    1.00    5.50
   4  13   1   38.10    6.50
   4  13   1   24.80    6.10
  -4  13  -1   28.30    6.20
  -4 -13  -1   30.80    6.50
   4 -13   1   23.40    5.90
   4 -13   1   19.30    6.90
  -4 -13  -1   32.50    6.70
  -4  13  -2    0.30    4.90
   4  13   2    6.00    6.40
   4  13   2    9.60    6.10
  -4 -13  -2    4.20    5.80
  -4 -13  -2    3.80    5.40
   4 -13   2    4.10    7.00
   4 -13   2    8.10    4.20
   4 -13   2    9.00    5.50
   4  13   3   25.40    6.60
   4  13   3   25.80    7.30
  -4 -13  -3   39.80    7.50
   4 -13   3   53.89    8.80
  -4 -13  -3   45.80    7.20
   4 -13   3   46.10    7.20
   4 -13   3   44.60    7.60
  -4 -13  -3   39.60    6.10
   4  13   4    3.50    6.90
   4  13   4   22.10    7.10
  -4 -13  -4    1.80    5.40
  -4 -13  -4   10.80    6.20
   4 -13   4   11.70    6.70
  -4 -13  -4   12.90    7.30
   4 -13   4   23.60    9.10
   4  13   5    2.70    8.10
   4  13   5    6.70    7.00
  -4 -13  -5   -3.50    7.40
   4 -13   5    7.50    6.70
  -4 -13  -5   -1.40    5.60
   4 -13   5   13.70    9.60
   4  13   6    1.90    6.90
   4 -13   6    5.00    9.90
   4 -13   6   10.50    6.70
  -4 -13  -6   -9.90    6.10
  -4 -13  -6    3.20    7.90
   4  13   7    9.60    7.40
  -4 -13  -7   15.00    7.20
  -4 -13  -7   -8.90    7.60
   4 -13   7   -5.20    6.20
   4  13   8    2.80    7.30
   4 -13   8    2.90    6.40
  -4 -13  -8   -0.40    7.00
   4  13   9    7.40    7.70
   4 -13   9   -7.20    6.10
  -4 -13  -9   -4.60    7.30
   4  13  10    1.20    7.50
  -4 -13 -10    5.10    7.80
  -4  14  12   -8.20   12.00
  -4 -14  12   -0.90   11.20
   4 -14 -12    0.40    7.10
  -4  14  11   -8.10   11.30
   4 -14 -11    3.40    6.70
  -4  14  10   45.40   11.30
  -4  14  10   39.70    6.40
   4 -14 -10   37.90    7.40
  -4  14   9   -3.20    8.50
  -4  14   9    3.20    5.40
   4 -14  -9    1.80    6.00
  -4  14   8   -4.10    7.50
  -4  14   8    4.10    5.60
  -4 -14   8    2.60    7.50
  -4  14   7   28.20    8.40
  -4  14   7   10.90    6.00
  -4 -14   7   22.90    3.70
  -4 -14   7   19.40    7.50
  -4  14   6   49.00    8.70
  -4  14   6   87.59    8.50
  -4 -14   6   77.69    9.60
   4 -14  -6   67.49    8.10
  -4 -14   6   83.89    6.30
  -4  14   5   -5.30    5.30
  -4 -14   5    2.70    4.20
  -4 -14   5  -13.70    6.00
  -4 -14   5   -2.50    5.90
   4 -14  -5   -3.70    4.90
  -4  14   4   50.59    7.00
  -4 -14   4   57.29    7.90
  -4 -14   4   62.79    8.10
  -4 -14   4   74.19    6.50
  -4  14   3   69.49    7.80
   4  14  -3   74.99    5.40
  -4 -14   3   62.89    6.60
   4 -14  -3   75.49    6.40
  -4 -14   3   82.99    9.10
   4 -14  -3   83.79    8.70
   4  14  -2   75.19    6.00
  -4  14   2   94.09    8.70
   4 -14  -2   81.39    7.00
   4 -14  -2   82.79    8.10
  -4 -14   2   79.39    8.50
  -4 -14   2   91.99    7.60
   4  14  -1    0.50    4.50
  -4  14   1   -0.20    4.80
   4  14  -1    0.00    5.60
  -4 -14   1   14.50    6.00
   4 -14  -1    2.50    6.00
   4 -14  -1    2.80    5.40
  -4 -14   1   -3.50    4.70
  -4  14   0   66.79    7.50
   4  14   0   38.20    6.70
   4  14   0   53.09    6.70
  -4 -14   0   49.50    7.30
   4 -14   0   54.69    7.30
  -4 -14   0   63.79    8.40
   4 -14   0   42.80    7.10
  -4  14  -1   62.89    7.60
   4  14   1   68.29    7.80
   4  14   1   57.59    7.30
   4 -14   1   49.80    7.50
   4 -14   1   58.09    8.40
  -4 -14  -1   52.89    7.80
  -4 -14  -1   49.60    7.10
  -4  14  -2    4.50    5.60
   4  14   2    0.50    6.00
   4  14   2    7.80    6.50
  -4 -14  -2   12.20    5.90
  -4 -14  -2   12.80    7.10
   4 -14   2   -2.00    6.60
   4 -14   2    8.10    6.20
   4  14   3    5.00    6.00
   4  14   3   -3.30    6.30
  -4 -14  -3    2.60    7.20
   4 -14   3   18.50    6.40
  -4 -14  -3   -2.00    6.10
   4 -14   3   -6.90    6.90
   4  14   4    5.90    7.00
   4  14   4   21.10    8.00
  -4 -14  -4    5.30    6.10
   4 -14   4    3.50    6.40
  -4 -14  -4    8.20    5.90
   4 -14   4   15.80    8.20
  -4 -14  -4   14.10    8.10
   4  14   5   28.30    8.10
   4  14   5   21.20    7.00
   4 -14   5   31.40   10.30
   4 -14   5    9.00    6.60
  -4 -14  -5   22.70    6.40
  -4 -14  -5   19.80    8.20
   4  14   6    4.20    7.30
   4 -14   6   -2.90    6.20
  -4 -14  -6  -18.00    7.40
  -4 -14  -6    2.60    6.80
   4  14   7    5.50    7.60
  -4 -14  -7   11.40    7.40
   4 -14   7   -9.50    5.90
  -4 -14  -7    6.00    9.10
   4  14   8   29.80    8.70
  -4 -14  -8   39.40    8.10
   4 -14   8   20.80    7.10
   4  14   9    2.40    7.90
  -4 -14  -9   -0.80    7.80
   4 -14   9    3.00    6.50
   4  14  10    4.50    7.60
  -4 -14 -10   -9.50    8.90
  -4  15  12   -0.60   11.50
   4 -15 -12    2.30    7.40
  -4 -15  12   -3.10   11.70
  -4  15  11    0.50    9.80
   4 -15 -11   21.00    7.70
  -4  15  10    1.20    5.40
   4 -15 -10   16.90    6.90
  -4  15   9    4.10    5.90
   4 -15  -9   21.90    6.80
  -4  15   8    5.50    5.90
  -4  15   8    5.70    8.00
  -4 -15   8   -6.60    7.50
  -4  15   7   34.40    7.20
  -4  15   7   35.70    9.00
  -4 -15   7   35.40    4.40
  -4 -15   7   28.50    8.00
  -4  15   6    8.40    6.20
  -4  15   6   -2.40    6.50
  -4 -15   6    8.30    4.30
  -4 -15   6    4.80    7.10
  -4  15   5  137.99   10.30
  -4 -15   5  141.19    8.20
  -4 -15   5  149.79   11.50
  -4  15   4   80.09    8.50
  -4 -15   4   59.99    8.40
  -4 -15   4   59.59    8.00
  -4 -15   4   66.29    6.60
  -4  15   3  106.49    8.50
   4  15  -3  105.99    8.40
   4 -15  -3   96.89    7.50
  -4 -15   3  114.09   10.00
   4 -15  -3  103.29    9.30
  -4 -15   3  113.29    8.40
   4  15  -2    5.70    4.20
  -4  15   2    9.60    6.00
  -4 -15   2    9.20    5.30
  -4 -15   2    5.10    6.30
   4 -15  -2   12.20    6.60
   4 -15  -2   14.20    5.60
   4  15  -1  164.08    9.40
  -4  15   1  164.88   10.70
   4  15  -1  157.68   10.70
   4 -15  -1  149.69   10.20
   4 -15  -1  142.29   11.50
  -4 -15   1  150.18    9.90
  -4 -15   1  154.98   12.20
   4  15   0    6.20    5.20
   4  15   0    6.00    6.30
  -4  15   0    2.40    5.60
  -4 -15   0    0.00    5.70
   4 -15   0    3.40    6.20
   4 -15   0    0.50    6.00
  -4 -15   0   -3.10    4.90
   4  15   1   27.80    6.60
  -4  15  -1   25.90    6.90
   4  15   1   28.40    7.40
  -4 -15  -1   32.60    7.20
   4 -15   1   24.00    7.90
   4 -15   1   24.40    6.40
  -4 -15  -1   32.10    7.00
  -4  15  -2    4.30    5.30
   4  15   2   -1.20    5.70
   4  15   2    6.70    6.10
   4 -15   2   -1.10    5.80
  -4 -15  -2   18.30    6.80
   4 -15   2    9.50    7.90
  -4 -15  -2    8.50    7.20
   4  15   3    7.70    6.90
   4  15   3    6.90    7.10
  -4 -15  -3    8.20    7.60
  -4 -15  -3   17.50    6.70
   4 -15   3    1.10    6.10
   4 -15   3   13.60    9.00
   4  15   4   88.59    9.50
   4  15   4   99.59   10.80
  -4 -15  -4  108.39   11.50
   4 -15   4  103.69    9.30
  -4 -15  -4  120.09   10.90
   4 -15   4   99.49   12.60
   4  15   5    3.80    7.70
   4  15   5   -4.00    6.60
   4 -15   5    5.10    6.50
   4 -15   5    8.30   10.10
  -4 -15  -5   -2.70    7.50
   4  15   6   -1.20    7.30
   4 -15   6    0.00    6.60
  -4 -15  -6   -7.50    7.40
   4  15   7    7.80    7.60
   4 -15   7    3.00    6.70
   4  15   8   11.30    7.90
   4 -15   8   19.60    7.40
   4  15   9    2.80    8.20
   4 -15   9    1.00    6.80
   4  15  10   -2.50    7.90
   4 -16 -12    5.20    7.70
   4 -16 -11   -2.10    6.80
  -4  16  10    5.30    5.80
   4 -16 -10    6.80    6.80
  -4  16   9   28.80    6.90
  -4  16   8   -0.80    6.20
  -4 -16   8   14.90    8.50
  -4  16   7   80.69    8.90
  -4  16   7   68.99   10.00
  -4 -16   7  105.69   11.20
  -4 -16   7   82.99    5.90
  -4  16   6   -9.00    6.10
  -4  16   6   10.60    7.30
  -4 -16   6    6.00    7.80
  -4 -16   6    2.60    4.30
  -4  16   5   82.59    8.90
  -4 -16   5   92.79    7.30
  -4 -16   5   87.59   10.10
  -4  16   4    7.30    6.00
  -4 -16   4    4.20    4.90
  -4 -16   4    7.00    7.20
  -4  16   3   19.40    5.90
  -4 -16   3   22.20    5.90
  -4 -16   3   20.30    7.30
   4 -16  -3   24.60    7.00
   4 -16  -3   22.00    5.80
  -4  16   2  -10.90    5.40
   4  16  -2   11.70    4.70
   4 -16  -2   -4.10    5.30
  -4 -16   2    2.40    6.80
  -4 -16   2    5.50    5.60
   4 -16  -2    2.00    6.60
  -4  16   1   49.80    7.20
   4  16  -1   50.29    6.50
   4  16  -1   50.69    7.60
  -4 -16   1   43.10    7.30
   4 -16  -1   63.39    8.70
   4 -16  -1   45.60    7.50
  -4 -16   1   55.79    8.70
   4  16   0   -2.20    6.30
  -4  16   0   -8.80    4.80
   4  16   0    2.40    5.50
   4 -16   0    1.50    5.70
   4 -16   0    1.90    6.40
  -4 -16   0   -2.00    5.20
  -4 -16   0   -0.80    6.80
   4  16   1   14.70    6.50
  -4  16  -1   14.10    6.50
   4  16   1   25.10    6.80
   4 -16   1   18.90    7.00
  -4 -16  -1   19.40    7.00
  -4 -16  -1   16.30    7.90
   4 -16   1    7.30    7.20
  -4  16  -2   19.90    6.00
   4  16   2   15.40    7.10
   4  16   2    8.60    6.80
   4 -16   2   19.80    7.00
  -4 -16  -2    9.80    7.80
   4 -16   2    8.60    7.60
  -4 -16  -2   15.60    7.40
   4  16   3   18.40    7.70
   4  16   3   -2.40    6.80
  -4 -16  -3   13.70    7.80
   4 -16   3    9.10    8.00
   4 -16   3   12.30    6.50
  -4 -16  -3    4.20    6.90
   4  16   4   -2.10    7.30
   4  16   4   -1.50    6.70
   4 -16   4    9.90    6.20
  -4 -16  -4   -5.80    7.20
   4 -16   4  -19.90    7.50
  -4 -16  -4   -1.00    7.20
   4  16   5    4.30    7.90
  -4 -16  -5   14.20    8.50
   4 -16   5    8.70    6.90
   4 -16   5  -10.60    8.30
   4  16   6    1.30    7.00
  -4 -16  -6   13.70    8.70
   4 -16   6    4.30    7.00
   4  16   7   15.40    7.90
   4 -16   7   -0.20    7.00
   4  16   8    4.10    7.90
   4 -16   8   -1.50    6.90
   4  16   9    0.70    8.30
   4 -16   9    3.90    7.00
   4  16  10    3.80    8.20
  -4  17  10   11.20    6.30
  -4  17   9   -9.20    5.80
  -4  17   8   54.09    8.20
  -4 -17   8   44.30   10.00
  -4  17   7   12.10    7.00
  -4  17   7   -4.50    8.30
  -4 -17   7   11.40    8.10
  -4 -17   7    1.30    4.10
  -4  17   6   73.59    9.10
  -4  17   6   61.09    9.70
  -4 -17   6   77.09   10.30
  -4 -17   6   60.29    6.30
  -4  17   5   69.09    8.40
  -4 -17   5  112.09   11.00
  -4 -17   5  109.69    8.00
  -4  17   4   27.40    7.40
  -4 -17   4   27.20    6.10
  -4 -17   4   21.00    7.90
  -4  17   3   12.40    6.10
   4 -17  -3   13.10    6.90
  -4 -17   3   -6.00    6.70
   4 -17  -3   -7.70    5.10
  -4 -17   3    1.10    5.20
  -4  17   2   46.10    7.30
   4  17  -2   52.09    6.10
  -4 -17   2   48.70    8.90
  -4 -17   2   46.70    7.10
   4 -17  -2   48.60    8.50
   4 -17  -2   47.40    7.40
   4  17  -1   -3.30    4.80
   4  17  -1    2.90    6.50
  -4  17   1    9.90    5.80
  -4 -17   1    1.20    5.10
  -4 -17   1  -13.40    6.50
   4 -17  -1   -5.30    6.10
   4 -17  -1   -0.80    6.10
   4  17   0   10.50    7.00
   4  17   0    9.90    5.90
  -4  17   0    3.40    6.30
  -4 -17   0   17.40    7.60
   4 -17   0   10.50    7.20
  -4 -17   0   14.70    6.60
   4 -17   0   11.30    7.40
  -4  17  -1    9.80    5.80
   4  17   1   -3.10    5.80
   4  17   1   -0.80    6.70
   4 -17   1   -2.90    7.00
  -4 -17  -1    9.40    7.00
   4 -17   1   -6.60    6.40
  -4 -17  -1    7.20    6.80
   4  17   2   33.20    7.80
   4  17   2   28.70    8.10
  -4  17  -2   33.20    6.90
  -4 -17  -2   28.80    8.20
  -4 -17  -2   41.30    7.90
   4 -17   2   35.90    8.30
   4 -17   2   27.90    8.50
   4  17   3   50.69    9.30
   4  17   3   47.30    9.00
  -4 -17  -3   39.80    8.70
  -4 -17  -3   43.60    9.20
   4 -17   3   37.50    7.50
   4 -17   3   41.70    9.50
   4  17   4   12.20    7.80
   4  17   4    5.00    7.50
  -4 -17  -4    5.40    8.00
   4 -17   4   16.10    9.10
   4 -17   4    1.30    6.40
  -4 -17  -4    1.30    7.60
   4  17   5   31.40    8.70
  -4 -17  -5   17.50    8.70
   4 -17   5   14.60    7.50
   4  17   6   41.80    9.50
   4 -17   6   28.90    8.10
  -4 -17  -6   30.60   10.00
   4  17   7    9.60    8.50
   4 -17   7    5.70    7.40
   4  17   8    8.00    8.30
   4 -17   8    1.30    7.10
   4  17   9   18.70    8.90
   4 -17   9   12.70    7.50
   4  17  10   -6.10    8.10
  -4  18  10   14.20    6.80
  -4  18   9    9.60    6.60
  -4  18   8   -1.80    6.40
  -4 -18   8   -7.00    9.00
  -4  18   7    8.50    7.20
  -4 -18   7    0.60    7.90
  -4 -18   7    3.80    4.30
  -4  18   6   42.60    9.70
  -4  18   6   26.90    7.80
  -4 -18   6   29.20    8.90
  -4 -18   6   40.60    5.90
  -4  18   5  100.79    9.80
  -4 -18   5   90.09    7.90
  -4 -18   5   83.79   10.80
  -4  18   4   89.79    9.70
  -4 -18   4   88.89    8.30
  -4 -18   4   61.29    8.90
  -4  18   3    3.80    5.90
  -4 -18   3   -1.60    5.40
   4 -18  -3    1.80    7.00
   4 -18  -3   -1.20    5.60
  -4 -18   3   -4.20    7.10
  -4  18   2   11.70    6.80
   4  18  -2   22.90    5.40
  -4 -18   2   15.30    7.10
   4 -18  -2   11.00    6.60
   4 -18  -2   15.20    6.40
  -4 -18   2    7.70    6.20
   4  18  -1    0.30    6.50
   4  18  -1    8.00    5.50
  -4  18   1   -8.50    5.90
   4 -18  -1    1.20    6.50
   4 -18  -1   -1.40    6.40
  -4 -18   1   -9.40    6.20
  -4 -18   1    0.10    6.30
   4  18   0   56.69    8.00
   4  18   0   47.60    7.40
  -4  18   0   66.69    9.10
  -4 -18   0   73.29    8.80
  -4 -18   0   46.20    8.40
   4 -18   0   57.99    9.40
   4 -18   0   80.49    9.80
   4  18   1    1.80    7.20
   4  18   1    0.60    6.30
  -4  18  -1    0.50    6.40
   4 -18   1   -5.90    6.80
   4 -18   1    6.90    7.70
  -4 -18  -1   -0.80    5.90
  -4 -18  -1   -2.70    7.30
   4  18   2   98.19   10.00
   4  18   2   79.99    9.80
  -4  18  -2   99.39   10.10
   4 -18   2   87.89   11.40
   4 -18   2   82.09    9.00
  -4 -18  -2   88.99   10.20
  -4 -18  -2   82.09   10.80
   4  18   3   37.10    8.80
   4  18   3   31.50    8.40
   4 -18   3   21.10   10.20
  -4 -18  -3   32.10    9.30
   4 -18   3   19.80    8.00
  -4 -18  -3   29.80    7.70
   4  18   4   -7.20    7.30
   4  18   4   -6.40    7.20
  -4 -18  -4    5.90    9.40
  -4 -18  -4   -3.00    8.00
   4 -18   4   -3.00    9.20
   4 -18   4   -8.20    6.60
   4  18   5   -9.50    6.70
   4 -18   5    3.40    7.20
  -4 -18  -5    0.70    8.10
   4  18   6   -3.00    8.00
   4 -18   6    1.90    7.30
   4  18   7    4.90    7.90
   4 -18   7    0.00    7.40
   4  18   8   14.90    8.80
   4 -18   8    7.80    7.70
   4  18   9    8.60    8.40
   4 -18   9   24.30    8.10
   4  18  10   -2.60    8.00
  -4  19  10    6.30    6.90
  -4  19   9   21.00    7.30
  -4  19   8    5.60    6.90
  -4  19   7    1.60    6.80
  -4 -19   7   10.80    4.80
  -4 -19   7    4.80    8.90
  -4  19   6    7.80    7.30
  -4 -19   6   21.90    5.70
  -4 -19   6   20.30    9.10
  -4  19   5    9.90    6.90
  -4 -19   5   -3.40    7.80
  -4 -19   5   -2.30    5.20
  -4  19   4    8.90    7.00
  -4 -19   4    9.90    8.40
  -4 -19   4    1.90    5.60
  -4  19   3   -3.40    6.70
   4 -19  -3   -2.30    6.50
  -4 -19   3   11.30    6.30
  -4 -19   3    3.20    7.70
   4 -19  -3    3.20    7.10
  -4  19   2   61.19    9.20
  -4 -19   2   66.49    9.90
  -4 -19   2   55.29    8.00
   4 -19  -2   59.79    9.60
   4 -19  -2   60.29    8.20
   4  19  -1    2.50    5.60
   4  19  -1    0.70    6.70
  -4  19   1    3.90    6.90
  -4 -19   1  -14.30    6.10
   4 -19  -1   -9.20    6.90
  -4 -19   1    4.40    7.80
   4 -19  -1   -4.80    7.00
   4  19   0  106.49   10.10
  -4  19   0  114.89   10.80
   4  19   0  123.09   10.10
  -4 -19   0  153.68   12.90
  -4 -19   0  151.88   11.90
   4 -19   0  125.79   11.20
   4 -19   0  137.69   12.00
   4  19   1    9.00    7.80
   4  19   1    3.90    6.60
  -4  19  -1   -2.00    6.80
  -4 -19  -1    4.10    6.50
   4 -19   1    1.50    6.70
   4 -19   1   -1.50    8.00
  -4 -19  -1   -2.90    7.80
   4  19   2  -11.10    7.00
  -4  19  -2   -6.90    8.20
   4  19   2    6.90    7.50
   4 -19   2   -3.80    7.10
  -4 -19  -2   -7.60    6.70
   4 -19   2    1.60    8.90
  -4 -19  -2    8.60    6.70
   4  19   3   -3.00    7.40
   4  19   3    9.20    7.40
   4 -19   3    7.20    9.70
  -4 -19  -3   -0.30    7.10
   4 -19   3   -1.00    6.30
  -4 -19  -3    5.90    7.90
   4  19   4   99.69   11.70
   4 -19   4   89.49   14.80
  -4 -19  -4   96.79   11.80
   4 -19   4   95.89   10.40
   4  19   5    0.20    7.70
   4 -19   5    1.70    7.20
  -4 -19  -5    1.20    8.40
   4  19   6   -2.20    8.00
   4 -19   6   -3.10    7.60
   4  19   7    4.30    8.40
   4 -19   7  -11.50    7.10
   4  19   8   -6.70    7.90
   4 -19   8    2.50    7.80
   4  19   9   -4.00    8.20
   4 -19   9   -8.70    6.80
  -4  20  11    2.90    6.80
  -4  20  10   -3.40    6.90
  -4  20   9   -7.40    6.60
  -4  20   8    3.00    7.20
  -4  20   7   -0.80    7.00
  -4 -20   7    0.50    4.80
  -4  20   6   -2.60    6.90
  -4 -20   6    9.00    9.20
  -4 -20   6   -5.50    5.10
  -4  20   5   10.80   12.20
  -4  20   5    0.90    6.90
  -4 -20   5    2.90    8.00
  -4 -20   5    8.10    5.80
  -4  20   4   -5.00    7.10
  -4 -20   4   -6.90    7.80
  -4 -20   4   10.30    6.10
  -4  20   3   22.20    8.20
   4 -20  -3   45.10    8.90
  -4 -20   3   23.50    8.80
  -4 -20   3    6.30    6.20
  -4  20   2   56.99    9.20
  -4 -20   2   31.50    9.10
   4 -20  -2   59.89    8.90
   4 -20  -2   38.90    8.00
  -4 -20   2   57.09    8.50
   4  20  -1   19.00    9.80
  -4  20   1   17.00    6.90
   4  20  -1   40.70    7.00
  -4 -20   1   49.40    9.70
  -4 -20   1   41.10    8.30
   4 -20  -1   29.70    8.70
   4 -20  -1   32.60    8.20
  -4  20   0   10.80    6.70
   4  20   0   10.90    6.40
   4  20   0   11.50    7.20
   4 -20   0   13.60    8.20
  -4 -20   0   -0.20    7.90
  -4 -20   0   15.80    7.70
   4 -20   0   12.30    8.40
   4  20   1  -13.70    5.80
   4  20   1   18.70    8.20
  -4  20  -1   -4.70    6.80
  -4 -20  -1   11.30    8.40
  -4 -20  -1   -8.80    6.30
   4 -20   1   12.90    8.60
   4 -20   1    5.90    6.90
   4  20   2   46.80    9.50
   4  20   2   48.50    8.80
  -4 -20  -2   57.09    9.10
   4 -20   2   44.20    9.40
   4 -20   2   45.00   10.50
  -4 -20  -2   47.00    9.70
   4  20   3   11.70    7.80
   4  20   3   -2.70    7.40
   4 -20   3  -11.10    9.70
  -4 -20  -3   -8.20    7.90
  -4 -20  -3   -5.60    7.70
   4 -20   3   -3.70    7.40
   4  20   4    3.90    7.50
   4 -20   4   10.00    8.10
  -4 -20  -4   -7.00    8.10
   4  20   5   -1.30    8.40
   4 -20   5    1.20    7.60
   4  20   6   -5.50    8.30
   4 -20   6    7.80    8.20
   4  20   7   15.10    8.80
   4 -20   7    3.50    7.80
   4  20   8   -4.60    8.40
   4 -20   8    1.40    8.10
   4  20   9   10.80    9.30
   4 -20   9   -1.10    7.60
  -4  21  11   -0.80    6.90
  -4  21  10    5.20    7.50
  -4  21   9   -9.40    6.90
  -4  21   8   11.80    7.80
  -4  21   7   -5.70    7.00
  -4 -21   7    1.90    5.20
  -4  21   6   10.80    7.70
  -4 -21   6    6.10    5.70
  -4  21   5   -1.50    6.70
  -4 -21   5    1.00    5.80
  -4 -21   5    8.80    7.90
  -4  21   4   -2.80    7.80
  -4 -21   4   10.80    6.50
  -4 -21   4   -4.20    8.40
  -4  21   3    0.60    7.40
  -4 -21   3  -11.10    7.80
  -4 -21   3    7.20    6.90
   4 -21  -3   14.20    8.30
  -4  21   2   12.50    7.80
   4 -21  -2   23.50    7.80
   4 -21  -2   21.50    8.50
  -4 -21   2   13.60    8.70
  -4 -21   2   21.00    7.80
  -4  21   1    0.80    7.20
   4  21  -1    6.20    6.00
   4 -21  -1   -4.70    7.50
  -4 -21   1   22.40    8.10
  -4 -21   1   -3.50    7.80
   4 -21  -1    7.40    7.70
   4  21   0   -4.60    6.10
  -4  21   0    4.90    6.80
   4  21   0    3.40    7.50
   4 -21   0    2.60    8.60
  -4 -21   0    2.10    8.60
  -4 -21   0   -1.70    6.30
   4 -21   0    5.40    7.90
   4  21   1    5.70    7.00
   4  21   1   -3.40    7.90
  -4  21  -1    6.90    7.40
   4 -21   1    1.80    8.70
  -4 -21  -1   -5.10    6.50
   4 -21   1    2.50    6.90
  -4 -21  -1    1.10    8.40
   4  21   2   23.20    8.20
   4  21   2   26.60    8.70
  -4 -21  -2   18.10    9.20
   4 -21   2   24.20   10.10
   4 -21   2   18.70    8.70
  -4 -21  -2   16.90    7.60
   4  21   3    7.30    8.40
   4  21   3   -4.90    8.40
   4 -21   3   -2.50    7.60
  -4 -21  -3    0.00    8.00
   4 -21   3   19.60    9.60
  -4 -21  -3   -8.00    8.40
   4  21   4   35.30    9.90
   4 -21   4   16.90    8.20
   4  21   5    9.60    7.90
   4 -21   5   -7.30    7.60
   4  21   6   10.60    8.50
   4 -21   6   23.20    8.60
   4  21   7   21.40   10.20
   4 -21   7   -3.20    7.80
   4  21   8   14.90    9.60
   4 -21   8   10.20    8.30
   4  21   9   14.60    9.60
   4 -21   9  -11.50    7.40
  -4  22  11   -1.40    7.30
  -4  22  10    9.10    7.70
  -4  22   9   -0.20    7.40
  -4  22   8   -6.80    7.50
  -4  22   7   -9.20    7.30
  -4 -22   7   -8.20    4.90
  -4  22   6    4.40    7.80
  -4 -22   6    0.00    5.60
  -4  22   5    6.70    7.70
  -4 -22   5    4.80    6.30
  -4  22   4   -1.70    7.60
  -4 -22   4   -4.60    6.70
  -4 -22   4   -6.00    8.60
  -4  22   3   20.20    8.60
  -4 -22   3    7.60    8.80
   4 -22  -3   -2.80    8.40
  -4 -22   3   10.80    7.20
  -4  22   2    1.40    7.90
   4 -22  -2   25.70    8.40
  -4 -22   2   22.30    8.10
  -4 -22   2   11.40    7.30
   4 -22  -2   -0.90    7.90
  -4  22   1   26.70    8.50
   4 -22  -1    7.40    8.00
  -4 -22   1   24.80    8.10
   4 -22  -1    9.30    7.40
  -4 -22   1    4.20    7.70
  -4  22   0   -1.30    6.90
   4  22   0    0.60    8.20
   4  22   0   -7.00    6.10
  -4 -22   0   -3.40    7.40
  -4 -22   0    1.00    8.40
   4 -22   0    2.00    8.50
   4 -22   0  -13.90    7.30
   4  22   1  -14.50    6.50
   4  22   1    7.50    8.50
  -4  22  -1    1.50    6.30
  -4 -22  -1  -12.60    7.40
   4 -22   1   -4.70    7.90
  -4 -22  -1   -8.90    8.60
   4 -22   1   13.90    9.50
   4  22   2   40.30    9.90
   4  22   2   37.90    9.20
  -4 -22  -2   48.30    9.90
   4 -22   2   50.09   10.10
   4 -22   2   39.20   10.90
  -4 -22  -2   29.60    9.00
   4  22   3   14.80    8.60
  -4 -22  -3   -1.80    8.00
  -4 -22  -3    8.50   13.80
   4 -22   3  -12.20    7.40
   4  22   4   -7.60    8.40
   4 -22   4    1.00    7.90
   4  22   5    2.90    8.90
   4 -22   5    8.10    8.70
   4  22   6   -3.00    9.20
   4 -22   6    3.30    8.20
   4  22   7    9.70    8.70
   4 -22   7    5.80    8.30
   4  22   8    1.90    9.30
   4 -22   8   -3.60    8.30
   4  22   9    8.90    9.60
   4 -22   9   -0.30    8.10
  -4  23  10    2.90    8.00
  -4  23   9   -1.20    7.70
  -4  23   8   18.00    8.50
  -4  23   7   17.10    8.30
  -4 -23   7   -4.00    5.30
  -4  23   6    5.40    7.60
  -4 -23   6    4.20    6.10
  -4  23   5    2.30    8.10
  -4 -23   5   15.40    7.10
  -4  23   4   11.60    7.80
  -4 -23   4   12.00    7.10
  -4  23   3    7.50    8.10
   4 -23  -3    6.30    8.40
  -4 -23   3   -1.80    7.10
  -4 -23   3  -18.30   14.20
  -4  23   2   -8.90    7.60
  -4 -23   2    8.90    7.90
   4 -23  -2   10.60    8.40
  -4 -23   2    9.10    9.50
   4 -23  -2   13.00    8.90
  -4  23   1   -5.70    7.60
  -4 -23   1    1.40    7.60
  -4 -23   1   12.30    9.10
   4 -23  -1    0.60    8.30
   4 -23  -1    0.70    8.20
  -4  23   0   18.20    8.70
   4  23   0    5.00    7.30
   4  23   0   25.20    9.10
  -4 -23   0   11.30    8.50
   4 -23   0   15.30    8.80
   4 -23   0   25.80    9.90
  -4 -23   0   29.90    8.00
   4  23   1   -9.90    6.80
   4  23   1   -0.70    8.10
  -4  23  -1    8.30    8.10
   4 -23   1  -10.20    6.70
  -4 -23  -1    9.20    7.50
   4 -23   1    3.00    9.10
  -4 -23  -1    6.00    9.00
   4  23   2    7.70    8.00
   4  23   2    0.80    8.30
  -4 -23  -2   -6.70    7.80
   4 -23   2    3.40   11.50
   4 -23   2    1.10    7.20
   4  23   3   -5.90    7.90
   4 -23   3   -1.60    7.90
  -4 -23  -3   -4.70    7.10
   4  23   4  -17.20    8.00
   4 -23   4    2.00    8.10
   4  23   5   16.40    9.80
   4 -23   5   -1.60    8.10
   4  23   6   23.80   10.10
   4 -23   6   17.90    9.00
   4  23   7   -6.10    9.10
   4 -23   7   11.30    8.70
   4  23   8   -0.10    9.30
   4 -23   8    9.50    8.70
  -4  24  10   13.60    8.40
  -4  24   9    8.20    8.30
  -4  24   8   -4.70    7.80
  -4  24   7    5.10    8.10
  -4 -24   7    0.30    5.80
  -4  24   6    5.70    7.90
  -4 -24   6    2.20    6.50
  -4  24   5   12.60    8.70
  -4 -24   5    2.40    6.80
  -4  24   4   13.40    7.50
  -4 -24   4    2.40    7.30
  -4  24   3  -11.30    8.00
  -4 -24   3    3.00    7.60
   4 -24  -3  -17.10    7.00
  -4  24   2   -3.10    7.20
  -4 -24   2    7.00    8.40
   4 -24  -2   23.10    9.30
  -4  24   1   14.30    8.90
  -4 -24   1    8.50    8.50
   4 -24  -1   -2.30    8.70
   4 -24  -1    6.60    8.90
   4  24   0   -5.10    7.30
  -4  24   0    3.50    7.20
   4  24   0   -0.90    7.10
  -4 -24   0    6.70    8.30
   4 -24   0   -3.50    8.60
   4 -24   0    3.50    9.10
   4  24   1   44.80    9.60
   4  24   1   28.40    9.90
  -4  24  -1   17.90    8.10
   4 -24   1   38.70    9.90
  -4 -24  -1   36.30    9.80
   4 -24   1   58.49   11.60
   4  24   2   16.80    9.20
   4 -24   2   23.70    9.40
  -4 -24  -2   26.00    9.70
   4  24   3   -1.60    8.30
   4 -24   3    6.20    8.70
  -4 -24  -3   18.70    9.20
   4  24   4  -10.70    8.10
   4 -24   4  -20.30    7.80
   4  24   5   15.00    9.40
   4 -24   5  -14.50    7.70
   4  24   6   12.70    9.90
   4 -24   6   12.60    8.90
   4  24   7    4.60    9.40
   4 -24   7    9.30    8.90
   4  24   8   -6.80    9.30
   4 -24   8   -1.80    8.60
  -4  25  10   13.00    9.20
  -4  25   9    5.40    8.50
  -4  25   8   -0.30    8.40
  -4 -25   8   -2.90    8.70
  -4  25   7   -0.30    8.20
  -4 -25   7   15.60    6.60
  -4  25   6    6.90    8.40
  -4 -25   6    0.80    6.70
  -4  25   5    7.70    8.70
  -4 -25   5   11.40    7.50
  -4  25   4   -9.80    7.00
  -4 -25   4    0.90    7.50
  -4  25   3   12.80    8.10
  -4 -25   3   20.00    8.60
   4 -25  -3   23.00   15.10
  -4  25   2    8.50    9.00
  -4 -25   2    5.70    8.50
   4 -25  -2    6.60    8.20
  -4  25   1   25.50    9.70
  -4 -25   1   18.90    9.20
   4 -25  -1   27.40   10.40
   4 -25  -1   37.60   10.20
  -4  25   0   11.40    7.90
   4 -25   0   23.30    9.50
   4 -25   0   17.80   10.10
  -4 -25   0   22.80    9.50
   4  25   1   30.00   10.30
   4  25   1   36.30    9.10
   4 -25   1   22.20    9.00
  -4 -25  -1   18.20    9.60
   4  25   2    7.70    8.20
  -4 -25  -2   10.10    8.10
   4 -25   2    2.10    7.70
   4  25   3    4.70    9.20
  -4 -25  -3    7.70    9.00
   4 -25   3   -5.30    7.80
   4  25   4    0.60    7.70
   4 -25   4   -9.20    7.90
   4  25   5    7.70    8.50
   4 -25   5   -9.20    8.40
   4  25   6   -1.30    9.60
   4 -25   6   -2.30    8.80
   4  25   7   -2.60    9.90
   4 -25   7    1.60    9.00
   4  25   8   -0.20    9.60
   4 -25   8    8.60    9.60
  -4  26   9  -15.30    7.80
  -4  26   8    7.00    9.10
  -4 -26   8  -10.20    6.00
  -4  26   7    8.40    8.50
  -4 -26   7    6.50    6.50
  -4  26   6  -10.60    8.00
  -4 -26   6   -5.30    6.80
  -4  26   5    3.00    9.30
  -4 -26   5    7.50    7.50
  -4  26   4    2.70    8.30
  -4 -26   4   -3.50    7.70
  -4  26   3  -17.60    8.00
  -4 -26   3   -9.60    7.70
  -4  26   2   11.10    9.50
  -4 -26   2   -3.10    8.20
   4 -26  -2    8.20    8.50
  -4  26   1   12.50    9.60
   4 -26  -1   11.80    9.90
  -4 -26   1    9.40    8.70
   4 -26  -1   15.70    9.50
  -4  26   0  -17.20    6.70
  -4 -26   0   -4.80    8.70
   4 -26   0   -0.30    8.80
   4  26   1   -5.40    9.20
  -4 -26  -1   -9.40    8.50
   4 -26   1   12.50    9.30
   4  26   2   -7.00    9.40
  -4 -26  -2    1.30    8.40
   4 -26   2   -4.60    9.00
   4  26   3   19.90    9.90
  -4 -26  -3   22.30    9.00
   4 -26   3   22.00    9.90
   4  26   4    7.90    9.60
   4 -26   4   -8.40    8.70
   4  26   5    8.70   10.30
   4 -26   5   -6.20    8.50
   4  26   6    5.40   10.40
   4 -26   6   -2.90    9.20
   4  26   7  -24.30    8.90
   4 -26   7    8.90    9.90
  -4  27   9   -4.70    8.10
  -4  27   8   -0.20    9.00
  -4 -27   8    0.50    6.20
  -4  27   7   -0.60    8.70
  -4 -27   7    1.80    6.80
  -4  27   6   -3.80    9.00
  -4 -27   6  -14.70    6.50
  -4  27   5  -11.50    8.40
  -4 -27   5   -9.60    7.30
  -4  27   4   -4.40    8.40
  -4 -27   4  -12.50    7.60
  -4  27   3   -1.80    8.70
  -4 -27   3    2.30    8.00
  -4  27   2    8.20    8.70
  -4 -27   2   -9.30    7.70
   4 -27  -2   -6.40    9.10
  -4  27   1   -6.00    7.80
   4 -27  -1   -9.90    9.00
  -4 -27   1   14.10    8.90
  -4  27   0   13.80    8.40
   4 -27   0   12.20    8.80
  -4 -27   0   21.10    9.50
   4  27   1    6.10    9.60
   4 -27   1   21.00   10.20
  -4 -27  -1    5.00    9.40
   4  27   2    0.50    9.80
   4 -27   2  -13.60    8.60
  -4 -27  -2    0.30    8.10
   4  27   3   10.10    8.70
  -4 -27  -3    2.50    8.30
   4 -27   3   -2.90    9.00
   4  27   4    6.00    9.40
   4 -27   4   -1.20    8.60
   4  27   5   13.00   10.00
   4 -27   5   11.00    9.90
   4  27   6   -8.50    8.40
   4 -27   6   19.30   10.20
   4  27   7    6.20   10.30
   4 -27   7    1.70    9.60
  -4  28   8    6.30    9.20
  -4 -28   8  -11.70    6.00
  -4  28   7   21.20   10.00
  -4 -28   7    7.20    7.10
  -4  28   6    9.80    9.00
  -4 -28   6    8.40    7.70
  -4  28   5    0.80    8.70
  -4 -28   5    3.70    7.70
  -4  28   4   -5.50    8.80
  -4 -28   4  -10.60    7.40
  -4  28   3    6.20    8.30
  -4 -28   3    1.40    8.10
  -4  28   2   -7.90    9.10
   4 -28  -2    1.60    9.40
  -4 -28   2   -6.60    8.60
  -4  28   1   -4.90    9.30
   4 -28  -1    8.90    8.70
  -4 -28   1   12.50    9.50
  -4  28   0    9.10    8.90
   4 -28   0   -0.50    9.20
  -4 -28   0   -3.60    8.00
   4  28   1  -19.60    8.60
   4 -28   1  -11.00    9.70
  -4 -28  -1    3.70    9.10
   4  28   2    0.60   10.00
  -4 -28  -2    6.70    8.50
   4 -28   2   -1.90    9.40
   4  28   3   -4.30    8.30
  -4 -28  -3   -5.50    8.10
   4 -28   3   -5.20    8.80
   4  28   4   -5.00    8.40
   4 -28   4   -1.40    9.30
   4  28   5    8.10   10.70
   4 -28   5  -10.00    9.00
   4  28   6  -14.10    9.60
   4 -28   6    9.10    9.80
   4  28   7    4.40   10.70
   4 -28   7   -5.70    9.10
  -4  29   8   -2.00    8.90
  -4 -29   8    6.40    6.70
  -4  29   7   11.80    9.50
  -4 -29   7    5.20    7.60
  -4  29   6    3.70    9.50
  -4 -29   6   -4.30    7.60
  -4  29   5   -5.20    8.20
  -4 -29   5   10.40    8.30
  -4  29   4   -7.10    9.10
  -4 -29   4  -12.80    7.90
  -4  29   3   43.50   10.90
  -4 -29   3   40.50   10.20
  -4  29   2   13.80    8.90
  -4 -29   2   -8.80    8.60
   4 -29  -2  -19.70    8.80
  -4  29   1   -3.20    9.50
   4 -29  -1    4.00    8.70
  -4 -29   1   -2.20    8.90
  -4  29   0   27.10   10.70
   4 -29   0    2.70    9.90
  -4 -29   0    1.10    9.60
   4  29   1    5.80    9.30
   4 -29   1   18.20   10.40
  -4 -29  -1   13.10    9.00
   4  29   2   -1.70    9.80
   4 -29   2    5.00    9.70
  -4 -29  -2   -2.60    9.40
   4  29   3   10.50    9.30
   4 -29   3   -3.90    9.70
  -4 -29  -3   10.50    9.30
   4  29   4    4.30    9.70
   4 -29   4    7.40   10.30
   4  29   5   13.50   10.60
   4 -29   5    9.10   10.00
   4  29   6   -9.90    9.90
   4 -29   6    8.60   10.50
  -4  30   7   -4.70    8.90
  -4 -30   7   -1.10    7.50
  -4  30   6   -8.50    8.80
  -4 -30   6    5.50    8.00
  -4  30   5   16.50   10.00
  -4 -30   5    0.40    8.10
  -4  30   4   11.20   10.20
  -4 -30   4    5.00    8.60
  -4  30   3   14.20   10.70
  -4 -30   3    1.80    9.10
  -4  30   2    9.20   10.30
   4 -30  -2  -23.20    9.60
  -4 -30   2    3.80    9.20
  -4  30   1    3.80    8.70
   4 -30  -1   -3.50   10.20
  -4 -30   1   15.00    9.50
   4 -30   0   14.70   11.20
  -4 -30   0   14.40    9.50
  -4 -30  -1   -7.70    9.80
   4 -30   1   -2.70   10.00
   4  30   2   -7.50    9.80
   4 -30   2   16.00   10.00
  -4 -30  -2  -15.70    9.50
   4  30   3    9.70    9.40
  -4 -30  -3    8.00   10.30
   4 -30   3   22.20   11.30
   4  30   4    8.20   10.30
   4 -30   4   13.10   10.40
   4  30   5    4.20   10.10
   4 -30   5    7.10   10.40
   4  30   6    7.00   10.80
   4 -30   6   -9.70   10.10
  -4  31   7    0.70    9.70
  -4 -31   7    0.20    7.40
  -4  31   6   -3.90    9.60
  -4 -31   6    6.60    8.40
  -4  31   5  -12.00    9.80
  -4 -31   5   12.60    9.30
  -4  31   4    6.80   10.60
  -4 -31   4    4.30    8.90
  -4  31   3   -8.50    9.80
  -4 -31   3   -8.10    8.90
  -4  31   2    1.10    9.70
   4 -31  -2   18.80   10.00
  -4 -31   2    5.10    9.20
  -4  31   1   10.00   10.20
  -4 -31   1    2.10    9.30
   4 -31  -1   13.90   11.10
  -4 -31   0   -1.70   10.20
   4 -31   0    1.90   10.50
  -4 -31  -1   -0.50    9.60
   4 -31   1    9.60   10.90
   4  31   2    5.00   10.60
   4 -31   2   -3.50   10.20
  -4 -31  -2    5.40   10.30
   4  31   3   -9.00   10.10
  -4 -31  -3   -2.90   10.00
   4 -31   3   13.00   11.30
   4  31   4   -5.30    9.70
   4 -31   4   -2.00   10.60
   4  31   5    1.10   10.30
   4 -31   5   11.00   11.00
  -4  32   6   10.20    9.90
  -4 -32   6    5.50    8.70
  -4  32   5    0.50   10.10
  -4 -32   5    8.10    8.90
  -4  32   4    1.10   10.20
  -4 -32   4    2.20    8.90
  -4  32   3   -7.20   10.10
  -4 -32   3   -1.50    8.80
  -4  32   2    3.10    9.90
   4 -32  -2   -8.50   10.50
  -4 -32   2   16.60   10.20
  -4  32   1    5.80   10.00
   4 -32  -1    3.30    9.80
  -4 -32   1  -13.10    9.30
   4 -32   0    6.80   10.80
  -4 -32   0  -14.30    9.20
   4 -32   1   12.30   10.10
  -4 -32  -1   12.30   11.20
   4  32   2   -2.40   10.70
   4 -32   2    3.10   10.70
  -4 -32  -2    2.00   10.60
   4  32   3   -5.50   10.60
  -4 -32  -3   -2.20    9.20
   4 -32   3  -31.20    9.10
   4  32   4   -1.10    9.70
   4 -32   4   11.00   10.90
  -4  33   5  -12.60    9.30
  -4 -33   5    1.80    9.20
  -4  33   4    5.30   10.40
  -4 -33   4   11.40    9.60
  -4  33   3   -2.00    9.40
  -4 -33   3    8.70   10.30
  -4  33   2   15.00   11.30
  -4 -33   2  -16.90    9.40
   4 -33  -2   17.00   10.50
  -4  33   1   -6.30   10.20
  -4 -33   1   -8.90    9.80
   4 -33  -1  -11.40   10.60
   4 -33   0   -7.50   10.50
  -4 -33   0   -7.40   10.10
  -4 -33  -1   -3.60    9.10
   4 -33   1    2.90   10.70
   4  33   2    1.00    9.50
  -4 -33  -2   -0.10   10.20
   4 -33   2   -5.20   10.90
   4  33   3   -6.40    9.40
   4 -33   3   15.60   11.50
  -4 -33  -3   16.60   11.60
   4  33   4   10.80   11.50
  -4  34   4    1.60   10.60
  -4 -34   4   20.10   10.20
  -4  34   3   -2.10   10.90
  -4 -34   3   15.60   10.20
  -4  34   2   11.40   11.10
   4 -34  -2    0.80   11.30
  -4 -34   2  -20.80    9.10
  -4  34   1   -5.10   10.50
   4 -34  -1    8.10   10.20
  -4 -34   1    3.90   10.10
  -4 -34   0    9.00   11.00
   4 -34   0   31.00   12.60
   4 -34   1  -15.40   10.30
  -4 -34  -1    0.70   10.90
  -4 -34  -2   -8.30   10.70
   4 -34   2    2.10   11.50
   4  34   3   -1.10   11.30
   4 -34   3    1.40   10.80
  -4 -34  -3  -11.80    9.00
  -4  35   3   17.90   12.00
  -4 -35   3   13.70   10.60
  -4  35   2   10.30   12.00
  -4 -35   2   -3.40   10.30
   4 -35  -2    3.40   11.50
  -4 -35   1   11.60   10.80
   4 -35  -1   21.00   12.90
   4 -35   0    6.80   11.20
  -4 -35   0   13.20   11.80
   4 -35   1   -0.50   11.50
  -4 -35  -1    5.10   11.40
  -5   0  13   19.50   12.40
  -5   0  12   10.00   10.90
  -5   0  11    9.10   10.30
  -5   0  10   17.20    9.70
  -5   0   9    6.30    7.70
  -5   0   8   -2.50    7.50
  -5   0   7   -7.50    6.30
  -5   0   6  112.79    9.30
  -5   0   6  108.39    4.00
  -5   0   6   94.59    6.30
   5   0  -6  105.99    3.40
  -5   0   6  120.99    9.60
   5   0  -5   -0.40    2.00
  -5   0   5   -0.30    2.30
   5   0  -5   -0.60    2.30
  -5   0   5    0.30    5.00
  -5   0   5    5.10    4.90
  -5   0   5    2.00    2.70
   5   0  -4   42.30    6.10
  -5   0   4   45.50    6.30
  -5   0   4   47.20    3.70
  -5   0   4   49.90    4.30
   5   0  -4   43.20    3.50
  -5   0   4   45.30    6.50
  -5   0   3   -0.40    4.10
   5   0  -3    5.50    4.70
  -5   0   3    2.50    3.00
  -5   0   3   -0.80    3.50
  -5   0   2    4.10    4.00
   5   0  -2   -1.20    4.20
  -5   0   2    7.00    4.00
  -5   0   2   10.50    3.70
  -5   0   1    0.90    4.10
  -5   0   1    5.20    4.20
  -5   0   1    3.10    3.60
  -5   0   0  428.76   11.00
  -5   0   0  424.76   13.20
   5   0   1   -7.40    5.10
  -5   0  -1    0.20    3.60
  -5   0  -1    2.30    5.00
   5   0   2   -5.40    5.70
   5   0   2    0.20    4.50
  -5   0  -2   -3.10    4.20
  -5   0  -2    1.60    3.70
  -5   0  -3   -0.50    4.00
   5   0   3    8.00    6.40
  -5   0  -3    3.70    4.70
   5   0   3    6.90    5.40
  -5   0  -4   11.40    4.40
   5   0   4    2.70    5.70
   5   0   4    6.00    6.70
  -5   0  -5   -3.90    4.70
   5   0   5    3.80    7.70
   5   0   5   -1.90    5.90
  -5   0  -6   -3.50    5.10
   5   0   6    4.30    6.50
   5   0   6   -5.00    8.00
   5   0   7    8.00    6.60
  -5   0  -7   13.00    6.20
   5   0   8    0.70    6.90
  -5   0  -8    7.50    6.50
  -5   0  -9  -13.70    6.10
   5   0   9    2.20    7.00
   5   0  10   13.20    7.60
   5   0  10    6.80    7.40
  -5   0 -10   15.20    8.00
  -5   0 -11   -6.30    7.00
   5   0  11    3.40    7.80
   5   1 -13   -1.90    2.60
  -5   1  13   21.60   12.40
   5  -1 -13   -2.90    3.50
  -5  -1  13    6.00   11.90
  -5   1  12    9.90   10.90
  -5  -1  12    1.60   11.00
   5  -1 -12    0.00    2.80
  -5   1  11    0.70    9.70
  -5  -1  11    5.00    9.70
  -5   1  10   -1.90    8.90
  -5  -1  10    6.90    9.60
  -5   1   9   89.89   11.70
  -5  -1   9   76.79   11.30
  -5   1   8  152.78   12.60
  -5  -1   8  131.09   11.80
  -5   1   7    6.70    6.10
  -5  -1   7   14.20    7.10
  -5   1   6   59.19    5.20
  -5   1   6   49.90    7.40
  -5   1   6   54.09    3.80
  -5   1   6   65.59    8.10
   5  -1  -6   53.19    3.30
  -5  -1   6   50.79    4.40
  -5  -1   6   41.80    7.20
  -5  -1   6   59.79    7.70
   5   1  -5    0.60    1.90
  -5   1   5    3.70    2.80
  -5   1   5    4.00    1.80
  -5   1   5   -0.70    5.00
   5   1  -5    0.50    2.70
  -5   1   5    1.30    5.20
  -5  -1   5   -0.30    2.60
   5  -1  -5   -0.90    2.20
  -5  -1   5    0.20    2.80
  -5  -1   5   -0.40    2.60
  -5  -1   5   -1.30    4.80
  -5  -1   5    1.90    5.10
   5   1  -4   47.70    5.90
   5   1  -4   57.49    3.60
  -5   1   4   56.29    6.00
  -5   1   4   55.99    4.60
  -5   1   4   58.59    6.40
  -5   1   4   49.00    3.40
   5   1  -4   57.69    4.20
  -5  -1   4   41.40    5.90
   5  -1  -4   44.80    6.30
  -5  -1   4   54.39    4.40
   5  -1  -4   53.69    3.80
  -5  -1   4   58.29    4.20
  -5   1   3   -0.20    2.90
  -5   1   3   -4.50    3.90
   5   1  -3   -2.00    4.40
  -5   1   3    2.90    3.60
  -5  -1   3    3.50    3.50
  -5  -1   3   -4.20    3.10
  -5  -1   3   -3.80    4.10
   5  -1  -3   -2.00    4.20
  -5   1   2  255.97    9.30
   5   1  -2  257.27   10.00
  -5   1   2  273.27    9.50
  -5   1   2  266.07    8.70
  -5  -1   2  246.88    9.10
  -5  -1   2  253.77    9.70
  -5  -1   2  253.27    9.00
  -5  -1   2  243.88    8.60
   5  -1  -2  252.47    9.90
  -5   1   1   47.90    4.60
  -5   1   1   35.90    5.10
  -5  -1   1   37.30    5.10
  -5  -1   1   41.80    4.80
  -5  -1   1   38.20    5.40
  -5   1   0  279.87    8.30
  -5   1   0  291.07   10.90
  -5  -1   0  282.57    9.20
  -5  -1   0  272.67   10.80
  -5  -1   0  289.87   11.10
   5  -1   0  293.47   11.40
   5   1   1  800.82   20.30
  -5   1  -1  855.91   18.50
  -5   1  -1  796.12   19.60
   5   1   1  835.72   20.00
  -5  -1  -1  806.02   20.00
   5  -1   1  826.02   19.90
  -5   1  -2   24.60    5.80
  -5   1  -2   32.60    4.70
   5   1   2   23.30    5.50
   5   1   2   10.80    6.10
   5  -1   2   14.00    4.90
  -5  -1  -2   26.60    4.60
  -5  -1  -2   37.50    6.10
   5   1   3   14.00    6.60
  -5   1  -3   30.20    6.20
  -5   1  -3   21.10    4.80
   5   1   3   13.50    5.90
  -5  -1  -3   17.00    4.70
   5  -1   3   19.80    5.80
  -5  -1  -3   23.60    5.40
   5   1   4   -2.50    6.70
  -5   1  -4    2.80    4.60
   5   1   4    2.50    5.50
   5  -1   4    0.80    6.90
   5  -1   4   -8.70    5.20
  -5  -1  -4    1.90    4.50
  -5  -1  -4    4.20    8.00
  -5   1  -5   -3.90    4.80
   5   1   5   -8.70    7.20
   5   1   5    3.10    5.80
  -5  -1  -5    3.10    5.00
   5  -1   5   10.30    7.90
   5  -1   5    1.10    5.90
  -5   1  -6   -2.00    5.10
   5   1   6    2.00    8.20
   5   1   6    2.60    6.40
   5  -1   6    4.20    6.40
   5  -1   6    9.50    8.10
  -5  -1  -6   -0.30    5.10
   5   1   7    7.80    6.80
  -5   1  -7   -0.60    5.70
  -5  -1  -7   10.80    5.80
   5  -1   7    0.30    6.40
  -5   1  -8   13.80    6.40
   5   1   8   20.80    7.60
   5  -1   8    6.90    6.90
  -5  -1  -8   -4.00    6.40
   5   1   9   -0.60    6.90
  -5   1  -9  -10.50    6.10
  -5  -1  -9   26.10    7.80
   5  -1   9   13.40    7.20
  -5   1 -10   -0.80    7.30
   5   1  10    0.60    7.10
  -5  -1 -10    1.80    7.10
   5  -1  10   -1.20    6.70
  -5   1 -11    7.50    7.90
   5   1  11    0.90    6.80
  -5  -1 -11   -6.70    7.00
  -5   2  13    1.60    9.90
  -5  -2  13   15.10   12.10
   5  -2 -13   -4.80    3.80
  -5   2  12   -0.90   10.80
   5  -2 -12   -7.50    3.40
  -5  -2  12   -3.40    9.40
  -5   2  11   10.80    9.20
   5  -2 -11   13.60    3.00
  -5  -2  11   14.80   10.10
  -5   2  10    1.80    8.80
   5  -2 -10   -3.30    2.10
  -5  -2  10    5.90    9.40
  -5   2   9   13.40    8.80
  -5  -2   9   34.40    9.30
  -5   2   8   43.50    9.50
  -5  -2   8   30.70    8.50
   5  -2  -8   44.10    2.90
   5  -2  -8   48.70    2.90
  -5   2   7  193.58   12.70
  -5  -2   7  188.98   12.70
   5  -2  -7  192.28    5.20
   5  -2  -7  196.88    5.30
  -5   2   6   -0.40    2.60
  -5   2   6    9.30    5.80
  -5   2   6    7.00    4.10
  -5   2   6   -2.10    5.60
  -5  -2   6   -9.90    5.50
   5  -2  -6   -1.30    2.10
  -5  -2   6    5.40    5.70
  -5  -2   6    2.60    3.30
  -5   2   5   -0.80    4.90
   5   2  -5   12.40    3.30
   5   2  -5    7.60    2.10
  -5   2   5    8.30    5.30
  -5   2   5    9.50    3.20
  -5  -2   5   10.40    2.70
  -5  -2   5    1.00    2.40
  -5  -2   5    8.80    5.10
  -5  -2   5    9.50    3.30
  -5  -2   5    8.10    5.10
   5  -2  -5   10.80    2.60
  -5   2   4   94.89    4.10
   5   2  -4   90.89    4.60
  -5   2   4   94.69    4.10
  -5   2   4   88.69    7.20
  -5   2   4   99.79    7.60
   5   2  -4   86.59    7.20
   5   2  -4   95.69    6.00
  -5   2   4   96.99    6.00
   5  -2  -4  104.59    7.80
  -5  -2   4   88.39    5.90
  -5  -2   4   96.99    5.70
  -5  -2   4   76.69    6.80
   5  -2  -4  101.29    5.20
  -5   2   3   41.90    3.70
  -5   2   3   39.60    4.60
   5   2  -3   44.90    6.10
  -5   2   3   38.30    3.60
  -5   2   3   39.30    5.30
   5   2  -3   47.20    4.60
  -5  -2   3   32.50    5.30
  -5  -2   3   39.80    3.80
  -5  -2   3   39.30    4.50
  -5  -2   3   33.10    4.20
   5  -2  -3   44.90    5.50
  -5   2   2    6.60    4.30
  -5   2   2   10.00    3.70
  -5   2   2    5.70    3.40
  -5   2   2   11.70    4.00
  -5  -2   2    6.50    3.80
  -5  -2   2    8.40    4.00
   5  -2  -2   10.90    4.20
  -5  -2   2   10.20    3.60
  -5  -2   2   11.30    4.50
  -5   2   1  201.58    9.20
  -5   2   1  195.78    7.70
   5  -2  -1  192.88    7.60
  -5  -2   1  203.38    8.70
  -5  -2   1  193.88    8.70
  -5  -2   1  197.68    9.00
  -5  -2   1  206.68    9.90
  -5   2   0  147.69    6.30
  -5   2   0  151.98    9.00
   5  -2   0  161.58    9.40
  -5  -2   0  163.58    9.30
  -5  -2   0  161.88    8.60
   5   2   1   39.30    6.60
  -5   2  -1   40.70    6.10
   5   2   1   25.50    5.70
  -5   2  -1   30.00    4.50
  -5   2  -1   34.80    3.20
  -5  -2  -1   31.50    5.40
   5  -2   1   36.20    6.00
  -5  -2  -1   28.40    5.60
  -5  -2  -1   36.90    5.30
  -5   2  -2    1.90    5.10
  -5   2  -2    2.50    3.80
   5   2   2   11.40    5.30
   5   2   2  -12.30    5.10
   5  -2   2    1.10    4.70
  -5  -2  -2   -1.30    3.80
  -5  -2  -2    5.50    4.70
   5   2   3    8.00    6.40
  -5   2  -3   10.60    5.60
  -5   2  -3    6.70    4.30
   5   2   3    1.60    5.70
   5  -2   3   19.30    6.00
  -5  -2  -3   17.70    4.80
  -5  -2  -3   21.20    5.40
  -5   2  -4   19.40    5.30
   5   2   4   28.60    7.80
   5   2   4   16.90    5.60
  -5  -2  -4   24.00    7.70
  -5  -2  -4   15.70    4.90
   5  -2   4   11.90    5.90
   5   2   5   30.60    8.40
  -5   2  -5   27.40    5.70
   5   2   5   28.80    7.10
  -5  -2  -5   41.70    6.50
   5  -2   5   27.20    6.80
   5   2   6   -7.20    7.90
  -5   2  -6   -7.10    4.80
   5   2   6    7.40    6.20
  -5  -2  -6   -5.90    5.10
   5  -2   6   10.50    6.30
   5   2   7   -9.40    6.10
  -5   2  -7    4.00    5.90
   5  -2   7   -0.50    6.50
  -5  -2  -7    4.60    5.90
   5   2   8   -8.80    6.30
  -5   2  -8    5.80    6.30
  -5  -2  -8    4.70    6.60
   5  -2   8   -0.70    6.60
  -5   2  -9    8.60    6.70
   5   2   9  -12.70    6.30
   5  -2   9    1.70    6.60
   5  -2   9   17.10    7.50
  -5  -2  -9    5.80    6.80
   5   2  10    1.80    7.40
  -5   2 -10   -5.50    7.20
  -5  -2 -10    2.00    6.90
   5  -2  10    2.90    7.20
   5   2  11  -12.20    6.80
  -5   2 -11   -2.10    7.80
   5   2  11    1.60    7.20
  -5  -2 -11    7.70    7.90
  -5   3  13   15.60   12.30
  -5  -3  13   -1.90   10.90
   5  -3 -13   -8.90    4.10
  -5   3  12   -5.50   10.50
  -5  -3  12    9.50   10.60
   5  -3 -12    2.60    3.90
  -5   3  11    0.20    9.10
   5  -3 -11    8.40    3.50
  -5  -3  11   -7.20    9.80
  -5   3  10    2.70    8.30
   5  -3 -10    1.50    2.90
  -5  -3  10    6.00    9.40
  -5   3   9   23.40    8.60
   5  -3  -9   29.80    3.10
  -5  -3   9   21.50    9.00
  -5   3   8  106.09   11.50
   5  -3  -8  113.59    4.70
   5  -3  -8  112.99    4.80
  -5  -3   8  111.49   11.70
  -5   3   7   13.20    5.50
  -5   3   7    7.80    2.20
  -5   3   7   11.80    7.20
  -5  -3   7    0.90    6.80
   5  -3  -7    2.30    2.50
   5  -3  -7    3.70    2.40
  -5   3   6   30.80    6.90
  -5   3   6   15.80    3.30
  -5   3   6   18.80    4.70
  -5  -3   6   13.60    3.80
   5  -3  -6   21.40    2.90
  -5  -3   6   16.40    6.40
  -5  -3   6   35.80    7.20
   5   3  -5  217.38    8.00
   5   3  -5  203.78    5.60
  -5   3   5  216.88   10.90
  -5   3   5  212.28   10.90
  -5   3   5  218.38    7.40
   5  -3  -5  198.98    6.60
  -5  -3   5  209.98    8.00
  -5  -3   5  202.38    6.30
  -5  -3   5  201.38    5.50
  -5  -3   5  216.38   10.60
  -5  -3   5  210.48   11.10
  -5   3   4   -0.10    1.70
  -5   3   4    1.80    4.60
   5   3  -4   -0.10    2.40
  -5   3   4    5.10    4.80
  -5   3   4    0.20    1.60
  -5   3   4    0.30    3.30
   5   3  -4   -0.90    3.40
   5  -3  -4   -1.90    2.70
   5  -3  -4    4.10    4.80
  -5  -3   4   -0.80    3.30
  -5  -3   4    0.20    4.70
  -5  -3   4    0.30    3.10
  -5  -3   4    1.80    2.20
  -5   3   3  643.54   16.50
  -5   3   3  621.24   15.20
  -5   3   3  631.34   13.20
  -5   3   3  622.94   13.20
   5   3  -3  636.14   17.00
  -5  -3   3  622.04   13.40
  -5  -3   3  635.24   15.00
   5  -3  -3  608.94   16.20
  -5  -3   3  660.93   17.20
  -5  -3   3  623.64   14.50
  -5   3   2   13.00    4.20
  -5   3   2   11.00    4.00
  -5   3   2   12.90    3.50
  -5  -3   2    6.90    4.10
   5  -3  -2   13.50    4.20
  -5  -3   2    4.10    3.60
  -5  -3   2    0.40    4.20
  -5  -3   2   16.30    3.50
  -5   3   1   22.80    3.70
  -5   3   1   23.00    4.90
  -5  -3   1   34.70    4.80
  -5  -3   1   33.00    4.90
   5  -3  -1   21.60    3.80
  -5  -3   1   31.40    5.00
  -5  -3   1   20.20    5.00
  -5   3   0  176.58    6.20
   5   3   0  175.78   11.40
   5   3   0  182.88    9.30
  -5   3   0  157.98    9.20
   5  -3   0  184.68    9.90
  -5  -3   0  181.58    9.60
  -5  -3   0  167.08    9.10
   5   3   1  325.17   11.70
  -5   3  -1  328.17   12.10
   5   3   1  312.77   12.40
  -5   3  -1  321.47    7.50
   5  -3   1  318.17   12.40
  -5  -3  -1  306.67   12.00
  -5  -3  -1  311.47   12.00
  -5  -3  -1  318.67   14.30
   5   3   2   57.79    7.80
  -5   3  -2   53.89    3.30
  -5   3  -2   53.29    5.30
  -5   3  -2   67.39    7.30
   5   3   2   54.79    6.60
  -5  -3  -2   65.99    5.80
  -5  -3  -2   62.69    7.40
  -5  -3  -2   54.69    6.90
   5  -3   2   48.50    6.50
   5   3   3   12.00    6.70
  -5   3  -3   10.30    5.00
   5   3   3   -3.80    5.50
  -5   3  -3    5.10    4.40
  -5  -3  -3    6.40    4.50
   5  -3   3    4.40    5.50
  -5  -3  -3   14.70    6.00
  -5   3  -4    4.70    4.60
   5   3   4   -0.90    5.90
   5   3   4   -4.50    6.70
   5  -3   4   -7.80    4.90
  -5  -3  -4    0.30    4.80
  -5  -3  -4    3.90    5.80
   5   3   5   37.60    8.90
  -5   3  -5   41.40    6.40
   5   3   5   22.70    7.10
   5  -3   5   27.80    6.70
  -5  -3  -5   25.00    6.00
   5   3   6   -0.10    6.20
   5   3   6   -3.20    7.80
  -5   3  -6   -2.70    5.20
   5  -3   6   -0.90    6.00
  -5  -3  -6    5.20    5.70
   5   3   7   -1.70    6.60
  -5   3  -7   10.00    5.90
  -5  -3  -7   -3.50    5.50
   5  -3   7   -0.80    6.50
  -5   3  -8    1.80    5.80
   5   3   8    0.90    7.00
  -5  -3  -8    6.70    6.40
   5  -3   8    4.60    6.80
   5   3   9    9.50    7.60
  -5   3  -9   11.40    6.60
  -5  -3  -9   17.90    7.30
   5  -3   9    7.30    7.00
   5   3  10   -1.80    7.20
  -5   3 -10  -11.40    6.90
  -5  -3 -10   -1.50    7.30
   5  -3  10    0.30    7.00
   5   3  11    9.00    7.80
  -5   3 -11  -10.80    7.20
  -5  -3 -11    1.70    7.80
  -5   4  13   -7.80   11.20
   5  -4 -13   13.90    4.70
  -5  -4  13    1.50   11.60
  -5   4  12    6.60   10.00
  -5  -4  12  -11.60   10.50
   5  -4 -12   -1.40    4.20
  -5   4  11    0.00    9.50
   5  -4 -11   -0.80    3.70
  -5  -4  11   -6.80    8.50
  -5   4  10   56.19   11.50
   5  -4 -10   52.39    4.50
  -5  -4  10   41.60   11.10
  -5   4   9   18.70    9.30
   5  -4  -9    0.70    2.90
  -5  -4   9    4.20    9.00
  -5   4   8   10.90    8.10
   5  -4  -8    2.70    2.80
  -5  -4   8   11.90    8.20
  -5   4   7   29.90    7.90
  -5   4   7   41.20    3.60
  -5   4   7   37.50    6.00
  -5  -4   7   43.20    8.50
   5  -4  -7   35.50    3.60
  -5   4   6   38.50    4.20
  -5   4   6   36.50    5.60
  -5   4   6   33.20    7.20
  -5  -4   6   37.90    4.80
  -5  -4   6   43.30    7.40
  -5  -4   6   53.89    7.50
  -5   4   5  107.19    6.30
  -5   4   5  107.69    8.30
   5   4  -5  106.09    4.20
  -5  -4   5   96.59    8.30
  -5  -4   5  116.59    8.80
  -5  -4   5  100.49    7.00
  -5  -4   5   96.99    5.00
  -5   4   4    8.70    4.90
  -5   4   4   15.90    5.10
  -5   4   4    4.90    3.60
   5   4  -4    6.30    2.60
  -5  -4   4    4.60    3.70
  -5  -4   4    6.60    2.00
  -5  -4   4    5.40    3.20
   5  -4  -4    8.00    4.80
  -5  -4   4    1.50    4.60
  -5   4   3  434.86   13.10
  -5   4   3  436.86   10.20
  -5   4   3  442.06   10.20
  -5   4   3  437.86   12.40
   5  -4  -3  457.75   13.30
  -5  -4   3  425.46   10.10
  -5  -4   3  436.06   12.40
  -5  -4   3  439.86   11.60
  -5  -4   3  440.86   13.90
  -5   4   2   85.79    5.80
  -5   4   2   83.49    6.00
  -5   4   2   99.39    6.70
   5  -4  -2   74.39    5.70
  -5  -4   2   81.29    6.80
  -5  -4   2   78.39    5.80
  -5  -4   2   78.29    5.90
  -5  -4   2   85.39    6.40
   5   4  -1  525.55   13.90
  -5   4   1  529.75   12.50
  -5   4   1  502.45   13.90
  -5  -4   1  546.35   14.90
  -5  -4   1  517.65   13.50
  -5  -4   1  507.55   14.10
   5  -4  -1  515.55   12.50
  -5  -4   1  508.35   14.10
   5   4   0  158.78    8.80
  -5   4   0  155.28    5.70
   5   4   0  164.38    9.40
  -5   4   0  157.08    8.60
  -5  -4   0  177.08    9.00
  -5  -4   0  181.38    9.80
   5  -4   0  154.88    9.60
   5   4   1  306.87   12.20
   5   4   1  305.07   12.40
  -5   4  -1  311.07   11.40
  -5   4  -1  318.77    6.90
  -5  -4  -1  311.97   11.50
  -5  -4  -1  334.17   12.40
   5  -4   1  332.37   11.80
   5   4   2  141.09    8.90
  -5   4  -2  150.28    8.00
  -5   4  -2  131.99    9.30
   5   4   2  156.88   10.80
  -5  -4  -2  165.98    8.30
  -5  -4  -2  157.18    9.00
   5  -4   2  153.58    9.00
  -5  -4  -2  150.88   10.80
  -5   4  -3   -1.40    5.50
   5   4   3    0.30    5.70
   5   4   3   -5.30    5.40
  -5   4  -3    2.00    4.20
  -5  -4  -3    0.90    4.80
  -5  -4  -3   -7.00    5.80
   5  -4   3   -4.60    5.00
  -5  -4  -3    3.30    4.30
   5   4   4   -0.70    7.00
   5   4   4   -2.30    5.80
  -5   4  -4    3.40    4.40
  -5  -4  -4   -3.80    5.70
  -5  -4  -4    0.30    4.50
   5  -4   4   10.10    5.60
  -5  -4  -4    2.70    6.20
   5   4   5  147.29   11.10
   5   4   5  141.29   12.30
  -5   4  -5  146.39    9.40
  -5  -4  -5  111.19   10.70
   5  -4   5  116.39    9.90
  -5  -4  -5  121.69    8.50
   5   4   6   10.00    6.60
  -5   4  -6    2.60    5.30
   5   4   6   16.90    7.70
  -5  -4  -6   19.00    8.60
  -5  -4  -6    6.10    5.30
   5  -4   6   21.60    6.60
   5   4   7    4.50    6.50
  -5   4  -7   10.80    6.20
   5  -4   7    7.40    6.90
  -5  -4  -7    4.60    5.80
  -5  -4  -7   -4.30    8.20
   5   4   8    4.90    6.90
  -5   4  -8   17.30    6.70
  -5  -4  -8   15.50    6.70
   5  -4   8    9.50    7.20
   5  -4   8    5.10    7.00
  -5   4  -9    7.10    6.50
   5   4   9   -0.10    7.00
  -5  -4  -9    4.80    6.60
   5  -4   9   -0.40    6.40
  -5   4 -10    9.00    7.40
   5   4  10    1.40    7.50
   5  -4  10   10.30    7.20
  -5  -4 -10    2.30    7.00
   5   4  11   10.00    7.70
  -5   4 -11  -10.70    7.10
  -5  -4 -11    5.50    7.60
  -5   5  13   14.10   11.60
   5  -5 -13   12.00    5.20
  -5  -5  13   10.60   12.40
  -5   5  12  -11.80   10.60
   5  -5 -12    2.20    4.30
  -5  -5  12    8.70   11.40
  -5   5  11    0.10   10.20
   5  -5 -11   -1.00    3.90
  -5  -5  11   -5.50    9.80
  -5   5  10   -6.00    9.20
  -5  -5  10   13.20    8.70
   5  -5 -10    1.00    3.60
  -5   5   9   23.40    8.60
  -5  -5   9    8.40    9.00
   5  -5  -9    9.00    3.60
  -5   5   8   95.59   11.20
  -5  -5   8  102.39   11.20
   5  -5  -8  101.49    5.90
  -5   5   7   23.30    3.70
  -5   5   7    3.40    6.70
  -5   5   7   22.00    5.70
  -5  -5   7   12.70    7.50
   5  -5  -7   19.70    3.50
  -5   5   6   17.70    5.20
  -5   5   6   16.60    6.20
  -5   5   6   18.00    3.90
  -5  -5   6    9.80    6.10
  -5  -5   6    7.90    4.30
  -5  -5   6   12.10    6.00
  -5   5   5   78.59    7.40
   5   5  -5   71.79    4.10
  -5   5   5   82.89    5.80
  -5  -5   5   65.39    6.90
  -5  -5   5   75.49    6.00
  -5  -5   5   73.49    4.60
  -5   5   4  200.68    8.30
   5   5  -4  196.18    6.50
  -5   5   4  203.48    9.90
  -5  -5   4  207.68   10.60
  -5  -5   4  201.78    7.30
   5  -5  -4  197.38   10.40
  -5  -5   4  190.48    8.70
  -5   5   3    4.60    3.80
  -5   5   3   -0.80    2.50
  -5  -5   3    1.60    4.60
  -5  -5   3    5.50    3.50
   5  -5  -3   -1.00    4.40
  -5  -5   3    6.20    4.20
  -5  -5   3    0.10    2.40
  -5   5   2    2.40    3.20
  -5   5   2    0.10    3.60
  -5  -5   2    4.80    3.10
   5  -5  -2   -4.60    3.60
  -5  -5   2    5.10    3.80
  -5  -5   2    1.40    4.20
  -5  -5   2   -0.30    4.10
   5   5  -1  514.05   13.70
  -5   5   1  528.85   14.60
  -5  -5   1  516.15   14.30
  -5  -5   1  500.05   13.50
   5  -5  -1  526.65   12.50
  -5  -5   1  528.15   15.10
   5   5   0  456.85   14.20
  -5   5   0  460.75   14.10
   5   5   0  455.85   13.80
   5  -5   0  467.75   14.60
  -5  -5   0  456.25   14.20
  -5  -5   0  470.65   14.10
  -5   5  -1    4.20    3.90
   5   5   1    3.00    5.40
  -5   5  -1    0.80    4.70
   5   5   1    6.90    5.30
  -5  -5  -1   13.60    5.40
  -5  -5  -1    6.00    5.60
   5  -5   1    3.90    4.90
   5   5   2    4.30    5.80
  -5   5  -2    2.90    4.00
   5   5   2   15.80    6.10
  -5   5  -2    4.20    4.70
  -5  -5  -2    2.30    5.90
  -5  -5  -2   -2.10    3.60
   5  -5   2    1.70    5.20
  -5  -5  -2   -7.70    4.90
   5   5   3    9.90    6.20
  -5   5  -3   -4.10    5.10
   5   5   3   20.70    6.60
  -5  -5  -3    7.20    6.30
   5  -5   3    2.30    5.40
  -5  -5  -3   17.90    4.80
  -5  -5  -3    5.70    5.20
   5   5   4  134.89   11.50
   5   5   4  110.49    9.60
  -5   5  -4  101.49    7.20
  -5  -5  -4  114.59   10.30
  -5  -5  -4  137.49   10.00
  -5  -5  -4  113.69    8.00
   5  -5   4  113.99    9.00
   5   5   5   13.10    6.50
  -5   5  -5   14.50    5.50
   5   5   5   11.70    8.40
  -5  -5  -5   11.90    5.30
  -5  -5  -5   12.40    8.10
   5  -5   5   21.30    6.60
   5   5   6   20.60    8.30
  -5   5  -6    1.40    5.40
   5   5   6    8.80    6.90
  -5  -5  -6   -4.50    8.00
   5  -5   6   16.50    6.80
  -5  -5  -6   11.30    5.90
   5   5   7    5.00    6.80
  -5   5  -7   -9.20    5.30
   5  -5   7    5.20    6.80
   5  -5   7  -12.70    6.30
  -5  -5  -7   -0.60    8.70
  -5  -5  -7  -11.40    5.50
   5   5   8   11.40    7.40
  -5   5  -8   14.20    6.50
  -5  -5  -8   21.90    7.10
   5  -5   8   12.40    7.30
   5   5   9   -9.20    6.80
  -5   5  -9   -8.20    6.10
  -5  -5  -9    4.70    7.30
   5  -5   9   -6.00    6.70
  -5   5 -10   -1.80    7.00
   5   5  10   -0.10    7.40
   5  -5  10   -1.30    6.60
  -5  -5 -10   -0.20    7.60
   5   5  11   -7.20    7.10
  -5   5 -11   11.20    7.80
  -5  -5 -11    5.60    7.80
  -5   6  13   12.00   12.60
  -5  -6  13   -3.10   11.90
   5  -6 -13    6.40    5.20
  -5   6  12   -7.10   10.30
   5  -6 -12   -1.40    4.60
  -5  -6  12    1.70   11.10
  -5   6  11   14.50   10.80
  -5  -6  11   -3.10   10.40
   5  -6 -11   -1.40    4.30
  -5   6  10    6.00    9.80
  -5  -6  10  -16.00    9.10
   5  -6 -10    9.70    4.00
  -5   6   9   28.10    9.70
  -5  -6   9   15.80    9.50
   5  -6  -9   23.50    4.30
  -5   6   8  165.88   13.10
  -5  -6   8  189.78   14.20
   5  -6  -8  177.08    7.80
  -5   6   7  285.27   15.40
  -5   6   7  272.87    8.80
  -5   6   7  286.97   12.90
  -5  -6   7  269.27   14.40
  -5   6   6    0.40    3.70
  -5   6   6   -1.80    6.20
  -5   6   6    0.30    5.00
  -5  -6   6    2.70    4.40
  -5  -6   6    5.30    6.00
   5   6  -5   -4.30    2.20
  -5   6   5   -0.20    3.70
  -5   6   5   -2.10    5.80
  -5  -6   5    0.90    2.70
  -5  -6   5    2.00    4.80
  -5  -6   5    3.50    4.10
  -5   6   4   11.40    5.20
   5   6  -4   14.50    3.00
  -5   6   4   14.20    4.30
  -5  -6   4   12.00    4.50
  -5  -6   4   16.30    5.60
  -5  -6   4   13.90    3.50
   5  -6  -4   20.80    5.30
  -5   6   3  277.37   10.00
  -5   6   3  278.87    7.80
  -5  -6   3  275.47   11.00
  -5  -6   3  291.27   10.90
  -5  -6   3  277.67    9.40
   5  -6  -3  275.47   10.60
  -5  -6   3  285.07    7.40
  -5   6   2   38.50    5.10
   5   6  -2   36.70    4.20
  -5   6   2   41.70    4.30
  -5  -6   2   38.10    5.60
   5  -6  -2   33.00    4.70
  -5  -6   2   33.40    4.80
  -5  -6   2   36.80    5.80
  -5  -6   2   41.10    4.10
   5   6  -1  111.89    7.40
  -5   6   1  120.89    8.20
  -5  -6   1  127.09    8.10
   5  -6  -1  124.09    6.20
  -5  -6   1  142.69    8.90
  -5  -6   1  112.69    7.80
   5   6   0   18.10    5.10
   5   6   0   15.00    5.50
  -5   6   0   30.60    5.80
  -5  -6   0   15.00    5.20
   5  -6   0   17.50    6.00
   5  -6   0   14.10    2.70
   5  -6   0   17.60    5.40
   5  -6   0   22.60    6.10
  -5  -6   0   15.80    5.70
   5   6   1  439.36   14.30
  -5   6  -1  433.86   13.70
   5   6   1  438.46   14.50
  -5  -6  -1  437.26   13.90
  -5  -6  -1  447.56   15.30
   5  -6   1  426.66   14.00
   5  -6   1  435.86   15.10
   5   6   2    8.80    5.90
   5   6   2   14.10    5.40
  -5   6  -2    8.70    5.60
   5  -6   2   28.70    6.50
  -5  -6  -2   21.90    6.50
  -5  -6  -2   26.20    6.20
   5  -6   2    8.60    5.90
  -5  -6  -2   14.60    4.40
  -5   6  -3   95.99    8.20
   5   6   3  127.29   10.20
   5   6   3  117.49    9.70
  -5  -6  -3  123.09   10.10
   5  -6   3  121.89    9.50
  -5  -6  -3  111.49    9.30
  -5  -6  -3  112.99    7.70
   5   6   4   -4.30    6.10
   5   6   4    1.10    6.10
   5  -6   4    6.80    5.70
  -5  -6  -4   -0.80    4.50
  -5  -6  -4    4.40    6.20
  -5  -6  -4    0.30    6.60
   5   6   5    3.70    6.70
   5   6   5    6.10    7.80
  -5  -6  -5    5.30    7.80
   5  -6   5   -0.80    6.10
  -5  -6  -5    3.00    4.90
   5  -6   5    4.40    6.30
   5   6   6   12.10    8.80
   5   6   6   12.60    7.00
  -5   6  -6    0.30    5.20
  -5  -6  -6    9.00    8.00
   5  -6   6   23.80    7.10
  -5  -6  -6    9.50    5.90
   5  -6   6   -2.60    6.20
  -5   6  -7   12.10    6.00
   5   6   7    9.40    7.30
  -5  -6  -7    1.40    8.60
   5  -6   7    8.80    7.30
  -5  -6  -7   13.20    6.40
   5   6   8    8.30    7.10
  -5   6  -8    1.50    6.00
  -5  -6  -8   -2.80    6.20
   5  -6   8   -1.50    6.80
  -5   6  -9   -0.80    6.50
   5   6   9    2.70    7.20
  -5  -6  -9   16.90    7.30
   5  -6   9   -4.10    7.00
   5   6  10   11.60    7.90
  -5   6 -10    0.00    7.30
  -5  -6 -10   -0.80    7.30
   5  -6  10   -4.70    6.70
   5   6  11  -12.50    7.00
  -5   6 -11   10.70    7.80
  -5  -6 -11   -3.20    8.00
  -5   7  13   15.30   12.70
  -5  -7  13   -1.20   11.30
   5  -7 -13   10.00    5.70
  -5   7  12   -9.10   10.70
  -5  -7  12  -17.70   10.60
   5  -7 -12    3.00    5.10
  -5   7  11   -5.40   10.20
   5  -7 -11    0.00    4.40
  -5  -7  11   -8.70    8.70
  -5   7  10   14.40    9.50
  -5  -7  10    0.50    9.80
   5  -7 -10    9.30    4.50
  -5   7   9   -0.90    8.90
  -5  -7   9    3.80    8.90
   5  -7  -9    2.40    4.00
  -5   7   8   -2.20    8.00
  -5   7   8    1.60    3.30
   5  -7  -8   -3.80    3.80
  -5  -7   8    1.10    7.40
  -5   7   7   30.10    4.70
  -5   7   7   11.20    7.10
  -5   7   7   44.70    7.10
  -5   7   6  141.49   10.30
  -5   7   6  161.68    7.90
  -5   7   6  149.88   10.80
  -5  -7   6  146.49    4.60
  -5  -7   6  143.69    9.40
  -5  -7   6  121.99    9.70
  -5   7   5   18.40    5.80
  -5   7   5   26.30    4.60
   5   7  -5   23.40    3.00
  -5  -7   5   17.10    5.00
  -5  -7   5   15.10    5.70
  -5  -7   5   24.80    3.60
   5   7  -4   69.49    4.40
  -5   7   4   60.59    5.70
  -5  -7   4   50.09    5.90
   5  -7  -4   53.19    8.50
  -5  -7   4   66.99    7.40
  -5  -7   4   58.49    4.90
  -5   7   3  188.78    8.70
  -5   7   3  186.68    6.60
  -5  -7   3  174.48    9.20
  -5  -7   3  187.58    6.00
   5  -7  -3  185.38    9.20
  -5  -7   3  185.48    7.80
  -5  -7   3  192.48   10.30
  -5   7   2   16.20    4.90
   5   7  -2    6.50    3.50
  -5   7   2    8.10    3.60
  -5  -7   2    9.30    5.10
  -5  -7   2   10.60    4.90
   5  -7  -2    5.40    3.70
  -5  -7   2   14.10    3.50
  -5  -7   2    6.60    4.20
   5  -7  -2    5.10    3.80
  -5   7   1   59.39    6.60
   5   7  -1   44.20    5.20
  -5  -7   1   42.70    5.80
   5  -7  -1   44.80    4.30
   5  -7  -1   57.59    7.10
  -5  -7   1   49.60    5.70
   5  -7  -1   45.00    5.70
  -5   7   0   13.30    4.80
   5   7   0   12.60    5.40
   5   7   0    8.20    4.50
   5  -7   0    8.00    2.50
  -5  -7   0   11.60    4.70
   5  -7   0    0.90    5.70
  -5  -7   0   17.10    5.80
   5  -7   0    5.40    5.20
   5   7   1  171.08   10.30
   5   7   1  172.78   10.70
  -5   7  -1  175.38    9.90
  -5  -7  -1  167.88   11.20
   5  -7   1  182.08   11.20
  -5  -7  -1  178.58   10.00
   5  -7   1  179.88   10.30
   5  -7   1  172.28   10.50
   5   7   2   -0.10    5.50
  -5   7  -2   -2.00    4.40
   5   7   2   -4.00    5.50
  -5  -7  -2    0.40    5.20
  -5  -7  -2    2.40    4.80
   5  -7   2   -9.60    6.20
   5  -7   2    7.00    5.50
   5  -7   2    3.70    5.10
  -5  -7  -2   -7.20    3.80
   5   7   3   42.40    7.20
   5   7   3   56.49    7.20
  -5   7  -3   50.39    7.00
   5  -7   3   46.40    7.20
   5  -7   3   44.10    8.90
   5  -7   3   58.99    7.70
  -5  -7  -3   63.79    7.80
  -5  -7  -3   64.69    7.40
  -5  -7  -3   44.70    5.80
   5   7   4   35.00    7.50
   5   7   4   46.40    8.50
  -5  -7  -4   49.60    6.50
   5  -7   4   37.80    7.10
  -5  -7  -4   52.19    8.40
  -5  -7  -4   50.29    7.80
   5  -7   4   44.40    9.00
   5  -7   4   32.60    6.80
   5   7   5   13.10    6.70
   5   7   5    3.50    7.60
   5  -7   5   11.40    6.50
  -5  -7  -5   -5.50    6.40
  -5  -7  -5    6.70    5.30
   5   7   6   22.40    7.30
   5   7   6   24.10    9.00
   5  -7   6   20.80    7.00
  -5  -7  -6   25.00    8.40
  -5  -7  -6   19.50    6.20
  -5   7  -7   21.30    6.20
   5   7   7   22.30    7.80
  -5  -7  -7   36.70    7.50
   5  -7   7   18.70    7.80
  -5  -7  -7   23.20   10.30
  -5   7  -8   -2.40    5.80
   5   7   8   -6.00    6.80
   5  -7   8   -1.90    7.00
  -5  -7  -8    2.10    6.30
  -5   7  -9    9.50    6.70
   5   7   9    7.60    7.40
   5  -7   9    6.50    7.10
  -5  -7  -9    0.80    7.10
  -5   7 -10  -14.20    6.60
   5   7  10    3.20    7.80
   5  -7  10   -6.60    6.70
  -5  -7 -10    5.90    7.70
   5   7  11    1.70    7.70
  -5   7 -11    6.50    7.50
  -5  -7 -11    7.80    8.40
  -5   8  13   -8.80   11.00
   5  -8 -13   10.70    6.00
  -5  -8  13   -0.50   10.60
  -5   8  12   12.70   12.70
   5  -8 -12   10.90    5.40
  -5  -8  12    3.20   11.90
  -5   8  11   -4.80   10.00
  -5  -8  11    8.10    9.70
   5  -8 -11    1.60    4.90
  -5   8  10   -0.60    8.80
   5  -8 -10    5.00    4.60
  -5  -8  10    8.00   10.20
  -5   8   9   12.90    9.20
  -5  -8   9    2.80    8.80
   5  -8  -9   -2.40    4.20
  -5   8   8   92.59   11.50
  -5   8   8   90.49   10.30
  -5   8   8   98.39    6.60
   5  -8  -8   97.19    6.50
  -5   8   7    6.40    7.70
  -5   8   7   15.40    6.60
  -5   8   7   25.60    4.90
  -5  -8   7   34.60    9.40
  -5   8   6   22.50    5.00
  -5   8   6   17.10    7.40
  -5   8   6   18.00    6.20
  -5  -8   6   19.00    6.10
  -5  -8   6   16.30    5.40
  -5  -8   6   21.20    2.80
  -5   8   5   -1.40    4.10
  -5   8   5    9.90    6.00
   5   8  -5    7.70    2.80
  -5  -8   5    3.30    5.50
  -5  -8   5    5.20    3.20
  -5  -8   5    3.30    4.70
   5   8  -4   13.70    3.40
  -5   8   4    9.00    2.20
  -5   8   4   19.50    4.80
  -5  -8   4    9.60    3.60
  -5  -8   4   12.10    5.40
  -5  -8   4    7.40    4.90
  -5   8   3  125.19    7.80
  -5   8   3  121.99    5.90
  -5  -8   3  117.79    5.10
   5  -8  -3  122.49    8.30
  -5  -8   3  135.99    9.70
  -5  -8   3  131.79    8.90
  -5  -8   3  132.29    7.50
   5  -8  -3  128.59    6.30
   5   8  -2    5.10    3.40
  -5   8   2    1.60    4.40
   5  -8  -2    3.30    3.70
  -5  -8   2    1.60    4.80
   5  -8  -2    0.10    3.90
  -5  -8   2    4.10    4.90
  -5  -8   2    2.70    4.10
  -5  -8   2    4.00    3.10
  -5   8   1  124.59    8.60
   5   8  -1  117.99    7.50
   5  -8  -1  132.39    8.60
   5  -8  -1  120.79    6.50
  -5  -8   1  129.09    9.50
  -5  -8   1  136.09    8.30
   5  -8  -1  119.79    8.50
  -5   8   0   56.19    6.90
   5   8   0   47.20    6.90
   5   8   0   37.70    5.80
   5  -8   0   35.90    6.20
   5  -8   0   41.00    6.30
   5  -8   0   42.00    3.20
  -5  -8   0   31.80    5.40
  -5  -8   0   36.70    6.50
   5   8   1   22.20    5.80
   5   8   1   36.90    6.10
  -5   8  -1   21.30    5.80
  -5  -8  -1   30.30    5.80
  -5  -8  -1   36.40    7.00
   5  -8   1   27.90    6.60
   5  -8   1   33.90    6.10
  -5   8  -2  178.48    9.40
   5   8   2  174.78   10.10
   5   8   2  165.18   11.20
   5  -8   2  166.78    9.90
   5  -8   2  179.98   12.50
  -5  -8  -2  180.68   12.20
  -5  -8  -2  170.58   10.60
  -5  -8  -2  176.88    9.00
   5   8   3   12.20    6.90
   5   8   3   -2.10    5.80
  -5   8  -3   -1.40    4.80
  -5  -8  -3    2.90    6.50
  -5  -8  -3    7.80    6.00
  -5  -8  -3    2.20    4.80
   5  -8   3   -0.10    7.40
   5  -8   3   11.80    6.30
   5   8   4   -2.90    6.20
   5   8   4   -5.00    6.90
  -5  -8  -4    5.00    5.20
  -5  -8  -4   13.10    6.80
   5  -8   4    3.90    8.40
  -5  -8  -4   18.90    6.90
   5  -8   4   -0.30    6.10
   5   8   5   55.39    9.70
   5   8   5   71.69    9.20
   5  -8   5   54.19    8.10
  -5  -8  -5   69.29   10.20
   5  -8   5   70.39   11.20
  -5  -8  -5   63.69    7.70
   5   8   6    5.50    6.90
  -5  -8  -6    2.60    5.90
   5  -8   6   20.20    7.20
  -5  -8  -6    2.50    8.00
   5   8   7   -2.70    6.60
   5  -8   7   15.60    7.50
  -5  -8  -7   11.70    6.50
   5   8   8    1.30    7.30
  -5   8  -8   -4.00    6.10
  -5  -8  -8   -0.90    6.60
   5  -8   8   13.40    7.30
  -5   8  -9  -12.50    6.30
   5   8   9    2.10    7.10
   5  -8   9   -3.50    6.70
  -5  -8  -9   -9.40    6.80
  -5   8 -10  -10.50    6.80
   5   8  10    9.90    8.00
  -5  -8 -10    0.90    7.60
   5  -8  10   -7.30    6.60
  -5   8 -11   12.00    7.90
   5   8  11   15.90    8.30
  -5  -8 -11    3.10    8.40
  -5   9  13   -5.20   13.10
  -5  -9  13    5.80   12.30
   5  -9 -13   -0.70    5.80
  -5   9  12   -6.50   10.30
  -5  -9  12   -8.50   10.90
   5  -9 -12    2.50    5.50
  -5   9  11    2.90   11.20
  -5  -9  11   11.20   10.70
   5  -9 -11   15.70    5.50
  -5   9  10   14.20   10.50
  -5  -9  10    0.20    8.40
   5  -9 -10    5.00    4.90
  -5   9   9   10.90    9.80
  -5  -9   9   11.90    8.10
   5  -9  -9    7.90    4.80
  -5   9   8    1.90    8.80
  -5   9   8   -4.40    3.90
  -5   9   8    2.60    6.50
  -5   9   7   -1.20    6.40
  -5   9   7    1.70    4.50
  -5   9   7    5.10    8.20
  -5  -9   7   -3.40    5.60
  -5   9   6   29.70    5.70
  -5   9   6   24.70    6.80
  -5   9   6    9.40    7.30
  -5  -9   6   30.70    3.40
  -5  -9   6   37.20    6.50
  -5   9   5   18.40    5.20
   5   9  -5   27.30    3.60
  -5  -9   5   25.30    6.60
  -5  -9   5   28.40    6.00
  -5  -9   5   26.60    3.90
   5   9  -4   43.20    4.70
  -5   9   4   36.70    5.60
  -5  -9   4   36.60    6.00
  -5  -9   4   31.80    5.90
  -5  -9   4   32.40    4.60
   5   9  -3    1.50    2.60
  -5   9   3   -1.50    2.90
  -5   9   3    0.70    4.50
  -5  -9   3   -1.90    2.40
  -5  -9   3    0.30    4.80
  -5  -9   3    8.40    5.10
   5  -9  -3    3.40    3.20
   5  -9  -3   -1.30    4.30
  -5  -9   3    2.60    3.70
  -5   9   2    1.10    4.70
   5   9  -2   -5.80    3.10
   5  -9  -2    4.90    3.90
  -5  -9   2    3.20    5.20
   5  -9  -2    3.60    3.90
  -5  -9   2    5.30    3.30
  -5  -9   2   -4.20    3.90
   5   9  -1   86.59    6.50
  -5   9   1   99.59    8.00
  -5  -9   1   71.39    7.00
   5  -9  -1   95.89    7.10
  -5  -9   1   89.09    7.30
   5  -9  -1   89.49    6.10
   5  -9  -1   96.09    7.70
   5   9   0  207.48   10.30
   5   9   0  200.08   10.00
  -5   9   0  187.48   10.30
   5  -9   0  190.58    6.30
   5  -9   0  194.78   10.20
  -5  -9   0  194.78   11.60
  -5  -9   0  195.68   10.20
   5  -9   0  215.28   11.20
   5   9   1    5.10    5.40
  -5   9  -1    7.40    5.60
   5   9   1   -1.70    5.70
   5  -9   1    1.20    5.90
   5  -9   1    4.30    5.30
  -5  -9  -1    4.20    4.80
  -5  -9  -1    0.90    5.90
  -5   9  -2   -6.30    5.30
   5   9   2    7.60    6.00
   5   9   2    5.60    5.50
   5  -9   2    5.90    6.00
  -5  -9  -2    9.70    4.90
  -5  -9  -2    8.80    5.90
  -5  -9  -2    3.20    5.00
   5  -9   2    3.20    6.70
  -5   9  -3    2.40    5.70
   5   9   3   -1.30    6.10
   5   9   3   -3.60    5.30
   5  -9   3    0.40    5.90
   5  -9   3    5.40    7.60
  -5  -9  -3    7.30    6.20
  -5  -9  -3    1.40    4.70
  -5  -9  -3   12.50    7.10
   5   9   4   88.09    9.50
   5   9   4   72.09    9.30
   5  -9   4   72.59   10.90
  -5  -9  -4   76.39    8.80
   5  -9   4   76.69    8.60
  -5  -9  -4   86.19    9.90
  -5  -9  -4   89.29    8.00
   5   9   5    0.00    7.60
   5   9   5    7.50    6.80
   5  -9   5   -3.90    6.30
  -5  -9  -5   -4.60    5.30
  -5  -9  -5   -2.20    6.50
   5  -9   5    6.50    9.80
   5   9   6   60.49    9.30
  -5  -9  -6   65.39    8.20
  -5  -9  -6   58.79   10.20
   5  -9   6   49.40    8.20
   5   9   7    5.70    7.10
  -5  -9  -7    5.00    6.50
   5  -9   7   -3.20    6.90
   5   9   8   -0.50    7.30
  -5  -9  -8    7.90    7.10
   5  -9   8    2.10    6.90
  -5   9  -9   -8.70    6.60
   5   9   9   -1.80    7.30
  -5  -9  -9  -10.40    7.00
   5  -9   9   10.60    7.30
   5   9  10    3.90    8.00
  -5   9 -10   14.20    7.60
  -5  -9 -10   -0.50    7.70
   5  -9  10    1.50    7.00
  -5  10  13    1.40   12.20
   5 -10 -13    5.60    6.50
  -5 -10  13   -3.10   10.70
  -5  10  12    4.70   12.10
   5 -10 -12   -6.60    5.80
  -5 -10  12    3.80   10.30
  -5  10  11  -12.90    8.90
   5 -10 -11   -5.40    5.40
  -5 -10  11  -12.20    8.60
  -5  10  10   10.40   11.00
  -5 -10  10  -14.60    8.80
   5 -10 -10   -1.30    5.30
  -5  10   9    5.20    4.50
  -5  10   9   -0.80    9.40
   5 -10  -9    1.80    5.10
  -5  10   8    2.10    8.70
  -5  10   8   -6.20    6.80
  -5  10   8   -7.90    4.20
  -5  10   7   60.09    6.60
  -5  10   7   51.79   10.20
  -5  10   7   72.79    9.00
  -5 -10   7   64.69    7.80
  -5  10   6   11.40    7.40
  -5  10   6    0.10    4.80
  -5  10   6   -4.70    5.90
   5  10  -6   -0.20    2.80
  -5 -10   6    5.10    5.40
  -5 -10   6    3.70    3.00
  -5  10   5   23.10    5.40
  -5 -10   5   26.60    4.10
  -5 -10   5   12.20    6.30
  -5 -10   5   23.30    6.00
  -5  10   4   -0.90    4.80
   5 -10  -4   13.30    4.70
  -5 -10   4    5.20    5.40
  -5 -10   4    6.40    5.60
  -5 -10   4    8.70    3.80
   5  10  -3   59.69    4.80
  -5  10   3   70.59    5.00
  -5  10   3   50.19    6.10
   5 -10  -3   73.49    6.80
  -5 -10   3   56.19    6.90
  -5 -10   3   73.89    7.90
  -5 -10   3   68.99    6.00
   5 -10  -3   66.99    5.20
  -5  10   2   90.59    7.70
   5  10  -2   87.79    6.60
  -5 -10   2  102.39    7.40
  -5 -10   2   79.49    6.10
   5 -10  -2   97.19    7.60
   5 -10  -2  105.39    8.50
   5 -10  -2   90.89    7.30
  -5 -10   2   78.09    7.50
   5  10  -1  560.04   15.30
  -5  10   1  568.14   16.60
   5  10  -1  568.44   19.20
   5 -10  -1  567.14   16.30
  -5 -10   1  595.44   17.80
  -5 -10   1  591.14   16.40
   5 -10  -1  553.94   13.80
   5 -10  -1  596.94   17.40
   5  10   0   22.30    5.90
  -5  10   0   20.20    5.50
   5  10   0   12.60    5.20
  -5 -10   0   32.90    7.00
   5 -10   0   30.40    6.20
   5 -10   0   13.80    5.80
   5 -10   0   17.40    3.10
  -5 -10   0   33.90    6.10
   5  10   1   14.00    5.70
   5  10   1    6.40    5.40
  -5  10  -1    9.30    5.70
   5 -10   1   21.70    6.50
  -5 -10  -1    3.80    5.50
  -5 -10  -1    5.20    5.70
   5 -10   1   -1.00    6.10
   5  10   2  132.49   10.40
  -5  10  -2  139.99    9.90
   5  10   2  135.69   10.80
   5 -10   2  136.69   11.20
  -5 -10  -2  153.28   10.60
  -5 -10  -2  143.99   11.00
  -5 -10  -2  143.59   10.10
   5 -10   2  124.39   10.00
  -5  10  -3   43.70    7.30
   5  10   3   39.20    7.90
   5  10   3   59.39    8.50
  -5 -10  -3   39.00    8.30
   5 -10   3   47.40    7.90
  -5 -10  -3   44.30    6.30
  -5 -10  -3   44.60    7.70
   5 -10   3   47.80    8.60
   5  10   4   31.60    8.30
   5  10   4   18.40    7.00
   5 -10   4   32.00    7.20
  -5 -10  -4   29.40    7.30
  -5 -10  -4   26.40    8.60
  -5 -10  -4   31.80    6.20
   5 -10   4   22.10    8.40
   5  10   5    1.00    7.00
   5  10   5   -6.80    6.80
   5 -10   5    7.80    8.40
  -5 -10  -5  -10.40    7.30
  -5 -10  -5    2.80    5.80
   5 -10   5    3.60    6.70
   5  10   6   38.30    9.00
  -5 -10  -6   63.49   10.40
  -5 -10  -6   61.49    8.10
   5 -10   6   58.29    8.90
   5 -10   6   88.29   14.30
   5  10   7   20.70    8.00
  -5 -10  -7   21.20    7.20
   5 -10   7   20.40    7.50
   5  10   8    8.90    7.80
   5 -10   8   -2.00    7.20
  -5 -10  -8    1.90    6.80
  -5  10  -9    3.90    6.80
   5  10   9   -0.50    7.10
   5 -10   9    7.80    7.40
  -5 -10  -9   -9.40    7.00
   5  10  10    2.90    7.70
  -5  10 -10    2.90    7.20
   5 -10  10   -1.50    6.80
  -5 -10 -10    2.40    8.00
  -5  11  13  -24.30   11.70
   5 -11 -13  -14.40    6.40
  -5 -11  13  -10.30   12.10
  -5  11  12   10.40   12.70
   5 -11 -12   -6.50    6.20
  -5 -11  12  -12.70   11.60
  -5  11  11    3.50    9.80
   5 -11 -11   -0.50    5.80
  -5 -11  11    5.80   10.30
  -5  11  10    0.10   10.70
   5 -11 -10   -5.40    5.40
  -5  11   9   12.90    4.80
  -5  11   9    9.30    9.00
  -5  11   8    8.20    4.90
  -5  11   8    1.60    8.00
  -5  11   8    5.30    7.30
  -5  11   7  140.09   12.50
  -5  11   7  132.49    9.00
  -5  11   7  148.29   11.80
  -5 -11   7  137.39   10.40
  -5  11   6   73.49    7.50
  -5  11   6  101.59    9.70
  -5 -11   6   88.09    5.80
  -5 -11   6   79.99    8.50
  -5  11   5    2.70    4.90
  -5 -11   5    1.80    3.50
  -5 -11   5    3.80    6.10
  -5 -11   5   -4.10    5.40
  -5  11   4   46.30    6.30
  -5 -11   4   40.50    5.20
  -5 -11   4   43.00    6.90
  -5 -11   4   42.00    7.10
  -5  11   3   14.10    5.10
   5  11  -3   16.00    3.20
  -5 -11   3   12.50    5.90
   5 -11  -3   -0.80    4.70
   5 -11  -3   10.10    4.00
  -5 -11   3   17.00    4.70
  -5 -11   3    7.10    5.70
   5  11  -2   93.89    6.90
  -5  11   2   79.29    7.60
  -5 -11   2  106.09    7.90
   5 -11  -2   81.69    8.30
  -5 -11   2  114.09    9.10
  -5 -11   2   90.59    6.50
   5 -11  -2   91.99    6.90
   5 -11  -2   86.49    6.50
   5  11  -1  112.49    8.00
   5  11  -1   99.39    8.20
  -5  11   1  119.19    8.80
   5 -11  -1   94.99    6.70
   5 -11  -1   94.59    8.30
  -5 -11   1  125.09    9.50
   5 -11  -1   95.69    7.70
  -5 -11   1  111.39    8.50
   5  11   0   20.60    5.50
  -5  11   0   16.80    5.50
   5  11   0   29.90    6.60
   5 -11   0   31.40    6.50
   5 -11   0   23.10    6.50
  -5 -11   0   21.50    6.10
   5 -11   0   24.80    3.40
  -5 -11   0   26.70    6.40
   5  11   1   37.60    6.80
   5  11   1   37.40    7.60
  -5  11  -1   43.30    7.10
   5 -11   1   37.90    7.20
  -5 -11  -1   38.80    7.30
  -5 -11  -1   39.50    7.70
   5 -11   1   28.90    6.40
   5  11   2   14.70    6.30
   5  11   2   14.70    6.10
  -5  11  -2   14.80    6.40
  -5 -11  -2   14.80    6.60
  -5 -11  -2   12.40    7.10
   5 -11   2   18.90    7.70
   5 -11   2   11.40    6.40
   5  11   3   54.29    8.80
   5  11   3   61.19    9.10
  -5  11  -3   49.70    8.60
   5 -11   3   60.79    9.80
  -5 -11  -3   69.69    9.00
   5 -11   3   55.69    8.10
  -5 -11  -3   51.49    8.20
   5  11   4   99.79   10.00
   5  11   4  117.39   10.60
   5 -11   4  110.09   12.40
   5 -11   4  106.99    9.70
  -5 -11  -4  123.99   11.30
  -5 -11  -4  139.49   11.20
  -5 -11  -4  115.79    8.90
   5  11   5   -1.80    6.80
   5  11   5    8.10    7.60
  -5 -11  -5    9.90    8.40
   5 -11   5   26.00   10.30
   5 -11   5    4.50    6.80
  -5 -11  -5    7.60    5.60
   5  11   6    2.90    7.30
   5 -11   6    4.00    7.10
  -5 -11  -6    0.30    6.00
  -5 -11  -6   -4.10    7.60
   5  11   7   32.30    8.50
   5 -11   7   22.60    8.10
  -5 -11  -7   15.10    6.90
   5  11   8    4.10    7.50
  -5 -11  -8   21.30    7.90
   5 -11   8   10.30    7.30
   5  11   9   15.80    8.40
   5 -11   9    9.80    7.70
  -5 -11  -9    7.80    7.50
  -5  11 -10   -1.60    7.00
   5  11  10   16.80    8.40
   5 -11  10    5.90    6.90
   5 -12 -13   -3.50    6.80
  -5  12  12   -1.90   11.50
  -5 -12  12   15.80   11.60
   5 -12 -12    0.50    6.40
  -5  12  11    8.00   11.40
   5 -12 -11    3.10    6.40
  -5 -12  11    6.20   10.80
  -5  12  10  -16.30    9.50
  -5  12   9   64.99   12.50
  -5  12   9   55.39    6.40
  -5  12   8   25.80    5.90
  -5  12   8   28.10    8.50
  -5  12   8   38.70   10.60
  -5  12   7    6.80    5.60
  -5  12   7   10.70    7.30
  -5 -12   7    9.90    6.80
   5 -12  -7    4.40    6.70
  -5  12   6  142.59   11.20
  -5  12   6  145.59    9.90
  -5 -12   6  129.29   10.20
  -5 -12   6  135.49    6.80
  -5  12   5   -0.90    5.20
  -5 -12   5    3.80    6.00
  -5 -12   5    3.90    3.90
  -5  12   4    8.10    5.50
  -5 -12   4   21.60    6.40
  -5 -12   4   20.40    4.80
  -5 -12   4   22.60    6.50
   5  12  -3   67.99    4.80
  -5  12   3   79.49    7.90
   5 -12  -3   64.89    6.90
  -5 -12   3   71.79    8.20
   5 -12  -3   67.89    7.60
  -5 -12   3   43.20    6.00
  -5 -12   3   49.00    7.10
   5 -12  -3   58.99    5.50
   5  12  -2   28.30    4.60
  -5  12   2   27.60    6.20
   5 -12  -2   24.60    6.40
   5 -12  -2   33.80    5.50
  -5 -12   2   15.70    5.10
  -5 -12   2   26.00    6.70
   5 -12  -2   31.30    5.10
   5  12  -1  219.38   10.00
   5  12  -1  228.58   11.40
  -5  12   1  235.28   11.50
  -5 -12   1  218.88   10.90
   5 -12  -1  187.98   10.60
  -5 -12   1  213.98   12.50
   5 -12  -1  228.48    8.90
   5 -12  -1  202.68   11.00
   5  12   0   77.99    8.30
   5  12   0   73.09    7.30
  -5  12   0   73.39    7.50
   5 -12   0   75.69    8.20
   5 -12   0   79.59    5.50
  -5 -12   0   69.29    8.00
  -5 -12   0   79.29    8.20
   5 -12   0   66.89    8.30
   5  12   1  139.49   10.50
   5  12   1  166.58   11.30
  -5  12  -1  155.18   10.60
  -5 -12  -1  146.79   10.90
  -5 -12  -1  136.59   10.40
   5 -12   1  151.08   11.20
   5 -12   1  157.48   12.30
  -5  12  -2   18.10    6.60
   5  12   2   -1.70    6.40
   5  12   2    7.60    6.30
  -5 -12  -2    2.50    5.70
  -5 -12  -2   23.40    7.80
   5 -12   2   13.60    6.70
   5 -12   2   11.10    8.00
   5  12   3  113.49   10.70
   5  12   3  140.19   11.30
   5 -12   3  131.89   12.30
   5 -12   3  122.79   10.40
  -5 -12  -3  125.19   10.00
  -5 -12  -3  135.59   11.90
   5  12   4    1.30    7.10
   5  12   4   -2.70    6.70
  -5 -12  -4    3.40    7.70
   5 -12   4    1.50    6.10
   5 -12   4  -11.60    7.50
  -5 -12  -4   -8.30    5.70
   5  12   5   24.50    7.70
   5  12   5   15.10    7.80
  -5 -12  -5   10.60    7.90
   5 -12   5    9.80   10.00
   5 -12   5    6.40    6.90
   5  12   6    3.00    7.20
  -5 -12  -6    6.00    7.80
   5 -12   6   -0.50    6.80
  -5 -12  -6    9.70    8.40
   5  12   7   10.40    7.40
  -5 -12  -7  -11.70    7.40
   5 -12   7   -4.20    6.40
   5  12   8    0.30    7.60
  -5 -12  -8    0.80    9.20
   5 -12   8   -2.80    7.20
   5  12   9    5.90    8.00
   5 -12   9    7.10    7.00
  -5  12 -10  -10.80    6.70
   5  12  10    3.40    7.90
   5 -12  10   -5.20    6.60
  -5  13  12   -7.80   12.60
  -5 -13  12   -0.30   11.50
  -5  13  11   -7.20   11.50
  -5 -13  11    4.20   10.20
  -5  13  10   27.00   11.80
  -5  13   9    1.40    9.90
  -5  13   9   10.10    5.20
  -5  13   8   12.10    5.50
  -5  13   8    7.30    7.70
  -5  13   7   73.59    9.90
  -5  13   7   69.49    7.80
   5 -13  -7   76.09    9.10
  -5 -13   7   65.99    9.10
  -5  13   6   29.90    8.00
  -5  13   6   17.00    6.30
  -5 -13   6   31.70    4.60
  -5 -13   6   19.50    6.90
  -5  13   5    4.40    5.70
  -5 -13   5    6.60    4.30
  -5 -13   5   -2.30    5.90
  -5  13   4  104.99    8.40
  -5 -13   4  113.39    9.10
  -5 -13   4  107.09    8.00
  -5 -13   4  107.69    9.50
  -5  13   3   42.80    6.50
  -5 -13   3   14.70    6.40
   5 -13  -3   22.80    5.00
   5 -13  -3   36.10    6.90
  -5 -13   3   26.20    5.50
  -5 -13   3   19.20    6.20
  -5  13   2   72.69    7.80
   5  13  -2   53.99    5.60
  -5 -13   2   60.19    7.50
   5 -13  -2   58.49    7.70
  -5 -13   2   51.69    6.50
   5 -13  -2   46.50    6.30
   5  13  -1   -0.10    4.50
   5  13  -1    0.90    5.00
  -5  13   1   -4.90    5.30
   5 -13  -1    6.50    5.50
   5 -13  -1   -2.00    6.00
  -5 -13   1    3.50    6.40
  -5 -13   1    2.90    5.30
   5  13   0  143.29   10.10
  -5  13   0  151.98   10.50
   5  13   0  132.09    9.80
   5 -13   0  143.79   11.10
  -5 -13   0  134.99    9.40
   5 -13   0  138.59   10.20
  -5 -13   0  120.69    9.80
   5  13   1   -3.70    5.60
  -5  13  -1   10.40    6.20
   5  13   1   12.40    6.20
   5 -13   1    5.40    6.30
   5 -13   1   -6.10    5.40
  -5 -13  -1    8.10    7.30
  -5 -13  -1    0.40    6.10
   5  13   2   -6.50    6.00
  -5  13  -2   -8.30    5.80
   5  13   2    1.20    6.10
  -5 -13  -2   -4.10    6.50
  -5 -13  -2  -11.40    6.70
   5 -13   2    9.10    6.90
   5 -13   2    3.80    6.80
   5  13   3   63.69    9.30
   5  13   3   49.10    8.60
  -5 -13  -3   53.19    8.60
   5 -13   3   63.19    8.90
  -5 -13  -3   66.89    8.60
   5 -13   3   85.09   11.10
   5  13   4   23.40    7.40
   5  13   4   16.90    7.40
  -5 -13  -4   13.80    8.20
   5 -13   4   27.70    9.00
  -5 -13  -4   27.10    7.90
   5 -13   4   13.30    7.50
   5  13   5   43.10    9.10
  -5 -13  -5   34.60    9.30
   5 -13   5   23.40   10.70
   5 -13   5   27.40    7.90
   5  13   6   49.40    9.50
  -5 -13  -6   48.80   11.20
   5 -13   6   50.19    9.10
   5  13   7   20.60    8.20
   5 -13   7    5.80    7.30
   5  13   8  -10.90    7.50
   5 -13   8    0.70    7.20
   5  13   9    3.30    8.00
   5 -13   9   10.30    7.40
   5  13  10    8.90    8.40
  -5  13 -10   15.00    8.10
   5 -13  10   10.20    7.50
  -5  14  12   11.40   12.50
  -5 -14  12   16.10   12.30
  -5  14  11    9.60   12.00
  -5  14  10   10.90   11.30
  -5  14   9    5.50    5.70
  -5  14   8    3.20    5.60
  -5  14   8   13.10    7.90
  -5  14   7    3.70    7.70
  -5  14   7   14.40    6.20
  -5 -14   7    3.50    7.10
  -5 -14   7    0.80    3.20
  -5  14   6   -4.60    6.80
  -5  14   6    6.20    6.00
  -5 -14   6    3.30    4.10
  -5 -14   6    4.00    6.80
  -5  14   5   72.39    8.30
  -5 -14   5   65.39    6.30
  -5 -14   5   51.69    8.30
  -5  14   4   -2.20    5.50
  -5 -14   4    1.80    4.70
  -5 -14   4    6.20    6.40
  -5  14   3   16.80    5.60
   5 -14  -3   22.40    6.70
  -5 -14   3   26.00    5.80
  -5 -14   3   27.60    7.30
   5 -14  -3    9.70    4.90
   5  14  -2  128.39    7.90
  -5  14   2  124.69    9.30
  -5 -14   2  121.49    9.10
  -5 -14   2  140.69   11.10
   5 -14  -2  121.49    9.90
   5 -14  -2  112.19    8.40
   5  14  -1    3.70    5.80
  -5  14   1    8.50    6.20
   5  14  -1    9.00    4.90
   5 -14  -1    1.60    6.00
  -5 -14   1    6.10    6.20
  -5 -14   1    8.40    6.00
   5 -14  -1   14.90    6.40
   5  14   0    3.70    5.20
  -5  14   0  -12.20    4.70
   5  14   0    1.20    5.60
   5 -14   0   -0.40    6.40
  -5 -14   0    4.80    6.60
   5 -14   0    3.90    6.50
  -5 -14   0    8.20    6.00
   5  14   1   43.80    7.40
   5  14   1   47.50    7.60
  -5  14  -1   52.89    8.00
  -5 -14  -1   48.60    8.80
   5 -14   1   62.69    9.20
   5 -14   1   57.89    8.70
  -5 -14  -1   33.30    7.60
   5  14   2  408.56   16.50
  -5  14  -2  391.46   15.00
   5  14   2  394.16   16.60
  -5 -14  -2  439.46   17.60
   5 -14   2  417.06   15.80
  -5 -14  -2  406.06   16.40
   5 -14   2  379.46   18.10
   5  14   3    4.40    7.30
   5  14   3   13.10    6.90
  -5 -14  -3    5.80    7.90
   5 -14   3   14.40    7.00
   5 -14   3   12.20    9.20
  -5 -14  -3   17.00    6.90
   5  14   4   -8.50    7.40
   5  14   4   10.70    7.00
   5 -14   4    1.70    8.40
   5 -14   4    4.70    6.80
  -5 -14  -4   -3.10    6.30
  -5 -14  -4    2.40    6.80
   5  14   5    5.50    8.00
   5 -14   5    6.20    7.40
   5 -14   5   26.70   11.90
  -5 -14  -5   34.10    9.50
   5  14   6   27.40    8.60
   5 -14   6   41.10    8.80
   5  14   7   26.90    8.90
   5 -14   7   27.40    8.20
   5  14   8   -3.70    7.70
   5 -14   8   12.60    7.40
   5  14   9   12.60    8.70
   5 -14   9    8.50    7.50
   5  14  10   -3.20    8.50
   5 -14  10   -6.30    6.90
  -5 -15  12    9.30   11.50
  -5  15  10    6.30    5.60
  -5  15   9    5.20    5.60
  -5  15   8  -10.20    7.30
  -5  15   8    1.60    5.90
  -5  15   7    6.90    6.40
  -5  15   7   19.30    8.20
  -5 -15   7   10.70    3.80
  -5 -15   7    8.80    7.60
  -5  15   6    6.40    6.30
  -5  15   6   -1.90    6.70
  -5 -15   6   -1.50    4.10
  -5 -15   6   -6.50    6.70
  -5  15   5   47.20    7.50
  -5 -15   5   38.50    5.80
  -5 -15   5   28.20    7.60
  -5  15   4   54.39    7.80
  -5 -15   4   33.20    7.70
  -5 -15   4   43.50    6.20
  -5  15   3  156.48   10.70
   5 -15  -3  134.09    9.30
   5 -15  -3  143.49   10.90
  -5 -15   3  128.19    9.30
  -5 -15   3  133.49   10.70
   5  15  -2    1.20    4.30
  -5  15   2    5.00    6.00
  -5 -15   2    7.20    5.60
  -5 -15   2    3.10    5.90
   5 -15  -2  -10.00    5.40
   5 -15  -2    3.40    5.50
  -5  15   1   41.00    7.50
   5  15  -1   35.40    6.60
   5  15  -1   34.90    6.00
  -5 -15   1   31.60    7.40
  -5 -15   1   49.30    7.50
   5 -15  -1   38.20    7.60
   5 -15  -1   49.50    7.60
   5  15   0   -0.40    5.30
  -5  15   0   -2.60    5.30
   5  15   0   10.80    6.60
   5 -15   0   12.40    6.90
   5 -15   0    5.10    6.90
  -5 -15   0    0.20    6.90
  -5 -15   0    3.10    5.40
  -5  15  -1    6.10    5.80
   5  15   1   -3.70    6.50
   5  15   1   -4.70    5.70
   5 -15   1   -4.20    6.60
   5 -15   1    7.80    7.50
  -5 -15  -1   -2.20    6.30
  -5 -15  -1   -4.80    7.20
  -5  15  -2   -7.50    5.90
   5  15   2   -6.90    5.90
   5  15   2    5.80    6.60
  -5 -15  -2    4.00    6.20
   5 -15   2    5.00    7.40
  -5 -15  -2  -10.10    6.10
   5 -15   2    2.00    6.90
   5  15   3  232.28   14.40
   5  15   3  236.78   14.80
   5 -15   3  250.87   17.20
   5 -15   3  205.58   12.40
  -5 -15  -3  208.68   14.10
  -5 -15  -3  266.27   16.60
   5  15   4   35.60    8.60
   5  15   4   38.10    8.40
  -5 -15  -4   50.69   10.30
   5 -15   4   53.89    8.50
  -5 -15  -4   27.60    8.50
   5 -15   4   51.39   11.70
   5  15   5  -10.30    7.60
   5 -15   5   -9.50    6.80
  -5 -15  -5  -12.90    7.60
   5  15   6   -0.10    7.60
   5 -15   6   -2.90    7.00
   5  15   7   53.49   10.10
   5 -15   7   35.90    8.50
   5  15   8   -4.00    8.00
   5 -15   8   13.20    7.60
   5  15   9   -6.70    8.00
   5 -15   9   -7.90    7.30
   5  15  10  -10.70    8.00
   5 -15  10  -12.40    7.00
  -5 -16  12    7.00   10.90
  -5  16  10    4.50    5.80
  -5  16   9    5.20    5.80
  -5  16   8   62.49    8.20
  -5  16   7   -7.70    6.10
  -5  16   7   -7.10    7.40
  -5 -16   7    4.60    3.90
  -5 -16   7   -3.50    7.50
  -5  16   6   10.00    8.00
  -5  16   6   12.60    6.30
  -5 -16   6   12.20    4.70
  -5 -16   6    7.30    7.80
  -5  16   5   42.60    8.00
  -5 -16   5   31.70    8.00
  -5 -16   5   29.30    5.70
  -5  16   4   -1.50    6.00
  -5 -16   4    5.80    5.30
  -5 -16   4   -1.00    6.40
  -5  16   3    0.70    6.10
  -5 -16   3    1.10    5.20
   5 -16  -3    4.30    5.90
   5 -16  -3    2.80    7.00
  -5 -16   3    0.90    7.10
   5  16  -2   31.20    5.60
  -5  16   2   37.00    7.70
  -5 -16   2   38.50    8.20
   5 -16  -2   37.50    8.00
   5 -16  -2   23.60    6.50
  -5 -16   2   42.50    7.20
   5  16  -1   40.90    6.60
   5  16  -1   56.29    8.30
  -5  16   1   31.50    6.80
   5 -16  -1   40.80    7.70
  -5 -16   1   57.09    9.10
  -5 -16   1   42.80    7.00
   5 -16  -1   46.20    8.30
  -5  16   0    6.20    6.50
   5  16   0   -1.80    5.40
   5  16   0   10.20    6.20
   5 -16   0   14.40    7.10
  -5 -16   0   11.10    7.70
  -5 -16   0    4.30    6.40
   5 -16   0   -0.90    7.00
   5  16   1  248.98   13.30
   5  16   1  221.78   12.80
  -5  16  -1  247.28   13.30
  -5 -16  -1  219.48   13.30
   5 -16   1  261.97   13.70
   5 -16   1  252.17   15.30
  -5 -16  -1  236.38   14.20
   5  16   2   20.50    8.00
  -5  16  -2   18.90    7.10
   5  16   2   10.50    7.10
   5 -16   2    9.90    8.80
  -5 -16  -2   13.80    8.40
  -5 -16  -2   11.80    7.10
   5 -16   2    7.40    7.10
   5  16   3   62.79    9.70
   5  16   3   57.69    9.80
  -5 -16  -3   65.59    8.90
   5 -16   3   75.59   11.60
  -5 -16  -3   64.69   10.20
   5 -16   3   58.89    8.60
   5  16   4   12.90    8.30
   5  16   4    0.70    8.00
   5 -16   4    7.30    8.90
  -5 -16  -4   17.80    8.80
   5 -16   4   22.80    7.50
  -5 -16  -4    0.20    8.00
   5  16   5   82.09   11.00
   5 -16   5   74.39    9.80
  -5 -16  -5   73.39   10.90
   5  16   6    0.70    8.10
   5 -16   6    5.60    7.50
   5  16   7    1.00    7.80
   5 -16   7    0.00    7.00
   5  16   8    1.40    8.20
   5 -16   8   10.70    8.30
   5  16   9   -8.90    8.60
   5 -16   9   -6.30    7.30
  -5  17  10   16.30    6.50
  -5  17   9   12.00    6.60
  -5  17   8   16.00    6.70
  -5  17   7   -5.10    6.70
  -5 -17   7    5.00    8.00
  -5 -17   7   -6.50    3.90
  -5  17   6    2.30    7.80
  -5  17   6    1.80    6.40
  -5 -17   6   17.30    8.00
  -5 -17   6   10.70    5.10
  -5  17   5    1.10    6.50
  -5 -17   5    5.80    5.20
  -5 -17   5   -7.70    6.40
  -5  17   4   -0.50    6.40
  -5 -17   4    2.40    5.60
  -5 -17   4    1.70    7.40
  -5  17   3    9.70    6.20
  -5 -17   3    9.70    5.80
   5 -17  -3   -2.00    6.20
  -5 -17   3    9.00    7.30
  -5  17   2   35.70    7.90
   5 -17  -2   34.10    8.30
  -5 -17   2   43.90    8.80
   5 -17  -2   26.40    6.90
  -5 -17   2   35.70    7.00
  -5  17   1   -4.50    5.70
   5  17  -1   -0.80    5.30
   5  17  -1   11.90    6.80
  -5 -17   1    5.00    6.10
   5 -17  -1   -4.70    6.70
  -5 -17   1    0.80    7.60
   5 -17  -1   -6.50    6.50
  -5  17   0  102.79    9.70
   5  17   0  113.79   10.50
   5  17   0  105.29    9.30
   5 -17   0   92.89    9.50
   5 -17   0  116.69   10.70
  -5 -17   0  100.79   11.10
  -5 -17   0  103.29   10.10
  -5  17  -1    2.80    6.80
   5  17   1   -1.00    7.00
   5  17   1   -7.50    5.70
   5 -17   1    9.80    7.30
  -5 -17  -1    1.10    7.50
  -5 -17  -1  -10.20    6.20
   5 -17   1    2.20    8.20
   5  17   2   48.70    8.70
   5  17   2   21.50    8.10
  -5  17  -2   20.10    6.90
  -5 -17  -2   41.70    8.60
  -5 -17  -2   53.19   10.10
   5 -17   2   39.80   10.00
   5 -17   2   36.60    7.80
   5  17   3   83.79   11.00
   5  17   3   89.79   10.50
   5 -17   3   66.89   10.90
  -5 -17  -3   79.19   10.90
   5 -17   3   71.39    9.10
  -5 -17  -3   63.89    9.20
   5  17   4   20.50    8.60
  -5 -17  -4   30.80    9.90
   5 -17   4   19.80    9.80
   5 -17   4   18.60    7.40
   5  17   5   -6.30    7.70
   5 -17   5   23.00    7.80
   5  17   6   32.50    9.30
   5 -17   6   12.80    7.70
   5  17   7    5.90    8.50
   5 -17   7    7.20    8.10
   5  17   8    3.40    8.50
   5 -17   8  -11.60    7.20
   5  17   9   -2.70    8.10
   5 -17   9    2.50    8.00
  -5  18  10   -3.40    6.10
  -5  18   9   -1.20    6.30
  -5  18   8    5.30    6.80
  -5  18   7   18.20    7.60
  -5 -18   7   23.10    5.20
  -5 -18   7   17.90    8.70
  -5  18   6   -2.80    6.40
  -5  18   6   14.30    8.70
  -5 -18   6    7.30    7.90
  -5 -18   6    7.00    5.20
  -5  18   5   12.90    7.20
  -5 -18   5   11.50    7.50
  -5 -18   5   -4.90    5.00
  -5  18   4   39.40    8.20
  -5 -18   4   28.40    8.70
  -5 -18   4   32.20    6.70
  -5  18   3   89.19    9.80
   5 -18  -3   78.79    9.70
  -5 -18   3   65.49   10.10
  -5 -18   3   66.49    8.00
  -5  18   2   37.50    7.50
   5 -18  -2   56.99    7.90
  -5 -18   2   49.80    9.10
   5 -18  -2   33.40    8.50
  -5 -18   2   41.20    7.80
   5  18  -1   40.20    8.50
  -5  18   1   31.70    7.30
   5  18  -1   40.30    7.10
   5 -18  -1   31.40    7.90
  -5 -18   1   36.70    7.20
  -5 -18   1   31.70    8.80
   5 -18  -1   42.80    8.30
   5  18   0   26.50    7.10
   5  18   0   20.50    7.10
  -5  18   0   31.80    8.20
  -5 -18   0   26.10    7.80
   5 -18   0   21.20    8.60
   5 -18   0   33.30    8.40
  -5 -18   0   12.20    8.20
  -5  18  -1   16.30    6.70
   5  18   1   23.50    7.50
   5  18   1    4.30    6.90
   5 -18   1   21.40    7.40
   5 -18   1   31.80    9.50
  -5 -18  -1   32.50    9.60
  -5 -18  -1   24.90    8.00
   5  18   2   17.40    7.80
  -5  18  -2   35.10    8.30
   5  18   2   38.00    8.90
  -5 -18  -2   34.20    9.60
   5 -18   2   40.80   10.00
   5 -18   2   21.00    8.40
  -5 -18  -2   38.00    8.00
   5  18   3   19.20    8.90
   5  18   3   44.40    9.00
   5 -18   3   21.60    8.30
   5 -18   3   24.30    9.40
  -5 -18  -3   32.40    9.70
  -5 -18  -3   19.80    7.70
   5  18   4   17.10    8.00
   5 -18   4   20.30    8.00
  -5 -18  -4   12.80    9.00
   5  18   5   21.30    9.10
   5 -18   5   22.50    8.20
   5  18   6    7.50    8.30
   5 -18   6    3.20    7.80
   5  18   7   10.80    8.20
   5 -18   7   -4.20    7.60
   5  18   8   14.30    9.20
   5 -18   8   -2.60    8.00
   5  18   9   -9.50    7.90
   5 -18   9   -0.50    7.90
  -5  19  10   -1.20    6.60
  -5  19   9   15.40    7.30
  -5  19   8    9.60    6.90
  -5  19   7   -0.30    7.10
  -5 -19   7   14.20    5.00
  -5 -19   7   12.60    8.80
  -5  19   6    9.70    7.10
  -5 -19   6    3.60    5.30
  -5 -19   6    0.10    8.30
  -5  19   5    6.20    7.60
  -5 -19   5    0.70    5.30
  -5 -19   5    3.70    7.90
  -5  19   4    4.70    7.50
  -5 -19   4   -2.30    7.80
  -5 -19   4   14.10    6.30
  -5  19   3    4.60    7.40
  -5 -19   3   -1.80    6.10
  -5 -19   3    6.50    8.00
   5 -19  -3    6.70    7.80
  -5  19   2   83.29   10.00
  -5 -19   2   88.79    9.60
  -5 -19   2   80.99   10.30
   5 -19  -2   75.49   10.70
   5 -19  -2   89.19    9.30
   5  19  -1    9.00    6.10
  -5  19   1   -3.00    6.10
  -5 -19   1    1.20    6.80
   5 -19  -1    4.90    6.90
   5 -19  -1    6.50    7.60
  -5 -19   1   -6.50    7.90
   5  19   0    2.30    7.40
  -5  19   0   -3.50    6.70
   5  19   0    2.20    6.10
  -5 -19   0    1.80    6.80
   5 -19   0    4.00    8.00
   5 -19   0    9.70    7.90
  -5 -19   0    7.70    8.30
   5  19   1    4.20    7.30
   5  19   1    0.30    6.50
  -5  19  -1    5.50    7.00
  -5 -19  -1    6.50    8.70
  -5 -19  -1   -4.20    6.20
   5 -19   1    2.20    7.70
   5 -19   1   13.50    9.20
   5  19   2    2.80    7.30
   5  19   2    4.80    8.10
   5 -19   2   -7.00    6.50
   5 -19   2   21.90   10.10
  -5 -19  -2   -6.10    7.30
  -5 -19  -2   12.00    7.80
   5  19   3   24.80    8.90
   5  19   3   11.40    8.10
  -5 -19  -3   13.80    8.40
  -5 -19  -3    8.70    9.10
   5 -19   3   23.80   10.50
   5 -19   3    6.90    7.20
   5  19   4    1.90    8.20
   5 -19   4   -6.20    7.10
   5  19   5    6.10    8.80
   5 -19   5   -4.70    7.50
   5  19   6   -1.30    8.20
   5 -19   6    8.70    7.80
   5  19   7   -6.40    8.30
   5 -19   7    6.50    8.70
   5  19   8   15.50    9.30
   5 -19   8    1.30    8.20
   5  19   9  -19.20    8.10
   5 -19   9  -11.50    7.60
  -5  20  10   -3.50    6.90
  -5  20   9    1.60    6.80
  -5  20   8    9.30    7.40
  -5  20   7    0.40    7.00
  -5 -20   7   -1.50    4.70
  -5  20   6   34.40    8.60
  -5 -20   6   39.70    6.80
  -5 -20   6   41.80   10.40
  -5  20   5   18.30    7.90
  -5 -20   5   -6.50    5.50
  -5 -20   5   -3.40    8.10
  -5  20   4   17.20    7.60
  -5 -20   4    6.50    8.00
  -5 -20   4   19.40    6.90
  -5  20   3   27.90    8.40
  -5 -20   3   17.80    8.30
   5 -20  -3    5.70    8.30
  -5 -20   3   14.60    6.70
  -5  20   2    8.50    6.70
   5 -20  -2   11.30    8.00
   5 -20  -2    3.20    7.10
  -5 -20   2    6.80    6.80
  -5 -20   2   -3.20    7.20
  -5  20   1   18.80    7.50
  -5 -20   1   20.30    7.10
  -5 -20   1   13.70    9.00
   5 -20  -1   45.70    8.70
   5 -20  -1   10.80    7.60
  -5  20   0   52.49    9.40
   5  20   0   49.00    8.40
   5  20   0   49.70    8.70
   5 -20   0   51.19    9.80
  -5 -20   0   43.10    9.20
   5 -20   0   40.40    9.30
  -5 -20   0   36.20    8.00
  -5  20  -1    1.00    7.30
   5  20   1   -1.40    6.70
   5  20   1    5.70    7.60
  -5 -20  -1    9.40    8.10
  -5 -20  -1   20.80    9.30
   5 -20   1   11.20    9.20
   5 -20   1    4.20    8.20
   5  20   2   -4.90    6.90
   5  20   2   -1.20    7.20
  -5 -20  -2   12.10    8.60
   5 -20   2   -6.70    7.60
   5 -20   2    3.90    9.40
  -5 -20  -2  -22.00    5.60
   5  20   3    0.70    7.20
   5 -20   3   16.50    8.40
  -5 -20  -3    1.60    7.00
   5  20   4   23.50    9.50
   5 -20   4    2.80    8.20
   5  20   5   21.50    9.80
   5 -20   5    3.30    8.30
   5  20   6    3.90    8.70
   5 -20   6   -6.50    7.70
   5  20   7    4.80    8.90
   5 -20   7  -14.70    7.80
   5  20   8   -3.80    9.00
   5 -20   8   12.90    8.80
   5  20   9   -0.60    8.90
   5 -20   9   -4.30    8.10
  -5  21  11    4.20    7.10
  -5  21  10   -2.00    7.40
  -5  21   9   23.80    8.10
  -5  21   8    2.40    7.40
  -5  21   7    7.50    7.70
  -5 -21   7    3.10    5.10
  -5  21   6   -0.30    7.20
  -5 -21   6    2.20    5.80
  -5  21   5    3.20    7.50
  -5 -21   5  -11.10    5.60
  -5 -21   5  -15.00    8.60
  -5  21   4    7.00    8.20
  -5 -21   4    6.30    8.30
  -5 -21   4   11.30    6.80
  -5  21   3   24.40    8.90
  -5 -21   3    1.50    6.80
   5 -21  -3   19.20    9.20
  -5 -21   3    8.80    8.90
  -5  21   2    6.30    7.80
   5 -21  -2    1.90    7.80
  -5 -21   2   -1.80    8.40
  -5 -21   2    0.70    6.90
   5 -21  -2   -4.60   11.00
  -5  21   1   -0.10    7.70
  -5 -21   1  -11.30    8.40
   5 -21  -1   20.80    9.10
  -5 -21   1    0.10    6.30
   5 -21  -1   15.60    8.10
   5  21   0   26.90    7.90
  -5  21   0   22.00    8.50
   5  21   0   48.50    8.30
  -5 -21   0   12.00    9.30
  -5 -21   0   27.70    8.60
   5 -21   0   18.20    8.70
   5 -21   0   28.80    9.40
   5  21   1   44.40    9.60
  -5  21  -1   43.00    9.10
   5  21   1   45.80    8.70
  -5 -21  -1   50.39    9.80
   5 -21   1   44.90   10.50
   5 -21   1   58.69   10.70
  -5 -21  -1   29.30   10.10
   5  21   2   19.60    8.80
   5  21   2   27.10    8.50
   5 -21   2   36.00   11.40
  -5 -21  -2   43.30    9.50
   5 -21   2   28.50    9.40
   5  21   3   -4.00    8.40
  -5 -21  -3    8.80    7.60
   5 -21   3    5.50    8.50
   5  21   4   11.20    8.20
   5 -21   4   19.10    8.90
   5  21   5   -8.60    7.40
   5 -21   5   -2.60    8.10
   5  21   6   17.50   10.00
   5 -21   6   10.20    8.90
   5  21   7    8.20    9.40
   5 -21   7    7.70    8.80
   5  21   8    5.80    8.80
   5 -21   8   -4.00    8.40
  -5  22  10    0.80    7.70
  -5  22   9   -4.90    7.40
  -5  22   8    5.10    7.90
  -5  22   7   18.40    8.50
  -5 -22   7   14.90    5.90
  -5  22   6   10.50    8.30
  -5 -22   6   -0.50    5.80
  -5  22   5    0.50    7.20
  -5 -22   5   -7.60    6.30
  -5  22   4   -2.40    7.80
  -5 -22   4   16.70    7.00
  -5  22   3   13.30    8.70
  -5 -22   3   14.20    9.50
  -5 -22   3    7.60    7.20
  -5  22   2    3.10    8.00
   5 -22  -2    8.30    8.30
  -5 -22   2   -3.10    8.80
  -5 -22   2    6.70    7.40
  -5  22   1    9.40    7.00
  -5 -22   1    1.10    7.10
   5 -22  -1   18.90    8.60
   5 -22  -1   14.00    9.00
  -5 -22   1   21.00    9.50
   5  22   0    4.50    6.80
  -5  22   0    8.10    7.10
   5  22   0   -7.00    6.80
   5 -22   0   26.10    9.20
  -5 -22   0    3.90    9.30
   5 -22   0   -3.40    8.20
  -5 -22   0   -3.10    7.30
   5  22   1  -12.40    7.20
   5  22   1    2.50    8.40
  -5  22  -1   -1.80    7.70
   5 -22   1   -5.60    9.30
   5 -22   1   11.00    8.90
  -5 -22  -1   -2.80    7.80
   5  22   2   -3.10    7.90
   5  22   2    4.80    7.70
   5 -22   2    6.80    9.00
  -5 -22  -2   -2.30    7.00
   5  22   3   37.30   10.10
  -5 -22  -3   45.20    9.30
   5 -22   3   26.50    9.80
   5  22   4   16.40    9.80
   5 -22   4   25.40    9.80
   5  22   5   -8.70    8.60
   5 -22   5    0.10    8.20
   5  22   6    6.90    9.10
   5 -22   6   -6.20    8.50
   5  22   7    0.50    9.40
   5 -22   7    4.80    8.60
   5  22   8   20.40   10.30
   5 -22   8   -1.20    8.90
  -5  23  10    6.10    8.10
  -5  23   9    8.50    8.20
  -5  23   8   13.90    8.30
  -5  23   7    7.80    7.90
  -5 -23   7   -4.80    5.50
  -5  23   6   52.59   10.40
  -5 -23   6   30.80    7.10
  -5  23   5   -7.10    7.00
  -5 -23   5   -4.30    6.30
  -5  23   4   21.30    8.90
  -5 -23   4   13.20    7.50
  -5  23   3    0.80    8.10
  -5 -23   3    7.20    6.90
  -5  23   2   25.00    9.00
   5 -23  -2   28.20    9.70
  -5 -23   2   21.60    8.40
  -5  23   1    5.50    7.90
  -5 -23   1   13.00    8.50
   5 -23  -1   -0.80    8.50
   5 -23  -1    1.90    8.20
   5  23   0   13.00    9.30
  -5  23   0   35.20    9.40
   5 -23   0   14.90    8.20
  -5 -23   0   16.40    8.20
   5 -23   0   32.70   10.10
   5  23   1   20.60    9.20
   5  23   1   19.10    8.30
  -5  23  -1   20.50    7.90
   5 -23   1    6.10    8.00
  -5 -23  -1   17.70    9.00
   5 -23   1   25.20   10.40
   5  23   2    3.50    7.70
   5 -23   2  -10.40    8.30
  -5 -23  -2    9.20    7.90
   5  23   3    8.30    9.20
   5 -23   3    0.80    8.70
  -5 -23  -3    3.00    7.80
   5  23   4   16.20    9.90
   5 -23   4   18.20    9.40
   5  23   5   -5.20    9.20
   5 -23   5    0.80    8.50
   5  23   6   -4.70    9.50
   5 -23   6    0.30    8.80
   5  23   7    5.00    9.90
   5 -23   7    2.60    9.10
   5  23   8    2.80    9.70
   5 -23   8   -7.90    8.40
  -5  24  10    2.40    7.90
  -5  24   9   -6.50    7.70
  -5  24   8    4.60    8.40
  -5  24   7    3.60    8.10
  -5 -24   7   16.90    6.60
  -5  24   6   13.40    8.60
  -5 -24   6   20.40    7.10
  -5  24   5    1.10    7.70
  -5 -24   5    1.20    6.90
  -5  24   4   14.60    8.70
  -5 -24   4    4.20    7.40
  -5  24   3   13.20    8.20
  -5 -24   3   21.40    7.90
  -5  24   2   -0.10    8.20
   5 -24  -2   10.40    9.40
  -5 -24   2   11.50    7.70
  -5  24   1    8.40    8.40
   5 -24  -1    3.40    8.10
   5 -24  -1   11.90    9.40
  -5 -24   1    0.60    7.70
  -5  24   0   11.50    7.70
   5 -24   0   13.30    9.40
   5 -24   0  -12.10    9.00
  -5 -24   0  -13.20    7.70
  -5  24  -1    2.20    8.30
   5  24   1   12.90    8.40
   5  24   1    3.50    7.80
   5 -24   1   14.00    9.30
  -5 -24  -1   16.90    8.20
   5  24   2    1.20    7.50
   5 -24   2   -7.40    7.50
  -5 -24  -2    7.80    8.90
   5  24   3   25.20   10.30
   5 -24   3   26.80    9.50
  -5 -24  -3   28.10   10.10
   5  24   4    5.10    9.60
   5 -24   4   -5.60    8.50
   5  24   5   -3.40    9.10
   5 -24   5   -4.90    8.90
   5  24   6    6.20    9.90
   5 -24   6    0.60    8.90
   5  24   7   -8.60    9.50
   5 -24   7   -7.90    9.10
  -5  25  10   -1.50    8.10
  -5  25   9   10.60    8.60
  -5  25   8    4.70    9.00
  -5  25   7    8.80    8.90
  -5 -25   7    5.10    6.20
  -5  25   6   -3.50    8.30
  -5 -25   6    7.00    6.80
  -5  25   5   53.69   10.50
  -5 -25   5   61.39    9.50
  -5  25   4    8.70    9.50
  -5 -25   4   20.20    8.00
  -5  25   3   14.30    9.60
  -5 -25   3    7.00    7.70
  -5  25   2    9.90    9.20
  -5 -25   2   -1.80    7.90
   5 -25  -2   -6.20    8.70
  -5  25   1   24.40    9.50
   5 -25  -1   45.40   15.70
  -5 -25   1    4.10    8.70
   5 -25  -1   24.30   10.30
  -5  25   0    1.40    8.60
  -5 -25   0   10.00    8.50
   5 -25   0   -9.30    7.60
   5 -25   0    2.10   10.90
   5  25   1   12.80    9.50
  -5 -25  -1   -0.80    8.70
   5 -25   1  -14.10    8.30
   5  25   2   -1.90    8.90
  -5 -25  -2   -6.70    8.30
   5 -25   2   -6.50    8.90
   5  25   3    5.20    8.40
   5 -25   3   -6.80    8.70
  -5 -25  -3   14.50    9.70
   5  25   4   -4.60    8.90
   5 -25   4   17.30    9.40
   5  25   5   15.70   10.80
   5 -25   5    1.40    9.20
   5  25   6   -2.10    9.80
   5 -25   6   -7.20    8.80
   5  25   7  -18.50    8.20
   5 -25   7    0.60    9.30
  -5  26   9   -6.10    8.00
  -5  26   8    8.60    9.20
  -5  26   7   13.40    9.10
  -5 -26   7    5.40    6.60
  -5  26   6    6.30    9.40
  -5 -26   6    9.80    7.30
  -5  26   5    8.40    8.70
  -5 -26   5   -6.70    7.10
  -5  26   4   -4.40    8.60
  -5 -26   4   10.50    8.10
  -5  26   3   -1.00    8.90
  -5 -26   3   16.20    8.60
  -5  26   2   10.10    9.20
   5 -26  -2   20.60   10.00
  -5 -26   2   10.10    8.40
  -5  26   1    0.30    8.70
  -5 -26   1    5.00    8.50
   5 -26  -1    4.00    9.80
  -5  26   0   -8.60    8.20
  -5 -26   0   -0.30    7.40
   5 -26   0   -3.90    9.00
   5  26   1   10.30    9.20
  -5 -26  -1   -2.40    8.90
   5 -26   1    3.30    9.30
   5  26   2   18.50    8.60
   5 -26   2    5.10    8.10
  -5 -26  -2   11.00    9.60
   5  26   3   -6.50    9.10
  -5 -26  -3   14.90    9.80
   5 -26   3   -3.80    9.50
   5  26   4   -8.50    9.30
   5 -26   4    9.20    9.50
   5  26   5    2.80   10.40
   5 -26   5    6.60    9.00
   5  26   6   -2.90    9.90
   5 -26   6   10.60    9.90
   5  26   7   -5.60    9.70
   5 -26   7  -12.50    9.10
  -5  27   9   -2.60    8.30
  -5  27   8    5.90    9.20
  -5  27   7    8.90    9.20
  -5 -27   7   -7.80    6.40
  -5  27   6   -0.70    8.80
  -5 -27   6    4.90    7.40
  -5  27   5    8.70    9.30
  -5 -27   5    8.00    7.50
  -5  27   4    3.70    8.80
  -5 -27   4    9.80    8.20
  -5  27   3    4.90    9.30
  -5 -27   3   -2.90    8.10
  -5  27   2    2.70    9.40
   5 -27  -2   21.40   10.30
  -5 -27   2   13.80    9.00
  -5  27   1   -0.40    9.10
   5 -27  -1   -5.00    9.40
  -5 -27   1   -5.10    8.10
  -5  27   0   12.80    9.40
   5 -27   0  -27.60    8.70
  -5 -27   0   -7.40    8.70
   5  27   1   15.90    8.90
  -5 -27  -1    9.20    9.10
   5 -27   1  -12.40    7.70
   5  27   2   -4.00    9.20
   5 -27   2   19.30   10.50
  -5 -27  -2    0.90    8.90
   5  27   3    6.50    8.90
  -5 -27  -3   -4.40    8.00
   5 -27   3   -5.60    9.10
   5  27   4    3.30   10.00
   5 -27   4   -6.40    9.40
   5  27   5   -0.20    9.30
   5 -27   5   -5.80    9.20
   5  27   6   13.80   11.00
   5 -27   6   -9.30    9.20
  -5  28   8  -14.10    8.90
  -5  28   7   19.80   10.00
  -5 -28   7    7.30    7.20
  -5  28   6   12.00    9.50
  -5 -28   6    5.90    7.80
  -5  28   5   -7.00    9.30
  -5 -28   5  -13.50    7.00
  -5  28   4   -5.30    9.10
  -5 -28   4    1.80    8.00
  -5  28   3   29.60   11.10
  -5 -28   3   21.60    9.40
  -5  28   2    8.50    8.80
   5 -28  -2  -13.90    9.60
  -5 -28   2    1.90    8.70
  -5  28   1   22.50   10.40
   5 -28  -1    6.80   10.00
  -5 -28   1   -2.30    8.40
  -5  28   0    0.70    8.10
   5 -28   0    4.70   10.40
  -5 -28   0    3.80    9.10
   5  28   1   -6.90   12.20
  -5 -28  -1    1.20    8.50
   5 -28   1    1.10    9.60
   5  28   2   18.80   10.70
   5 -28   2    7.90    9.90
  -5 -28  -2    9.40    9.00
   5  28   3    9.00   10.50
  -5 -28  -3    8.50   10.00
   5 -28   3   25.60   10.60
   5  28   4    4.80   10.70
   5 -28   4   -9.30    9.30
   5  28   5   -5.40   10.40
   5 -28   5   13.80   10.50
   5  28   6    0.90   10.20
   5 -28   6    8.60   10.10
  -5  29   8  -14.10    8.90
  -5  29   7  -13.60    8.60
  -5 -29   7   -3.70    7.30
  -5  29   6   -2.50    8.90
  -5 -29   6   -5.50    7.40
  -5  29   5   26.50   10.90
  -5 -29   5   27.30    8.90
  -5  29   4   -9.90    9.10
  -5 -29   4   -2.30    8.20
  -5  29   3   12.90    9.90
  -5 -29   3    2.40    8.40
  -5  29   2   16.50   10.50
  -5 -29   2  -14.90    8.20
   5 -29  -2   11.90   10.50
  -5  29   1   -7.10    9.60
   5 -29  -1  -16.60    9.60
  -5 -29   1   19.80   10.00
  -5  29   0   16.20    9.30
  -5 -29   0    4.80    9.10
   5 -29   0   -7.00   10.10
  -5 -29  -1    3.30    9.50
   5 -29   1    8.50   10.70
   5  29   2    5.20   10.00
   5 -29   2   -7.70    8.20
  -5 -29  -2  -15.20    7.90
   5  29   3    3.30   10.30
   5 -29   3    0.70   10.30
  -5 -29  -3   -0.50   10.10
   5  29   4   -4.50    9.10
   5 -29   4   22.80   10.70
   5  29   5   11.10   10.10
   5 -29   5    1.60   10.50
  -5  30   7    0.40    9.40
  -5 -30   7  -12.30    7.30
  -5  30   6    0.30    9.60
  -5 -30   6    3.00    8.10
  -5  30   5  -13.00    9.60
  -5 -30   5  -10.50    8.00
  -5  30   4   -0.90    9.20
  -5 -30   4   15.30    9.00
  -5  30   3   -7.00    9.70
  -5 -30   3   -1.30    8.70
  -5  30   2   10.50   10.70
   5 -30  -2   10.50   10.70
  -5 -30   2  -12.40    8.30
  -5  30   1   15.10   10.80
   5 -30  -1    9.10   10.70
  -5 -30   1   -6.00    9.20
  -5 -30   0    0.00    8.60
   5 -30   0   10.10   11.20
  -5 -30  -1    6.30   10.30
   5 -30   1   -3.60   10.20
   5  30   2   24.10   11.00
  -5 -30  -2   -8.80    9.40
   5 -30   2    0.10   10.00
   5  30   3   -0.90   10.40
  -5 -30  -3   -8.10   10.20
   5 -30   3   10.10   10.90
   5  30   4    5.40   10.70
   5 -30   4   -6.00   10.10
   5  30   5   -6.70   10.30
   5 -30   5    2.10   10.60
  -5  31   7   10.80    9.90
  -5 -31   7    1.80    7.80
  -5  31   6   -4.60   10.10
  -5 -31   6  -10.20    7.70
  -5  31   5    1.30   10.00
  -5 -31   5    9.20    9.40
  -5  31   4  -10.40    9.50
  -5 -31   4  -19.70    7.40
  -5  31   3    5.80   10.30
  -5 -31   3    9.80    9.50
  -5  31   2    6.50    9.40
   5 -31  -2   12.60   10.80
  -5 -31   2    0.30    8.90
  -5  31   1   -5.80    9.00
   5 -31  -1    7.20   10.80
  -5 -31   1   15.00   10.00
  -5 -31   0   11.90   10.20
   5 -31   0   16.50   12.00
  -5 -31  -1   -4.10   10.40
   5 -31   1   -4.60   10.60
   5  31   2    1.30   10.30
  -5 -31  -2    7.30   10.80
   5 -31   2  -11.40   10.40
   5  31   3   -4.40   10.60
  -5 -31  -3   -9.10   10.10
   5 -31   3    2.70   10.50
   5  31   4   19.50   11.60
   5 -31   4   -0.20   10.90
  -5  32   6   -6.50    9.90
  -5 -32   6   -6.40    8.40
  -5  32   5   23.10   11.40
  -5 -32   5    3.40    8.70
  -5  32   4   -2.30   10.80
  -5 -32   4   -3.10    8.90
  -5  32   3   16.90   10.70
  -5 -32   3   -1.30    9.20
  -5  32   2    5.80   10.60
   5 -32  -2   19.00   12.00
  -5 -32   2   18.60   10.50
  -5  32   1  -14.10   10.30
  -5 -32   1    3.10   10.30
   5 -32  -1   -6.30   10.20
  -5 -32   0    6.40   10.20
   5 -32   0   -7.60   11.20
   5 -32   1    4.80   11.20
  -5 -32  -1    4.80   10.20
   5  32   2    4.70   10.70
  -5 -32  -2   13.20   11.50
   5 -32   2  -12.90   10.60
   5  32   3    1.80   11.50
  -5 -32  -3    9.40    9.90
   5 -32   3   25.30   11.90
  -5  33   5   -3.70   10.20
  -5 -33   5   -5.60    8.90
  -5  33   4   20.20   12.00
  -5 -33   4   -3.80    9.30
  -5  33   3    6.40   11.10
  -5 -33   3    7.90    9.60
  -5  33   2    2.10    9.40
  -5 -33   2   21.60   10.70
   5 -33  -2   -1.90   11.30
  -5  33   1   14.40   11.40
  -5 -33   1    5.20    9.50
   5 -33  -1   -5.30   10.70
   5 -33   0    5.30   11.50
  -5 -33   0    7.00   10.90
   5 -33   1    6.60   12.00
  -5 -33  -1   13.90   11.30
   5 -33   2   12.50   11.90
  -5 -33  -2   -4.70    9.40
   5  33   3    0.30   11.30
   5 -33   3    5.50   10.90
  -5 -33  -3   -5.90   10.70
  -5  34   4  -17.40   10.20
  -5 -34   4   13.90   10.20
  -5  34   3   18.20   11.60
  -5 -34   3    3.30    9.40
  -5  34   2   -0.80   11.30
   5 -34  -2   15.70   14.50
  -5 -34   2   18.30   10.70
  -5  34   1   -3.10    9.50
  -5 -34   1   -2.60   10.10
   5 -34  -1   29.10   12.80
  -5 -34   0   -4.80   10.10
   5 -34   0   -3.40   11.20
   5 -34   1  -16.60   10.70
  -5 -34  -1   -7.60   10.40
  -5  35   2    6.80   10.20
  -5 -35   1    4.70   10.50
   5 -35  -1   -6.60   11.50
  -6   0  13   16.40   12.20
   6   0 -13   -3.60    2.90
  -6   0  12    7.30    9.60
  -6   0  11  -11.70    8.60
  -6   0  10  -14.40    8.30
  -6   0   9   -4.90    6.90
   6   0  -8  134.99    4.60
  -6   0   8  126.19   11.00
   6   0  -7   -2.80    2.30
  -6   0   7   -2.10    6.20
  -6   0   6   18.00    6.40
   6   0  -6   25.40    3.20
  -6   0   6   20.90    3.60
  -6   0   6    5.60    5.80
  -6   0   5    1.50    3.40
   6   0  -5   -1.50    2.90
  -6   0   5    3.00    5.20
  -6   0   5   -2.00    4.80
  -6   0   5    1.40    2.80
  -6   0   4  193.58    8.80
  -6   0   4  186.98    7.20
   6   0  -4  179.08    7.20
  -6   0   4  191.88   10.40
  -6   0   4  178.38    8.00
  -6   0   3    5.30    4.30
   6   0  -3    5.80    4.60
  -6   0   3    0.30    3.90
  -6   0   3   -0.70    3.40
  -6   0   2   27.90    5.10
  -6   0   2   25.60    4.80
  -6   0   2   22.60    4.60
  -6   0   1    0.60    3.60
  -6   0   1    2.80    4.30
  -6   0   1    1.00    4.50
  -6   0   0  170.28    7.60
  -6   0   0  189.68   10.00
   6   0   0  171.08    9.40
  -6   0  -1   -2.90    3.80
  -6   0  -1   -2.20    4.70
   6   0   1    6.80    5.20
   6   0   2   31.10    6.40
  -6   0  -2   49.00    6.90
  -6   0  -2   42.80    5.40
   6   0   3    5.60    6.40
  -6   0  -3    3.80    4.60
  -6   0  -3   -0.40    5.30
   6   0   4    1.00    6.80
   6   0   4   -1.40    6.10
  -6   0  -4   -6.00    5.00
   6   0   5   -5.00    6.50
   6   0   5   -1.50    7.80
  -6   0  -5    4.00    5.10
   6   0   6    1.30    6.90
  -6   0  -6    3.60    6.00
   6   0   7    2.80    7.20
  -6   0  -7    8.60    6.80
   6   0   8   13.90    7.80
  -6   0  -8   25.70    7.80
  -6   0  -9   -8.60    7.10
   6   0   9   -6.30    7.20
  -6   0 -10   -7.10    7.40
   6   0  10   -4.10    7.50
   6   0  10    6.20    7.90
  -6   1  13    9.20   12.20
   6  -1 -13   -5.70    3.20
  -6  -1  13    4.90   11.00
  -6   1  12   16.20   11.70
  -6  -1  12    9.30   11.20
   6  -1 -12    2.90    3.00
  -6   1  11   -6.10    9.00
   6  -1 -11   -3.30    2.50
  -6  -1  11   18.70   10.50
  -6   1  10   35.20    9.90
   6  -1 -10   33.60    2.90
   6  -1 -10   29.60    2.90
  -6  -1  10   12.70    9.60
  -6   1   9   -1.20    8.20
  -6  -1   9    7.80    8.40
   6  -1  -9    2.70    2.40
   6  -1  -9    0.20    2.30
  -6   1   8    5.90    6.70
   6  -1  -8    9.10    2.70
  -6  -1   8    7.50    7.00
  -6   1   7   54.69    4.00
   6   1  -7   48.10    3.10
  -6   1   7   54.69    8.20
   6  -1  -7   50.79    3.70
  -6  -1   7   51.79    8.60
   6   1  -6    1.00    2.60
  -6   1   6   10.70    6.20
  -6   1   6   17.80    6.90
  -6   1   6    2.30    3.10
  -6  -1   6   -4.00    5.60
  -6  -1   6   10.20    6.00
  -6  -1   6   -1.00    2.90
   6  -1  -6    2.00    2.80
  -6   1   5    6.00    5.20
  -6   1   5    0.70    5.60
   6   1  -5    9.20    3.00
  -6   1   5    1.80    3.50
   6  -1  -5    1.90    2.90
  -6  -1   5    3.60    5.10
  -6  -1   5    6.50    3.20
  -6  -1   5    2.90    3.30
  -6  -1   5    1.70    5.00
  -6   1   4   62.49    6.90
  -6   1   4   69.19    5.60
  -6   1   4   57.79    4.40
   6   1  -4   60.89    4.70
  -6   1   4   59.89    6.10
  -6  -1   4   61.89    4.90
  -6  -1   4   68.99    7.20
  -6  -1   4   62.49    5.60
   6  -1  -4   59.79    5.20
  -6   1   3   31.90    4.20
   6   1  -3   39.20    6.10
  -6   1   3   29.60    5.30
  -6   1   3   29.70    5.10
  -6  -1   3   29.00    4.40
  -6  -1   3   22.80    5.30
   6  -1  -3   34.60    5.60
  -6  -1   3   24.80    4.40
  -6  -1   3   24.30    4.80
  -6   1   2   68.99    6.10
  -6   1   2   67.49    6.40
  -6   1   2   75.49    5.90
  -6  -1   2   57.39    5.90
   6  -1  -2   66.39    6.10
  -6  -1   2   66.69    6.00
  -6  -1   2   72.79    6.50
  -6   1   1   37.00    4.70
  -6   1   1   32.30    5.50
  -6  -1   1   26.30    5.20
  -6  -1   1   28.00    4.60
   6  -1  -1   43.00    7.50
  -6  -1   1   34.20    5.70
  -6   1   0  113.49    8.10
  -6   1   0  108.09    6.20
   6   1   0  125.79    8.90
   6  -1   0  134.49    9.20
  -6  -1   0  123.39    8.10
  -6  -1   0   95.99    7.80
  -6  -1   0  111.89    6.80
   6   1   1   26.50    6.40
  -6   1  -1   27.90    3.70
  -6   1  -1   23.80    6.10
  -6   1  -1   48.50    5.50
   6  -1   1   17.20    5.60
  -6  -1  -1   32.80    5.10
  -6  -1  -1   32.70    6.10
   6   1   2   15.30    6.50
  -6   1  -2   18.70    4.70
  -6   1  -2   33.70    6.90
   6   1   2   25.60    7.00
   6  -1   2   13.00    5.80
  -6  -1  -2   29.60    5.30
  -6  -1  -2   10.50    6.20
   6   1   3   76.59    9.50
  -6   1  -3   73.69    8.30
  -6   1  -3   55.09    5.90
   6   1   3   71.29    8.30
  -6  -1  -3   56.89    6.60
  -6  -1  -3   57.69    7.60
   6  -1   3   52.59    7.50
   6   1   4   31.60    6.90
   6   1   4   27.20    7.70
  -6   1  -4   23.00    5.80
  -6  -1  -4   23.40    5.90
   6  -1   4   17.00    7.20
   6   1   5   -7.90    7.90
  -6   1  -5    8.80    5.30
   6   1   5   -4.50    6.20
  -6  -1  -5    6.70    5.40
   6  -1   5    0.80    6.80
   6   1   6   -3.70    6.80
  -6   1  -6    4.70    5.70
  -6  -1  -6   15.60    6.70
   6  -1   6   21.30    7.70
  -6   1  -7    4.00    6.40
   6   1   7   13.60    7.50
   6  -1   7    6.00    7.40
  -6  -1  -7   -2.50    5.90
  -6   1  -8    3.70    6.70
   6   1   8   -9.90    6.80
  -6  -1  -8   11.10    7.50
   6  -1   8    2.30    7.40
   6   1   9   -6.00    7.00
  -6   1  -9   -0.60    7.00
  -6  -1  -9   -5.90    7.40
   6  -1   9    4.40    7.80
  -6   1 -10    2.30    8.00
   6   1  10    7.30    8.00
   6  -1  10   -0.60    7.80
   6  -1  10   12.30    8.10
  -6  -1 -10   -6.10    7.40
  -6   2  13   23.00   12.70
   6  -2 -13    7.10    3.90
  -6  -2  13    3.50   10.90
  -6   2  12   -6.50    9.00
  -6  -2  12   11.20   11.60
   6  -2 -12   -5.30    3.10
  -6   2  11    0.30    9.80
   6  -2 -11    0.20    3.00
  -6  -2  11    9.40    9.70
  -6   2  10   13.60    8.60
  -6  -2  10   -2.10    8.80
   6  -2 -10    4.80    2.90
  -6   2   9   63.59    9.90
  -6  -2   9   62.19   10.40
   6  -2  -9   71.19    4.20
   6  -2  -9   80.89    4.90
  -6   2   8    1.80    7.20
   6  -2  -8    3.40    2.80
  -6  -2   8    8.60    7.40
  -6   2   7    4.60    7.00
  -6   2   7    6.60    2.90
   6   2  -7    4.90    2.20
  -6  -2   7    6.80    6.70
   6  -2  -7   11.80    3.00
   6   2  -6    4.90    2.60
  -6   2   6    3.50    6.00
  -6   2   6   -1.00    5.70
  -6   2   6    2.80    3.30
  -6  -2   6   -4.80    5.50
   6  -2  -6    2.70    2.90
  -6  -2   6   -8.50    5.50
  -6  -2   6    2.00    2.80
  -6   2   5   14.20    5.80
  -6   2   5    7.00    5.70
   6   2  -5    9.20    2.90
  -6   2   5    9.20    3.80
  -6  -2   5    6.30    5.00
  -6  -2   5    7.00    3.40
  -6  -2   5    4.00    3.50
  -6  -2   5    1.10    5.30
   6  -2  -5    9.10    3.30
  -6   2   4   72.69    6.90
  -6   2   4   78.39    4.90
   6   2  -4   76.99    4.90
  -6   2   4   79.79    6.90
  -6   2   4   65.89    4.30
  -6   2   4   81.39    6.20
  -6  -2   4   70.99    5.30
  -6  -2   4   72.49    5.70
  -6  -2   4   80.49    5.60
  -6  -2   4   70.99    7.00
  -6   2   3   38.50    4.30
  -6   2   3   36.70    5.10
  -6   2   3   31.20    4.10
  -6   2   3   43.30    5.60
  -6  -2   3   35.90    4.80
   6  -2  -3   33.80    5.50
  -6  -2   3   33.10    4.20
  -6  -2   3   32.30    4.90
  -6  -2   3   39.20    5.90
  -6   2   2  121.49    8.10
  -6   2   2  118.89    7.60
  -6   2   2  128.39    7.70
  -6  -2   2  128.29    8.20
  -6  -2   2  137.49    8.30
  -6  -2   2  121.09    7.70
   6  -2  -2  124.29    7.90
  -6   2   1   19.90    5.00
  -6   2   1   20.80    4.00
  -6  -2   1   15.80    4.40
  -6  -2   1   12.60    5.10
  -6  -2   1    9.30    4.40
   6  -2  -1   26.00    6.20
  -6   2   0    8.60    5.60
  -6   2   0   10.60    3.20
   6   2   0   14.20    5.50
  -6  -2   0   14.80    5.40
   6  -2   0    5.90    5.80
  -6  -2   0   10.80    5.60
  -6  -2   0    7.40    3.90
  -6   2  -1  120.49    9.10
   6   2   1  118.49    9.30
  -6   2  -1  124.59    5.60
  -6   2  -1  119.79    7.60
   6   2   1  129.59   10.20
   6  -2   1  126.69    9.50
  -6  -2  -1  113.49    7.60
  -6  -2  -1  111.09    8.70
  -6  -2  -1  130.89    9.40
  -6   2  -2   14.50    5.90
  -6   2  -2   11.30    3.10
  -6   2  -2    7.30    4.50
   6   2   2   10.70    6.60
   6   2   2   16.70    6.40
  -6  -2  -2   12.90    4.70
  -6  -2  -2    6.30    5.20
   6  -2   2    1.30    6.10
  -6   2  -3    2.90    4.80
   6   2   3   -4.10    6.90
  -6   2  -3   -1.10    5.90
   6   2   3    5.90    5.70
  -6  -2  -3   -5.80    5.20
   6  -2   3   -5.40    6.20
  -6  -2  -3   -1.90    4.70
  -6   2  -4    8.20    5.10
   6   2   4   -1.00    6.10
   6   2   4   -3.20    7.30
  -6  -2  -4    4.90    5.30
   6  -2   4   11.30    7.00
   6   2   5    6.30    8.60
   6   2   5    6.20    6.70
  -6   2  -5    2.40    5.50
   6  -2   5    5.90    7.20
  -6  -2  -5   24.00    6.70
  -6   2  -6   14.70    6.20
   6   2   6    8.30    6.80
  -6  -2  -6   15.20    6.60
   6  -2   6   11.70    7.30
  -6   2  -7   17.10    6.50
   6   2   7    5.10    7.50
  -6  -2  -7    2.90    6.80
   6  -2   7   -1.20    7.00
  -6   2  -8  -10.40    6.00
   6   2   8   -6.60    7.00
   6  -2   8    1.20    7.40
  -6  -2  -8   -7.20    6.70
  -6   2  -9    2.30    7.20
   6   2   9  -11.60    7.20
   6  -2   9   -0.90    7.90
  -6  -2  -9   -5.60    6.90
   6  -2   9   10.60    7.80
  -6   2 -10   -0.50    7.70
   6   2  10    0.70    7.90
  -6  -2 -10    0.70    7.70
   6  -2  10   -9.60    7.50
  -6   3  13  -15.70   10.40
   6  -3 -13   -1.80    3.90
  -6  -3  13   -1.70   10.80
  -6   3  12    8.80   11.70
  -6  -3  12   11.40   10.10
   6  -3 -12   -1.00    3.60
  -6   3  11   21.90   11.00
   6  -3 -11   -6.00    3.20
  -6  -3  11    8.40   10.30
  -6   3  10   21.20    9.70
   6  -3 -10   13.10    3.40
  -6  -3  10   14.90    9.10
  -6   3   9   12.00    8.70
  -6  -3   9   13.10    8.40
  -6   3   8    7.40    7.50
  -6  -3   8   10.90    7.60
  -6   3   7   40.90    4.10
  -6   3   7   35.40    7.90
   6   3  -7   39.40    2.80
   6  -3  -7   42.40    6.40
  -6  -3   7   50.19    8.40
   6   3  -6   -1.00    2.50
  -6   3   6   -6.70    5.50
  -6   3   6   -1.30    3.40
  -6   3   6   -3.10    5.60
  -6  -3   6    1.50    2.70
  -6  -3   6   -0.60    5.80
  -6  -3   6  -10.80    5.50
  -6   3   5    7.90    4.00
   6   3  -5    5.70    2.80
  -6   3   5   21.30    6.00
  -6   3   5    4.30    5.60
  -6  -3   5   12.20    5.90
  -6  -3   5    0.90    3.60
  -6  -3   5   11.50    3.70
  -6  -3   5   11.00    5.30
  -6   3   4   17.40    2.90
   6   3  -4   14.20    3.40
  -6   3   4   14.80    5.30
  -6   3   4   12.60    5.10
  -6   3   4   17.70    4.30
  -6   3   4   20.50    3.00
  -6  -3   4   14.40    4.20
  -6  -3   4   15.10    5.40
  -6  -3   4   20.80    4.30
  -6  -3   4   11.00    3.00
  -6   3   3   23.00    4.80
  -6   3   3   23.00    4.90
  -6   3   3   27.90    3.80
  -6   3   3   18.60    3.60
  -6  -3   3   21.70    5.50
  -6  -3   3   14.80    4.50
  -6  -3   3   26.00    3.80
  -6  -3   3   27.70    4.70
   6  -3  -3   20.90    5.10
  -6   3   2   68.99    6.50
  -6   3   2   72.39    5.90
  -6  -3   2   71.79    6.30
  -6  -3   2   58.29    6.10
  -6  -3   2   65.19    6.30
   6  -3  -2   63.29    5.70
  -6   3   1   60.79    4.90
  -6   3   1   70.99    7.10
  -6  -3   1   57.39    6.40
  -6  -3   1   70.59    6.80
   6  -3  -1   70.89    7.50
  -6  -3   1   61.99    5.90
   6   3   0   39.60    6.80
  -6   3   0   22.70    5.50
  -6   3   0   17.30    3.20
  -6  -3   0   15.20    5.50
  -6  -3   0   19.90    5.60
   6  -3   0   18.80    5.80
   6   3   1    2.00    5.20
  -6   3  -1    1.70    4.10
  -6   3  -1    2.10    2.40
  -6   3  -1   -1.40    5.40
   6   3   1   -7.90    5.30
  -6  -3  -1    4.20    4.00
  -6  -3  -1   -6.90    4.40
  -6  -3  -1   -0.50    4.90
   6  -3   1    1.10    6.00
  -6   3  -2   97.59    8.40
   6   3   2   99.89    9.50
   6   3   2  109.09    9.50
  -6   3  -2  108.49    7.50
  -6  -3  -2  101.69    8.80
  -6  -3  -2  117.59    8.10
   6  -3   2  115.19    9.80
  -6  -3  -2  109.89    9.20
   6   3   3   91.69   10.10
  -6   3  -3   87.49    7.20
  -6   3  -3   92.29    8.70
   6   3   3   86.59    8.70
  -6  -3  -3   98.99    8.70
   6  -3   3   87.79    8.60
  -6  -3  -3  112.09   10.90
  -6  -3  -3  106.39    7.80
  -6   3  -4   21.70    5.60
   6   3   4   24.60    7.60
   6   3   4    5.90    7.60
   6  -3   4   20.20    7.50
  -6  -3  -4   12.20    5.70
   6   3   5   10.00    6.90
   6   3   5   23.60    8.40
  -6   3  -5   13.10    6.00
   6  -3   5    9.40    7.10
  -6  -3  -5   20.00    6.50
   6   3   6   39.80    8.30
  -6   3  -6   34.30    6.70
   6  -3   6   12.50    7.30
  -6  -3  -6   30.60    6.90
   6   3   7    3.00    7.40
  -6   3  -7    3.30    6.40
   6  -3   7    1.20    7.00
  -6  -3  -7    2.10    6.40
  -6   3  -8  -16.60    5.60
   6   3   8   -3.80    7.10
  -6  -3  -8    2.80    6.30
   6  -3   8   -5.50    7.20
  -6   3  -9    4.90    7.60
   6   3   9    7.30    7.80
   6  -3   9   13.30    8.00
  -6  -3  -9    6.30    8.10
   6   3  10    7.80    8.30
  -6   3 -10   -1.60    7.60
  -6  -3 -10    0.50    7.50
   6  -3  10   -9.80    7.50
  -6   4  13   10.30   12.40
  -6  -4  13   10.10   11.50
   6  -4 -13    2.50    4.50
  -6   4  12   16.40   10.40
   6  -4 -12    4.50    4.20
  -6  -4  12  -15.10    9.60
  -6   4  11    1.90   10.20
  -6  -4  11   -8.90    9.50
   6  -4 -11    1.60    3.80
  -6   4  10   -3.30    9.40
   6  -4 -10    0.60    3.70
  -6  -4  10    4.80    8.10
  -6   4   9    8.50    8.40
  -6  -4   9   -3.40    8.20
  -6   4   8   24.10    8.30
  -6  -4   8   29.00    8.90
  -6   4   7   49.99    8.80
  -6   4   7   57.89    4.70
   6   4  -7   47.00    3.10
  -6  -4   7   57.39    8.60
  -6   4   6   11.90    6.70
  -6   4   6    1.20    3.70
   6   4  -6    1.00    2.60
  -6  -4   6    4.30    2.80
  -6  -4   6   -5.70    6.00
  -6  -4   6   -5.80    5.80
   6   4  -5    0.40    2.80
  -6   4   5   -6.10    5.20
  -6   4   5    2.90    3.80
  -6  -4   5   -1.40    5.40
  -6  -4   5    1.40    3.20
  -6  -4   5    1.80    5.20
  -6  -4   5   -1.80    3.80
  -6   4   4    5.20    5.00
  -6   4   4    6.60    2.50
   6   4  -4    7.80    3.20
  -6   4   4    4.90    4.90
  -6   4   4    5.50    4.20
  -6   4   4    6.90    2.60
  -6  -4   4    2.50    3.70
  -6  -4   4    9.40    5.20
  -6  -4   4    0.90    4.10
  -6  -4   4    5.00    2.70
  -6   4   3   56.69    4.50
  -6   4   3   47.90    5.70
  -6   4   3   56.49    4.50
  -6   4   3   50.89    6.00
  -6  -4   3   63.99    7.10
  -6  -4   3   59.29    4.60
  -6  -4   3   56.59    5.70
  -6  -4   3   52.89    5.70
   6  -4  -3   61.49    6.10
  -6   4   2   -0.80    4.30
  -6   4   2   -2.20    3.60
   6  -4  -2    6.00    3.90
  -6  -4   2   -5.10    4.20
  -6  -4   2   -4.90    4.10
  -6  -4   2    3.10    4.50
  -6   4   1   30.70    6.10
  -6   4   1   33.10    4.00
  -6  -4   1   18.80    5.30
   6  -4  -1   22.50    4.00
  -6  -4   1   30.70    5.30
   6  -4  -1   22.80    6.10
  -6  -4   1   33.50    5.40
   6   4   0  315.77   12.70
  -6   4   0  323.07   12.70
   6   4   0  282.47   12.00
  -6   4   0  304.67    8.50
   6  -4   0  307.07   12.20
  -6  -4   0  317.17   12.30
  -6  -4   0  314.67   12.20
  -6   4  -1  151.18    8.50
   6   4   1  133.29   10.50
  -6   4  -1  145.19    4.90
  -6   4  -1  143.89   10.00
   6   4   1  148.59   10.20
  -6  -4  -1  140.39   10.10
  -6  -4  -1  129.79    8.10
  -6  -4  -1  151.98   11.00
   6  -4   1  137.79    9.50
   6   4   2   50.19    7.90
  -6   4  -2   54.29    6.10
   6   4   2   68.29    8.60
  -6   4  -2   53.59    7.70
  -6  -4  -2   73.39    6.40
  -6  -4  -2   56.49    8.20
  -6  -4  -2   76.19    7.70
   6  -4   2   54.99    8.00
   6   4   3   11.30    6.60
   6   4   3   14.40    7.40
  -6   4  -3   11.30    4.90
  -6   4  -3   10.30    6.60
  -6  -4  -3    7.00    4.80
  -6  -4  -3    9.00    6.50
  -6  -4  -3   -0.80    6.90
   6  -4   3   13.80    6.80
  -6   4  -4   32.20    6.30
   6   4   4   36.50    8.80
   6   4   4   41.90    7.50
   6  -4   4   34.90    7.40
  -6  -4  -4   39.30    6.10
  -6  -4  -4   42.60    8.10
  -6   4  -5  112.69    8.80
   6   4   5  138.29   11.40
   6   4   5  110.29   11.20
  -6  -4  -5  146.69   10.50
  -6  -4  -5  136.09   12.40
   6  -4   5  137.39   11.20
   6   4   6    8.70    7.20
  -6   4  -6    1.30    5.50
   6  -4   6   14.30    7.30
  -6  -4  -6    9.90    6.10
  -6  -4  -6   35.80    9.90
   6   4   7   16.00    7.80
  -6   4  -7    3.40    6.50
   6  -4   7   -6.70    7.10
  -6  -4  -7    4.90    6.80
   6   4   8    4.00    7.50
  -6   4  -8    6.50    7.00
   6  -4   8   11.70    7.50
   6  -4   8    5.10    7.40
  -6  -4  -8    0.30    6.60
   6   4   9   -4.30    7.40
  -6   4  -9    3.10    7.00
   6  -4   9   -2.00    7.90
  -6  -4  -9   16.90    8.10
   6   4  10    3.90    8.00
  -6   4 -10   -6.50    7.10
  -6  -4 -10   -0.20    7.60
   6  -4  10   -3.50    7.90
  -6   5  13  -15.10   12.00
   6  -5 -13   -9.20    4.60
  -6  -5  13    5.00   11.60
  -6   5  12    7.60   11.60
   6  -5 -12   -7.10    4.30
  -6  -5  12   10.60   11.40
  -6   5  11    5.90    9.50
  -6  -5  11  -19.70    9.30
   6  -5 -11    2.10    4.40
  -6   5  10    2.80    9.40
  -6  -5  10    3.90    9.60
   6  -5 -10   -8.40    3.80
  -6   5   9   67.99   11.20
  -6  -5   9   80.09   11.90
  -6   5   8   26.00    8.00
  -6  -5   8   21.50    8.30
  -6   5   7   -1.00    6.30
   6   5  -7    0.00    2.20
  -6   5   7    0.60    3.70
  -6  -5   7   -2.20    6.80
  -6   5   6   26.80    4.60
  -6   5   6   17.30    7.00
   6   5  -6   34.10    3.40
  -6  -5   6   28.40    7.60
  -6  -5   6   32.10    7.20
  -6  -5   6   25.70    3.40
  -6   5   5   46.10    5.40
   6   5  -5   44.60    4.00
  -6   5   5   65.09    7.80
  -6  -5   5   36.00    4.50
  -6  -5   5   65.39    7.80
  -6  -5   5   47.00    6.60
  -6  -5   5   47.40    5.50
  -6   5   4   25.30    5.80
  -6   5   4   22.30    5.10
  -6   5   4   20.70    2.80
  -6  -5   4   19.40    3.40
  -6  -5   4   15.00    5.80
  -6  -5   4   22.50    5.00
  -6  -5   4   24.10    6.00
  -6  -5   4   27.10    4.60
  -6   5   3    1.20    4.40
  -6   5   3    1.20    4.10
  -6   5   3    2.40    3.10
  -6  -5   3   -0.70    2.90
  -6  -5   3   -0.70    3.90
   6  -5  -3    2.70    4.40
  -6  -5   3    2.00    4.80
  -6  -5   3   -5.20    4.00
  -6   5   2   42.50    5.10
  -6   5   2   45.00    6.10
  -6  -5   2   33.90    5.40
  -6  -5   2   51.89    6.50
  -6  -5   2   40.70    5.50
  -6  -5   2   53.59    6.30
   6  -5  -2   47.50    5.20
  -6   5   1   73.29    6.70
  -6   5   1   75.69    5.10
   6   5  -1   73.69    6.70
   6   5  -1   62.99    8.30
  -6  -5   1   65.89    6.80
   6  -5  -1  101.29    8.60
  -6  -5   1   79.09    7.20
  -6  -5   1   76.09    6.80
   6  -5  -1   74.69    5.80
   6   5   0  285.17   11.50
  -6   5   0  261.67    7.60
   6   5   0  269.77   11.60
  -6   5   0  268.57   12.00
   6  -5   0  255.17   12.30
  -6  -5   0  276.27   12.50
  -6  -5   0  264.07   11.10
   6   5   1    0.10    5.80
   6   5   1    5.00    5.50
  -6   5  -1    4.00    4.20
  -6   5  -1    6.90    6.00
  -6  -5  -1    6.00    5.70
  -6  -5  -1    8.40    6.00
   6  -5   1    1.60    5.40
  -6   5  -2   25.40    6.80
   6   5   2   22.60    6.90
  -6   5  -2   24.60    5.10
   6   5   2   24.90    7.30
  -6  -5  -2   30.90    7.70
   6  -5   2   41.40    7.50
  -6  -5  -2   29.50    6.20
  -6  -5  -2   18.80    4.90
   6   5   3   80.79    9.70
   6   5   3   80.19    9.40
  -6   5  -3   74.89    6.80
  -6   5  -3   90.39    8.60
  -6  -5  -3   92.89    7.40
  -6  -5  -3   91.69    9.50
  -6  -5  -3   82.59    8.50
   6  -5   3   76.69    8.30
   6   5   4   16.80    7.30
   6   5   4   22.00    7.60
  -6   5  -4   27.60    6.20
  -6  -5  -4   20.70    5.80
   6  -5   4   16.30    6.60
  -6  -5  -4   30.00    8.60
   6   5   5   -1.00    7.60
   6   5   5   -4.50    6.90
  -6   5  -5   -1.90    5.50
  -6  -5  -5    8.60    5.60
  -6  -5  -5   -8.00    7.70
   6  -5   5    0.40    6.60
  -6   5  -6   14.40    5.80
   6   5   6   11.80    7.20
   6  -5   6   10.10    7.30
  -6  -5  -6    5.60    8.80
  -6  -5  -6   13.40    6.20
  -6   5  -7   32.90    7.20
   6   5   7   19.90    8.00
   6  -5   7   20.60    7.80
  -6  -5  -7   24.20    7.20
   6  -5   7   29.90    8.30
   6   5   8    8.60    7.80
  -6   5  -8   16.30    7.00
   6  -5   8    7.00    7.90
  -6  -5  -8    8.50    7.30
   6   5   9    1.00    8.10
  -6   5  -9   10.60    7.40
  -6  -5  -9   22.20    8.30
   6  -5   9  -12.00    7.60
  -6   5 -10    3.40    7.40
   6   5  10   -7.90    7.80
  -6  -5 -10    3.30    8.00
   6  -5  10   -4.20    7.70
  -6   6  13   13.60   12.60
   6  -6 -13    9.70    5.40
  -6  -6  13   13.60   12.40
  -6   6  12   16.00   10.90
  -6  -6  12    5.10   11.30
   6  -6 -12   -1.40    4.80
  -6   6  11   10.00   10.70
   6  -6 -11   -2.10    4.40
  -6  -6  11   -4.20    9.20
  -6   6  10    4.70   10.30
  -6  -6  10  -15.50    9.20
  -6   6   9    0.60    8.00
  -6  -6   9    0.70    8.60
  -6   6   8  180.78   13.40
  -6   6   8  181.68    7.20
  -6  -6   8  171.18   13.50
  -6   6   7   11.00    4.20
  -6   6   7    5.00    5.80
  -6   6   7    5.90    7.90
   6   6  -7    6.70    2.60
  -6  -6   7    4.60    6.80
  -6   6   6    3.90    4.30
  -6   6   6   11.10    6.20
   6   6  -6    0.70    2.80
  -6  -6   6   -3.50    2.80
  -6  -6   6    2.50    5.90
  -6  -6   6    0.30    4.40
  -6   6   5   57.19    7.60
  -6   6   5   63.39    6.10
   6   6  -5   58.89    4.50
  -6  -6   5   45.80    6.00
  -6  -6   5   52.69    6.60
  -6  -6   5   58.39    8.00
  -6  -6   5   67.89    5.20
  -6   6   4   15.40    2.70
  -6   6   4   14.50    4.70
  -6  -6   4   12.90    5.00
  -6  -6   4   12.00    5.70
  -6  -6   4   17.00    4.30
  -6   6   3   17.30    5.10
  -6   6   3   13.80    3.40
  -6  -6   3   19.50    5.00
  -6  -6   3   14.40    3.40
   6  -6  -3   15.30    4.70
  -6  -6   3   23.30    5.90
  -6  -6   3   19.70    4.60
  -6   6   2  109.69    7.70
   6  -6  -2  113.19    7.60
  -6  -6   2  122.09    8.00
  -6  -6   2  122.39    8.60
  -6  -6   2  112.19    7.00
  -6  -6   2  148.59    9.30
  -6   6   1  307.87   11.50
   6   6  -1  314.57   12.30
   6   6  -1  300.87   11.40
   6  -6  -1  312.47    9.60
  -6  -6   1  320.27   12.90
   6  -6  -1  330.97   12.40
   6  -6  -1  319.07   12.30
  -6  -6   1  304.67   11.30
   6   6   0  211.38   11.10
   6   6   0  212.98   11.20
  -6   6   0  225.88   10.80
  -6  -6   0  205.48   10.10
  -6  -6   0  185.38   11.50
   6  -6   0  179.88   11.30
  -6   6  -1  142.79    8.40
   6   6   1  135.09   10.00
   6   6   1  135.39   10.10
  -6   6  -1  144.09   10.00
  -6  -6  -1  128.89   10.00
  -6  -6  -1  136.29    9.80
   6  -6   1  118.49    9.20
  -6   6  -2   46.20    5.60
  -6   6  -2   55.29    7.40
   6   6   2   61.79    7.70
   6   6   2   52.09    7.70
   6  -6   2   38.00    6.90
  -6  -6  -2   53.29    7.30
  -6  -6  -2   79.19    9.10
   6   6   3    2.80    7.00
  -6   6  -3    8.50    6.60
   6   6   3   -5.50    6.70
  -6   6  -3    8.90    5.20
   6  -6   3   -1.20    6.50
  -6  -6  -3    6.00    5.80
  -6  -6  -3   -2.00    5.90
  -6  -6  -3   -3.50    4.50
  -6   6  -4    2.20    5.30
   6   6   4    5.90    7.10
   6   6   4    2.10    7.40
   6  -6   4    8.20    6.80
  -6  -6  -4    9.50    5.40
  -6  -6  -4   -4.70    6.60
   6   6   5   50.19    8.90
   6   6   5   51.99   10.10
  -6   6  -5   60.39    7.60
   6  -6   5   53.79    8.60
  -6  -6  -5   52.39   10.00
  -6  -6  -5   63.39    7.80
   6  -6   5   46.30    8.40
   6   6   6   21.70    7.90
  -6   6  -6   30.10    6.70
  -6  -6  -6   28.60   10.20
   6  -6   6   19.30    7.70
  -6  -6  -6   24.20    6.70
   6  -6   6   31.10    7.70
   6   6   7   24.60    8.30
  -6   6  -7   24.30    7.40
  -6  -6  -7   33.50    7.20
   6  -6   7   47.20    9.10
  -6   6  -8   -2.00    6.80
   6   6   8   25.40    8.30
  -6  -6  -8  -10.00    6.20
   6  -6   8   -0.90    7.30
  -6   6  -9    8.20    7.40
   6   6   9   -3.50    7.80
  -6  -6  -9    8.90    7.60
   6  -6   9    1.60    7.70
   6   6  10   -6.20    7.90
  -6   6 -10    0.00    7.20
  -6  -6 -10   -8.00   10.90
   6  -6  10   -1.70    7.60
  -6   7  13  -21.70   11.40
  -6  -7  13    6.90   11.60
  -6   7  12   -1.90   11.40
  -6  -7  12  -14.20   10.00
   6  -7 -12   -0.40    5.10
  -6   7  11   -0.50   10.80
  -6  -7  11  -10.20    9.40
  -6   7  10   10.30   10.30
  -6  -7  10   -4.00    9.00
  -6   7   9   -4.70    9.00
  -6  -7   9    2.10    8.70
  -6   7   8   68.19    5.60
  -6   7   8   52.39   10.20
  -6  -7   8   70.59   10.20
  -6   7   7   47.90    5.60
   6   7  -7   52.09    3.70
  -6   7   7   54.79    7.70
  -6   7   7   38.10    9.20
  -6  -7   7   50.49    8.60
   6   7  -6  133.69    6.10
  -6   7   6  136.09    8.20
  -6   7   6  146.69   11.30
  -6  -7   6  134.39    9.40
  -6  -7   6  127.79    5.90
  -6   7   5  -10.60    5.60
  -6   7   5    0.20    4.20
  -6  -7   5   -0.70    3.60
  -6  -7   5    3.70    5.50
  -6  -7   5    3.60    4.80
  -6   7   4   23.40    5.20
  -6  -7   4   18.20    5.30
  -6  -7   4   14.90    5.40
  -6  -7   4   18.40    4.30
  -6   7   3   32.80    4.10
  -6   7   3   24.20    5.40
  -6  -7   3   21.60    5.60
  -6  -7   3   29.10    5.00
   6  -7  -3   29.30    5.40
  -6  -7   3   19.80    5.80
  -6  -7   3   20.50    3.60
   6   7  -2  170.38    8.20
  -6   7   2  177.68    9.70
  -6  -7   2  161.58   10.10
  -6  -7   2  180.88   10.30
  -6  -7   2  166.08    8.80
   6  -7  -2  174.28    8.40
  -6  -7   2  176.58    9.20
   6  -7  -2  179.48   10.60
   6   7  -1   99.69    8.00
   6   7  -1  102.79    8.10
  -6   7   1  112.19    8.10
   6  -7  -1   91.79    8.20
  -6  -7   1  106.99    8.40
  -6  -7   1  110.89    8.20
   6  -7  -1  102.29    6.20
   6   7   0    9.50    5.40
  -6   7   0   -4.30    5.20
   6   7   0    1.60    5.00
  -6  -7   0   10.50    5.90
   6  -7   0   -5.40    6.00
  -6  -7   0    2.70    4.90
   6  -7   0    4.20    6.10
   6   7   1   37.30    6.90
  -6   7  -1   51.89    6.00
  -6   7  -1   36.90    6.40
   6   7   1   46.30    7.50
   6  -7   1   43.40    7.00
  -6  -7  -1   47.80    7.30
   6  -7   1   37.50    7.30
  -6  -7  -1   49.00    7.30
  -6   7  -2   67.99    8.20
   6   7   2   64.99    8.50
  -6   7  -2   61.19    6.60
   6   7   2   47.40    8.10
   6  -7   2   52.49    8.30
   6  -7   2   63.09    8.70
  -6  -7  -2   58.99    8.00
  -6  -7  -2   52.29    8.40
   6   7   3   -5.80    6.40
  -6   7  -3    4.40    6.20
   6   7   3    9.50    7.00
  -6   7  -3   -8.00    4.40
  -6  -7  -3   -2.60    7.70
   6  -7   3   -1.40    6.10
  -6  -7  -3  -11.90    6.00
   6  -7   3    7.30    6.60
  -6  -7  -3    0.20    7.20
   6   7   4   30.00    8.00
   6   7   4   36.40    9.10
  -6   7  -4   35.00    6.50
  -6  -7  -4   25.10    8.40
   6  -7   4   16.20    7.10
   6  -7   4   40.80    8.00
  -6  -7  -4   21.20    6.30
  -6  -7  -4   45.70   14.00
   6   7   5    4.10    8.20
   6   7   5    1.90    6.90
  -6   7  -5   10.10    5.70
  -6  -7  -5   -7.00    7.90
  -6  -7  -5   10.20    6.10
   6  -7   5    3.80    6.80
   6  -7   5    1.60    6.90
  -6   7  -6   -4.30    5.70
   6   7   6   -2.10    7.00
   6  -7   6   16.10    7.80
  -6  -7  -6   -2.90    5.70
  -6   7  -7   -3.20    6.00
   6   7   7   -1.80    7.40
  -6  -7  -7  -12.00    6.30
   6  -7   7    9.50    7.50
  -6   7  -8   -4.50    6.50
   6   7   8   -1.30    7.60
   6  -7   8    2.70    7.70
  -6  -7  -8    9.80    7.10
   6   7   9    3.30    8.10
  -6   7  -9    8.30    7.70
  -6  -7  -9   18.50   11.10
   6  -7   9   22.70    8.50
  -6   7 -10    7.40    7.50
   6   7  10    4.30    8.50
   6  -7  10   10.70    8.20
  -6   8  13   -8.90   12.40
  -6  -8  13   -1.80   10.00
  -6   8  12   -9.10   11.10
  -6  -8  12   -9.90   10.20
  -6   8  11    2.20   11.40
  -6  -8  11  -27.10    9.30
  -6   8  10   11.10   10.50
  -6  -8  10    2.00    9.80
  -6   8   9   -2.70    8.10
  -6  -8   9  -14.00    7.70
  -6   8   8    6.20    4.00
  -6   8   8   -6.20    8.30
   6   8  -8    3.80    2.60
  -6  -8   8    6.60    8.00
   6   8  -7    1.00    2.80
  -6   8   7   -4.70    4.30
  -6   8   7    0.20    7.80
  -6   8   7   11.40    6.40
  -6   8   6   13.30    5.10
  -6   8   6   22.10    7.30
  -6  -8   6   20.80    5.90
  -6  -8   6   22.00    3.70
  -6   8   5   42.10    6.10
  -6  -8   5   28.00    6.30
  -6  -8   5   41.30    4.80
  -6  -8   5   40.20    6.30
  -6   8   4  102.29    7.80
  -6  -8   4   92.39    6.80
  -6  -8   4   89.49    7.80
  -6  -8   4   96.09    8.90
  -6   8   3  103.69    6.40
  -6   8   3  116.29    8.40
  -6  -8   3  125.49    9.30
  -6  -8   3  107.39    7.60
  -6  -8   3   99.99    5.80
   6  -8  -3  102.19    7.60
  -6  -8   3  106.29    8.40
   6   8  -2   36.10    4.90
  -6   8   2   22.20    5.80
  -6  -8   2   40.20    6.50
  -6  -8   2   25.50    6.10
  -6  -8   2   27.10    5.40
   6  -8  -2   37.10    7.10
   6  -8  -2   34.60    5.00
   6   8  -1   96.79    7.40
  -6   8   1  115.29    8.90
   6   8  -1  129.09    9.40
   6  -8  -1  106.59    6.30
  -6  -8   1   97.49    8.80
   6  -8  -1   99.09    7.70
   6  -8  -1   92.39    8.30
  -6  -8   1   88.09    7.70
   6   8   0   -3.50    5.00
  -6   8   0    0.80    4.80
   6   8   0   -0.90    5.60
  -6  -8   0    0.90    5.30
  -6  -8   0    6.20    5.50
   6  -8   0   -3.60    6.00
   6  -8   0   -1.70    5.40
   6  -8   0    1.10    2.50
   6   8   1  152.38   10.90
  -6   8  -1  136.49   10.20
   6   8   1  161.18   10.90
   6  -8   1  153.48   11.40
  -6  -8  -1  152.98   10.70
  -6  -8  -1  132.39   10.60
   6  -8   1  151.78   11.00
   6   8   2  141.69   11.30
   6   8   2  124.59   10.30
  -6   8  -2  114.89    9.30
   6  -8   2  127.39    9.80
  -6  -8  -2  133.99   11.20
   6  -8   2  125.49   10.90
  -6  -8  -2  120.89    9.50
  -6   8  -3   -2.70    6.10
   6   8   3    3.60    6.80
   6   8   3   -2.10    6.90
  -6  -8  -3    3.30    7.10
  -6  -8  -3    3.00    6.50
   6  -8   3    0.80    5.80
   6   8   4   -6.20    6.60
   6   8   4   13.30    7.10
   6  -8   4    6.30    7.10
  -6  -8  -4    2.40   10.10
  -6  -8  -4   -2.90    7.40
  -6   8  -5   28.20    6.90
   6   8   5   29.60    9.00
   6   8   5   31.70    8.80
  -6  -8  -5   29.60    8.30
  -6  -8  -5   38.10    9.80
   6  -8   5   23.50    7.80
  -6   8  -6   -5.90    5.50
   6   8   6   -3.10    7.40
   6  -8   6    7.00    7.30
  -6  -8  -6   19.80    7.50
   6   8   7   -2.40    7.40
  -6   8  -7   -3.60    6.30
  -6  -8  -7   -4.40    7.20
   6  -8   7    0.50    7.70
   6   8   8   13.70    8.10
  -6   8  -8   -8.30    6.40
   6  -8   8    4.80    7.90
  -6   8  -9    0.80    7.30
   6   8   9   12.90    8.60
   6  -8   9    9.90    8.10
   6   8  10    9.40    8.60
  -6   8 -10    0.60    7.50
   6  -8  10   12.10    8.10
  -6   9  13    5.00   12.10
  -6  -9  13  -25.20   10.50
  -6   9  12    4.20   12.00
  -6  -9  12    6.50   11.30
  -6   9  11  -14.30   10.70
  -6  -9  11   -8.80   10.10
  -6   9  10    2.80   10.10
  -6  -9  10    6.80   10.10
  -6   9   9   -0.80    9.60
  -6  -9   9    7.20    8.20
  -6   9   8   14.50    8.90
   6   9  -8   14.10    5.00
  -6   9   8   17.00    4.70
  -6   9   7   -5.20    4.60
  -6   9   7   -2.50    7.70
  -6   9   7   -2.00    6.20
  -6   9   6  241.58   10.90
  -6   9   6  248.68   14.00
  -6  -9   6  259.97   12.20
  -6  -9   6  249.97    8.30
  -6   9   5   55.89    6.50
  -6  -9   5   61.29    7.20
  -6  -9   5   56.99    5.40
  -6  -9   5   54.09    8.80
  -6   9   4   14.10    5.40
  -6  -9   4   28.70    6.70
  -6  -9   4   26.50    6.30
  -6  -9   4   32.70    5.20
  -6   9   3   -4.70    4.80
   6  -9  -3    1.00    4.70
  -6  -9   3    4.20    5.60
  -6  -9   3   -1.80    5.20
  -6  -9   3    4.10    4.20
   6   9  -2  106.59    7.50
  -6   9   2  123.89    9.10
   6  -9  -2  102.69    8.10
   6  -9  -2  107.89    7.60
  -6  -9   2  114.99    9.20
   6  -9  -2  116.09    9.20
  -6  -9   2  114.79    8.50
  -6  -9   2  106.19    8.50
   6   9  -1   58.79    6.50
   6   9  -1   50.69    6.80
  -6   9   1   54.09    6.80
  -6  -9   1   63.59    7.40
   6  -9  -1   67.19    8.40
   6  -9  -1   57.39    4.80
   6  -9  -1   69.09    7.30
  -6  -9   1   66.29    7.90
   6   9   0   19.40    5.90
  -6   9   0   28.90    6.90
   6   9   0   17.00    6.30
  -6  -9   0   29.30    6.50
   6  -9   0   30.40    3.70
   6  -9   0   22.00    6.50
   6  -9   0    7.10    6.20
  -6  -9   0   27.00    7.10
   6   9   1   -0.20    6.00
   6   9   1   -0.80    5.70
  -6   9  -1    6.80    5.40
   6  -9   1    7.80    6.00
  -6  -9  -1    3.20    6.50
   6  -9   1    0.80    6.70
  -6  -9  -1    5.80    6.10
  -6   9  -2   19.90    6.20
   6   9   2   23.50    7.10
   6   9   2   22.20    6.60
   6  -9   2   20.90    7.10
  -6  -9  -2   30.40    7.80
  -6  -9  -2   26.80    7.40
   6  -9   2   24.30    8.20
  -6   9  -3    9.60    6.30
   6   9   3    1.10    6.90
   6   9   3   -3.90    6.00
   6  -9   3    2.70    6.10
   6  -9   3   -1.00    7.30
  -6  -9  -3   -0.60    7.40
  -6  -9  -3   19.20    7.30
   6   9   4   15.00    8.30
   6   9   4    2.90    7.00
  -6  -9  -4   13.70    8.20
   6  -9   4   -1.90    6.70
  -6  -9  -4   -4.80    8.30
   6   9   5   15.90    7.60
   6  -9   5   17.70    7.70
  -6  -9  -5    8.00    8.60
   6   9   6    6.00    7.50
   6  -9   6   -9.90    7.20
  -6   9  -7    4.00    6.60
   6   9   7    0.70    7.50
   6  -9   7   13.20    7.90
   6   9   8   11.20    8.20
  -6   9  -8    9.40    7.10
   6  -9   8    0.90    7.80
   6   9   9    1.40    8.00
  -6   9  -9   -4.20    7.30
   6  -9   9   -2.80    7.60
   6   9  10   -0.10    8.00
  -6   9 -10    0.60    7.70
   6  -9  10    0.60    7.70
  -6  10  13  -12.00   12.90
  -6 -10  13    1.10   11.50
  -6  10  12   -2.70   12.50
  -6 -10  12  -16.00   10.70
  -6  10  11   -7.90   11.00
  -6 -10  11    1.30   10.50
  -6  10  10   10.80   10.50
  -6 -10  10    5.60    9.40
  -6  10   9    8.10    9.90
  -6  10   9   -1.50    4.70
  -6 -10   9   -2.00    8.60
  -6  10   8    6.40    5.00
  -6  10   8    5.50    9.10
  -6  10   7   44.10    6.30
  -6  10   7   49.60    8.40
  -6  10   7   43.90    9.60
  -6  10   6   11.90    5.20
  -6 -10   6   20.90    6.20
  -6 -10   6   11.90    3.80
  -6  10   5  130.49    8.90
  -6 -10   5  137.79    7.70
  -6 -10   5  143.89   10.70
  -6  10   4   94.49    8.10
  -6 -10   4   91.99    8.40
  -6 -10   4   95.89    7.20
  -6 -10   4  118.79    9.80
  -6  10   3   73.89    7.60
   6  10  -3   82.29    6.20
   6 -10  -3   91.79    8.10
   6 -10  -3   75.09    6.90
   6 -10  -3   73.79    5.90
  -6 -10   3   84.19    7.40
  -6 -10   3   84.99    8.10
  -6 -10   3   74.99    8.30
   6  10  -2   28.60    4.80
  -6  10   2   21.80    6.20
   6 -10  -2   20.60    5.20
   6 -10  -2   27.20    7.20
  -6 -10   2   24.20    5.80
  -6 -10   2   36.70    6.80
   6 -10  -2   29.70    4.90
  -6  10   1   92.19    8.10
   6  10  -1  102.49    7.50
   6  10  -1   88.29    8.20
   6 -10  -1   86.79    7.80
   6 -10  -1   91.89    8.40
   6 -10  -1  119.99    6.70
  -6 -10   1  103.99    8.60
  -6 -10   1   90.79    9.20
   6  10   0  200.18   11.40
   6  10   0  190.78   11.80
  -6  10   0  202.28   11.50
  -6 -10   0  197.38   12.90
  -6 -10   0  179.28   10.30
   6 -10   0  178.08   12.30
   6 -10   0  211.28   11.50
   6  10   1  251.17   13.10
   6  10   1  262.57   13.00
  -6  10  -1  234.58   11.80
   6 -10   1  246.18   12.50
   6 -10   1  269.07   14.40
  -6 -10  -1  230.98   11.70
  -6 -10  -1  253.17   14.60
   6  10   2   17.40    7.00
  -6  10  -2   -2.40    5.50
   6  10   2   -5.50    6.40
  -6 -10  -2    6.30    6.80
   6 -10   2    1.10    6.90
   6 -10   2    3.90    7.00
  -6 -10  -2    0.50    7.20
   6  10   3    0.00    6.10
   6  10   3   -3.50    6.70
  -6  10  -3    4.00    8.00
   6 -10   3    2.20    6.20
  -6 -10  -3   -3.10    6.80
   6 -10   3    0.80    8.50
  -6 -10  -3   -0.50    6.80
   6  10   4   10.80    7.30
   6  10   4   12.20    7.70
   6 -10   4   27.20   10.20
  -6 -10  -4   24.90   10.10
   6 -10   4   23.40    7.40
  -6 -10  -4   17.40    7.80
   6  10   5  117.69   11.90
   6 -10   5   97.89   10.70
  -6 -10  -5  143.79   13.70
   6  10   6   -2.60    7.60
   6 -10   6  -10.40    6.70
   6  10   7   -3.00    7.80
  -6  10  -7   -5.30    6.10
   6 -10   7   11.70    7.70
   6  10   8   -9.90    7.80
  -6  10  -8    9.70    7.20
   6 -10   8   -3.00    7.60
   6  10   9   -7.00    7.90
  -6  10  -9    5.90    7.40
   6 -10   9    2.60    7.80
  -6  10 -10    9.00    7.90
   6  10  10   17.30    8.60
   6 -10  10   14.00    8.40
  -6 -11  13    5.60   12.70
  -6  11  12    2.40   11.80
  -6 -11  12   -4.50   11.20
  -6  11  11    3.10   10.30
  -6 -11  11    2.10   10.30
  -6  11  10   -8.80    9.80
  -6 -11  10   11.20    9.10
  -6  11   9    1.40    8.80
  -6  11   9    9.20    4.90
  -6  11   8   67.29   15.10
  -6  11   8   44.90    6.50
  -6  11   8   48.30   10.70
  -6  11   7  179.38   10.10
  -6  11   7  182.88   13.80
  -6  11   6   22.30    6.00
  -6 -11   6    6.60    3.80
  -6 -11   6   -0.40    5.90
  -6  11   5   39.00    6.50
  -6 -11   5   46.10    7.30
  -6 -11   5   44.70    5.60
  -6  11   4    0.80    5.30
  -6 -11   4   -1.10    5.70
  -6 -11   4   -3.60    4.30
  -6 -11   4    2.30    5.90
  -6  11   3   14.20    5.60
   6 -11  -3   10.40    4.50
  -6 -11   3    8.90    5.10
  -6 -11   3   14.30    6.30
   6 -11  -3   14.70    5.30
   6 -11  -3   32.00    7.20
  -6 -11   3   22.70    6.60
   6  11  -2   -8.20    3.70
  -6  11   2    4.00    5.30
   6 -11  -2   -4.30    6.30
   6 -11  -2   -0.70    4.00
  -6 -11   2    3.40    5.00
  -6 -11   2    5.70    6.10
   6 -11  -2    0.50    4.80
   6  11  -1   92.09    7.50
   6  11  -1   96.29    9.00
  -6  11   1   86.99    8.70
   6 -11  -1   82.29    8.50
   6 -11  -1   71.19    7.60
  -6 -11   1   82.89    8.00
  -6 -11   1   87.49    9.20
   6 -11  -1   89.89    6.50
   6  11   0    9.80    5.70
   6  11   0    5.80    6.50
  -6  11   0    6.40    6.20
  -6 -11   0    9.80    5.40
   6 -11   0    7.30    6.10
  -6 -11   0   -7.30    6.40
   6 -11   0    4.10    6.40
  -6  11  -1   99.89    9.10
   6  11   1   93.89    9.10
   6  11   1   95.59    9.30
   6 -11   1   76.79    9.00
  -6 -11  -1   92.49    8.90
  -6 -11  -1   98.99   10.30
   6 -11   1   78.79    8.80
   6  11   2  127.99   10.70
  -6  11  -2  139.79   10.40
   6  11   2  132.99   11.00
   6 -11   2  121.39   10.60
  -6 -11  -2  131.59   11.00
  -6 -11  -2  124.59   11.00
   6 -11   2  120.19   11.40
   6  11   3   -2.60    7.10
   6  11   3    0.60    6.30
   6 -11   3    2.40    8.90
  -6 -11  -3    8.40    7.80
   6 -11   3    2.70    7.10
  -6 -11  -3   -2.20    5.80
   6  11   4   11.90    6.70
   6  11   4    9.80    7.90
   6 -11   4   -0.40   10.00
  -6 -11  -4    5.50   10.20
  -6 -11  -4    3.00    7.90
   6 -11   4   -2.40    6.90
   6  11   5   17.50    8.60
   6 -11   5   15.90    8.00
  -6 -11  -5   20.40    9.40
   6  11   6   16.80    8.50
   6 -11   6   19.20    8.00
   6  11   7    8.70    8.10
   6 -11   7    1.30    7.90
  -6  11  -8    4.50    7.30
   6  11   8   -0.20    7.90
   6 -11   8   -6.20    7.50
  -6  11  -9   -1.30    7.50
   6  11   9  -18.50    7.10
   6 -11   9   17.20    8.60
  -6  11 -10    3.70    7.80
   6  11  10    0.10    8.00
   6 -11  10    7.70    7.80
  -6  12  12    8.10   12.90
  -6 -12  12   11.20   12.50
  -6  12  11    9.70   11.90
  -6 -12  11    3.50   10.80
  -6  12  10  -12.00    9.70
  -6 -12  10  -19.80    8.30
  -6  12   9   27.80    5.90
  -6  12   9   14.40    9.30
  -6  12   8    1.40    5.40
  -6  12   8    2.60    7.70
  -6  12   7   51.49    7.10
  -6  12   7   54.59    9.10
  -6 -12   7   48.50    6.50
  -6  12   6  151.58    9.90
  -6 -12   6  150.98    7.80
  -6 -12   6  166.78   12.30
  -6  12   5   91.69    8.40
  -6 -12   5   93.19    7.10
  -6 -12   5   74.99    8.50
  -6  12   4  222.18   11.60
  -6 -12   4  225.48   13.40
  -6 -12   4  244.68   10.20
  -6  12   3   39.30    7.00
   6 -12  -3   44.50    5.60
  -6 -12   3   25.90    7.20
  -6 -12   3   39.20    7.40
   6 -12  -3   40.80    6.80
  -6 -12   3   28.80    5.80
  -6  12   2    8.60    5.30
   6  12  -2   -2.90    4.10
   6 -12  -2    0.90    4.30
   6 -12  -2   -1.10    5.70
   6 -12  -2   -3.10    4.80
  -6 -12   2    4.20    5.10
  -6 -12   2    8.60    6.40
  -6  12   1  251.07   12.60
   6  12  -1  237.28   12.70
   6  12  -1  251.87   11.30
  -6 -12   1  234.28   12.00
  -6 -12   1  242.58   13.00
   6 -12  -1  247.48   12.40
   6 -12  -1  246.88   13.40
   6  12   0   10.60    5.70
  -6  12   0   21.90    6.30
   6  12   0   13.20    7.10
  -6 -12   0   20.00    7.60
  -6 -12   0    0.10    5.20
   6 -12   0    9.20    6.50
   6 -12   0   16.20    6.50
  -6  12  -1   22.00    7.10
   6  12   1   31.20    7.10
   6  12   1   36.10    8.10
   6 -12   1   22.20    7.80
   6 -12   1   27.10    7.70
  -6 -12  -1   17.50    7.20
  -6 -12  -1   32.90    7.70
  -6  12  -2   51.69    8.20
   6  12   2   17.10    7.10
   6  12   2   21.40    7.60
  -6 -12  -2   24.90    7.00
   6 -12   2   11.10    8.40
  -6 -12  -2   26.90    8.50
   6 -12   2   18.80    6.90
   6  12   3  -11.90    6.70
   6  12   3    4.60    7.40
  -6 -12  -3    3.50    8.00
   6 -12   3    9.20    7.90
  -6 -12  -3   -5.00    6.90
   6 -12   3    6.40    7.30
   6  12   4    5.40    7.70
   6  12   4   35.70    9.00
  -6 -12  -4   30.30    9.00
   6 -12   4   22.80    7.50
   6 -12   4   28.60   10.50
   6  12   5   15.90    7.80
   6 -12   5   22.70    7.90
  -6 -12  -5   16.50   10.30
   6  12   6   -2.10    7.50
   6 -12   6    4.70    7.40
   6  12   7   10.50    8.30
   6 -12   7    1.40    8.10
   6  12   8    3.00    8.20
   6 -12   8   18.50    8.40
  -6  12  -9   -7.40    7.30
   6  12   9    7.70    8.90
   6 -12   9   -0.20    7.90
   6  12  10   -5.00    8.20
   6 -12  10  -11.70    6.90
  -6  13  12    5.20   11.30
  -6 -13  12   -6.10   10.90
  -6  13  11   -1.80   11.70
  -6 -13  11   32.80   12.00
  -6  13  10   12.40   10.80
  -6  13   9    4.20    5.40
  -6  13   8    7.00    5.70
  -6  13   8    3.10    7.60
  -6  13   7    6.10    7.40
  -6  13   7    3.30    5.70
  -6 -13   7    5.80   10.50
  -6 -13   7    1.30    3.30
  -6  13   6  143.89   10.90
  -6 -13   6  149.99    8.10
  -6 -13   6  137.59   10.90
  -6  13   5   -2.30    5.50
  -6 -13   5    5.60    4.90
  -6 -13   5    6.20    6.70
  -6  13   4   16.50    6.40
  -6 -13   4   26.10    7.30
  -6 -13   4   33.10    5.70
  -6  13   3   12.90    6.10
  -6 -13   3   10.80    5.50
   6 -13  -3   18.00    6.10
  -6 -13   3   23.00    7.20
   6  13  -2  321.97   11.70
  -6  13   2  324.07   13.30
  -6 -13   2  342.37   15.70
   6 -13  -2  325.77   11.80
   6 -13  -2  318.37   13.30
  -6 -13   2  322.87   13.10
   6 -13  -2  335.57   14.70
   6  13  -1   14.00    5.40
   6  13  -1    9.10    6.80
  -6  13   1    3.20    6.20
  -6 -13   1    9.90    7.10
  -6 -13   1    9.00    5.40
   6 -13  -1   -6.70    6.00
   6 -13  -1   14.00    6.30
   6  13   0   -1.50    5.60
   6  13   0   -0.60    6.40
  -6  13   0   -3.00    6.20
   6 -13   0    1.80    6.50
   6 -13   0  -13.80    6.60
  -6 -13   0    7.00    7.30
  -6 -13   0   -6.40    5.80
   6  13   1   41.20    8.00
  -6  13  -1   40.10    7.20
   6  13   1   25.50    7.20
  -6 -13  -1   43.80    7.50
   6 -13   1   41.70    8.60
   6 -13   1   29.00    8.10
  -6 -13  -1   44.50    8.30
  -6  13  -2    6.60    6.30
   6  13   2   17.30    7.10
   6  13   2   -0.60    7.20
  -6 -13  -2   18.60    8.50
   6 -13   2   20.70    7.80
   6 -13   2   13.70    8.50
  -6 -13  -2   20.00    7.00
   6  13   3   -2.70    7.30
   6  13   3   10.80    6.90
   6 -13   3    3.20    9.00
  -6 -13  -3    0.30    7.10
  -6 -13  -3   -2.70    8.20
   6 -13   3   -5.00    7.20
   6  13   4   10.80    7.80
   6  13   4   15.40    8.20
   6 -13   4  -12.20    7.10
  -6 -13  -4   -4.30    7.70
   6 -13   4   26.60   10.50
   6  13   5   -3.70    7.40
   6 -13   5   11.70    8.00
   6  13   6   21.40    8.30
   6 -13   6   19.40    8.10
   6  13   7  -11.20    7.50
   6 -13   7    9.40    8.20
   6  13   8   -9.40    7.80
   6 -13   8   -0.70    8.00
   6  13   9    1.30    9.00
  -6  13  -9    2.30    7.80
   6 -13   9   -2.40    7.90
  -6 -14  12    1.00   12.20
  -6 -14  11   -3.50   10.10
  -6  14   9    9.60    6.00
  -6  14   8   33.40    7.00
  -6  14   8   31.80    9.30
  -6  14   7   66.09    9.80
  -6  14   7   58.09    7.80
  -6 -14   7   59.49    9.40
  -6 -14   7   72.79    5.60
  -6  14   6   11.30    6.50
  -6 -14   6   10.00    4.50
  -6 -14   6    5.30    6.90
  -6  14   5    4.30    6.10
  -6 -14   5   -9.70    6.00
  -6 -14   5   -1.00    4.40
  -6  14   4  116.49    9.70
  -6 -14   4  116.49    8.60
  -6 -14   4  112.59   10.60
  -6  14   3   50.29    7.90
  -6 -14   3   45.30    6.90
  -6 -14   3   39.40    8.30
   6 -14  -3   37.30    7.50
  -6  14   2  135.19   10.50
   6 -14  -2  149.19   10.50
   6 -14  -2  134.29   10.80
  -6 -14   2  135.19   10.00
  -6 -14   2  146.19   11.70
  -6  14   1    2.80    6.40
   6  14  -1   -0.30    5.20
   6  14  -1    0.90    6.20
   6 -14  -1   10.20    6.50
  -6 -14   1    3.50    6.30
  -6 -14   1   -4.10    6.70
   6 -14  -1   -7.90    6.80
  -6  14   0   75.79    9.20
   6  14   0   72.39    9.40
   6  14   0   61.79    8.00
  -6 -14   0   73.19    9.30
  -6 -14   0   56.39    8.60
   6 -14   0   80.89    9.60
   6 -14   0   76.69    9.60
  -6  14  -1    6.20    6.90
   6  14   1    9.20    7.50
   6  14   1    2.90    6.60
   6 -14   1   14.10    7.70
  -6 -14  -1   -3.00    7.70
  -6 -14  -1   -1.90    5.70
   6 -14   1    0.70    7.40
   6  14   2   59.19    9.00
   6  14   2   75.19   10.30
  -6  14  -2   54.39    8.80
   6 -14   2   48.90   10.20
  -6 -14  -2   53.09    8.30
  -6 -14  -2   55.79   10.10
   6 -14   2   62.49    9.80
   6  14   3  -10.50    7.10
   6  14   3   -5.70    6.60
  -6 -14  -3    8.20    8.80
   6 -14   3    6.00    6.80
   6 -14   3   -4.90    8.70
  -6 -14  -3   -0.30    7.20
   6  14   4   -1.60    7.40
   6 -14   4   17.60    8.10
   6 -14   4    1.30    9.90
  -6 -14  -4   10.80    8.10
   6  14   5    9.90    8.10
   6 -14   5   18.20    8.20
   6  14   6   -2.40    7.40
   6 -14   6   10.10    7.90
   6  14   7    6.70    8.50
   6 -14   7  -10.40    7.40
   6  14   8    3.10    8.70
   6 -14   8    0.60    8.10
   6  14   9   -0.80    8.60
  -6  14  -9    4.70    7.50
   6 -14   9   11.60    8.00
  -6 -15  12  -11.60   10.90
  -6  15  10   -3.60    5.50
  -6  15   9   20.80    6.50
  -6  15   8    8.10    6.40
  -6  15   7    1.80    7.60
  -6  15   7   -1.00    5.70
  -6 -15   7    1.50    7.60
  -6 -15   7    8.80    4.10
  -6  15   6    3.40    6.40
  -6 -15   6   -0.80    4.40
  -6 -15   6    7.80    7.30
  -6  15   5   16.30    6.90
  -6 -15   5   22.90    5.70
  -6 -15   5   19.00    7.30
  -6  15   4   10.70    6.30
  -6 -15   4    1.30    6.80
  -6 -15   4    8.50    5.50
  -6  15   3   13.80    6.70
  -6 -15   3    5.20    5.90
  -6 -15   3    8.80    7.40
   6 -15  -3   17.20    7.70
  -6  15   2   58.69    8.40
  -6 -15   2   61.39    7.80
   6 -15  -2   56.79    7.60
   6 -15  -2   61.39    8.20
  -6 -15   2   47.20    8.20
   6  15  -1   33.80    7.80
   6  15  -1   30.60    6.40
  -6  15   1   35.90    7.20
  -6 -15   1   27.20    8.20
   6 -15  -1   21.10    7.80
  -6 -15   1   49.60    8.10
   6 -15  -1   42.10    7.90
   6  15   0   -2.40    5.70
  -6  15   0    7.40    6.80
   6  15   0   13.90    7.30
  -6 -15   0   -4.80    7.40
   6 -15   0   21.20    7.30
   6 -15   0   15.50    7.70
  -6 -15   0    3.30    6.90
   6  15   1   24.80    7.40
  -6  15  -1   25.40    7.70
   6  15   1   22.30    7.60
   6 -15   1   33.30    8.60
  -6 -15  -1   36.40    8.30
   6 -15   1   18.50    8.60
  -6 -15  -1   41.30    9.20
   6  15   2   -0.40    6.90
   6  15   2    9.80    8.00
  -6  15  -2   10.50    7.30
   6 -15   2   -2.60    8.60
  -6 -15  -2    4.20    7.00
  -6 -15  -2   12.60    7.80
   6 -15   2    9.80    7.70
   6  15   3   31.60    8.30
   6  15   3   22.00    8.70
   6 -15   3   16.10    9.80
  -6 -15  -3   15.90    7.10
   6 -15   3   20.60    7.40
  -6 -15  -3   10.10    8.60
   6  15   4   -4.80    8.10
   6 -15   4   -1.90    7.60
  -6 -15  -4    2.20    9.00
   6  15   5   -9.00    6.80
   6 -15   5    1.50    7.40
   6  15   6   -0.50    7.70
   6 -15   6    1.20    7.90
   6  15   7    1.90    8.30
   6 -15   7    4.90    8.30
   6  15   8    1.20    8.70
   6 -15   8    3.30    8.00
   6  15   9   23.00    9.60
   6 -15   9    8.10    8.40
  -6 -16  12   15.10   11.90
  -6  16  10  -11.60    5.40
  -6  16   9    3.20    6.10
  -6  16   8   45.80    7.90
  -6  16   7   96.79    9.70
  -6  16   7  124.19   12.70
  -6 -16   7  107.99   11.50
  -6 -16   7  110.49    7.50
  -6  16   6   11.50    7.00
  -6 -16   6  -11.30    6.80
  -6 -16   6    2.80    4.50
  -6  16   5   -1.60    6.30
  -6 -16   5    8.10    7.60
  -6 -16   5   -2.80    4.90
  -6  16   4   -3.40    6.30
  -6 -16   4   11.80    7.50
  -6 -16   4    4.00    5.70
  -6  16   3    5.00    6.70
   6 -16  -3    3.20    8.60
  -6 -16   3    1.90    7.00
  -6 -16   3   -4.30    5.50
  -6  16   2   66.89    9.20
  -6 -16   2   44.90    9.30
   6 -16  -2   60.19    9.10
  -6 -16   2   58.29    8.10
   6 -16  -2   65.49    8.00
   6  16  -1  153.58   12.10
   6  16  -1  132.49    9.70
  -6  16   1  146.49   11.40
   6 -16  -1  132.89   10.80
  -6 -16   1  110.59   10.30
  -6 -16   1  157.38   12.70
   6 -16  -1  118.39   10.20
   6  16   0   22.20    6.90
  -6  16   0    9.40    7.20
   6  16   0   13.90    7.00
  -6 -16   0   25.60    8.90
   6 -16   0   14.70    7.70
  -6 -16   0   24.00    7.50
   6 -16   0   43.70    8.90
  -6  16  -1   -6.60    5.70
   6  16   1   -1.20    6.70
   6  16   1   15.40    8.00
  -6 -16  -1   -4.50    6.30
   6 -16   1    6.00    8.20
  -6 -16  -1    2.00    7.20
   6 -16   1   -0.70    7.70
  -6  16  -2   -3.10    6.90
   6  16   2  -16.80    7.00
   6  16   2   -5.20    6.90
  -6 -16  -2   -1.40    8.40
  -6 -16  -2   13.30    7.80
   6 -16   2    8.30    7.90
   6 -16   2    7.80    8.10
   6  16   3    5.80    8.00
   6  16   3   13.20    8.60
  -6 -16  -3    6.90    7.90
  -6 -16  -3   12.60    9.30
   6 -16   3   15.00   10.10
   6 -16   3    8.20    7.70
   6  16   4    8.80    8.50
   6 -16   4    2.40    8.10
   6  16   5    7.30    8.80
   6 -16   5   10.20    8.40
   6  16   6   10.50    8.70
   6 -16   6  -10.10    7.30
   6  16   7    0.70    8.10
   6 -16   7  -17.60    7.10
   6  16   8   -2.30    8.50
   6 -16   8    2.50    7.50
   6  16   9   21.50    9.70
   6 -16   9   -2.80    7.90
  -6 -17  12   11.10   12.00
  -6  17  10   14.10    6.60
  -6  17   9    0.60    6.30
  -6  17   8    2.00    6.50
  -6  17   7    4.50    6.60
  -6 -17   7   11.10    8.40
  -6 -17   7   -6.60    4.40
  -6  17   6    7.50    7.30
  -6 -17   6    7.30    7.70
  -6 -17   6   12.10    5.20
  -6  17   5    0.00    6.30
  -6 -17   5    8.30    7.90
  -6 -17   5    0.30    5.40
  -6  17   4   12.70    7.40
  -6 -17   4   29.80    8.10
  -6 -17   4    9.70    6.20
  -6  17   3    2.20    6.90
  -6 -17   3   -0.40    7.20
  -6 -17   3   -5.90    5.90
  -6  17   2   81.19    9.90
  -6 -17   2   94.59    9.60
   6 -17  -2   70.69    8.50
  -6 -17   2   79.49   10.80
   6 -17  -2   63.69    9.00
   6  17  -1   53.29    8.40
  -6  17   1   18.80    6.70
  -6 -17   1   40.00    9.40
  -6 -17   1   40.70    8.40
   6 -17  -1   27.50    8.30
   6 -17  -1   37.40    8.30
  -6  17   0  108.19   10.30
   6  17   0   98.99   10.70
   6  17   0  127.09   10.50
  -6 -17   0  130.39   11.70
   6 -17   0  102.59   10.80
   6 -17   0  112.59   11.20
  -6 -17   0  110.49   12.00
   6  17   1   70.99    9.50
   6  17   1   70.59    9.40
  -6  17  -1   67.09    8.90
   6 -17   1   98.09   11.50
   6 -17   1   77.29   10.00
  -6 -17  -1   73.19   10.60
  -6 -17  -1  111.09   11.30
   6  17   2   -5.60    6.90
  -6  17  -2   -4.30    6.00
   6  17   2    6.70    7.50
  -6 -17  -2   -1.30    7.60
   6 -17   2  -13.90    7.10
   6 -17   2   14.90    9.50
  -6 -17  -2    7.20    7.70
   6  17   3   19.40    9.20
   6  17   3    6.70    8.10
  -6 -17  -3   23.30    9.80
  -6 -17  -3   14.70    8.50
   6 -17   3   22.30    8.60
   6 -17   3   19.50   10.40
   6  17   4   -5.70    8.50
   6 -17   4  -10.30    6.80
   6  17   5    1.20    7.30
   6 -17   5   -4.50    7.80
   6  17   6    5.20    8.10
   6 -17   6   17.60    8.50
   6  17   7    0.40    8.60
   6 -17   7  -12.60    7.20
   6  17   8   -0.20    8.70
   6 -17   8    1.20    8.10
   6  17   9    7.20    9.20
   6 -17   9    1.70    8.60
  -6  18  10    3.80    6.50
  -6  18   9    1.10    6.60
  -6  18   8   14.20    7.10
  -6  18   7   22.00    7.60
  -6 -18   7   32.70    9.50
  -6 -18   7   21.00    5.30
  -6  18   6    9.10    7.10
  -6 -18   6    4.00    5.00
  -6 -18   6   -7.30    7.30
  -6  18   5    8.10    7.20
  -6 -18   5   15.40    8.20
  -6 -18   5   22.00    6.30
  -6  18   4   23.80    7.60
  -6 -18   4   33.10    8.60
  -6 -18   4   25.70    6.90
  -6  18   3   23.80    7.30
  -6 -18   3   28.80    7.50
  -6 -18   3   33.20    9.20
  -6  18   2   17.40    7.80
  -6 -18   2   13.90    7.10
  -6 -18   2    8.60    8.00
   6 -18  -2   13.70    7.50
   6 -18  -2   11.70   10.30
  -6  18   1   -2.00    6.90
   6 -18  -1   -5.50    6.90
  -6 -18   1    6.20    7.10
   6 -18  -1   -0.60    6.70
  -6 -18   1   -2.10    7.70
  -6  18   0    5.80    6.90
   6  18   0    7.30    7.70
   6  18   0    2.20    6.40
   6 -18   0  -19.30    7.50
   6 -18   0    8.60    7.50
  -6 -18   0    0.40    7.50
  -6 -18   0   13.60    8.80
   6  18   1   22.60    7.40
  -6  18  -1   24.30    8.00
   6  18   1   20.30    7.70
   6 -18   1    7.40    7.10
  -6 -18  -1    4.30    7.80
   6 -18   1    2.20    9.00
  -6 -18  -1    5.20    8.40
   6  18   2   39.30    8.90
   6  18   2   44.60    9.80
   6 -18   2   32.10    8.00
  -6 -18  -2   51.19   10.70
   6 -18   2   63.79   11.50
  -6 -18  -2   33.40    9.20
   6  18   3   -2.50    8.50
  -6 -18  -3   18.30    9.00
   6 -18   3    4.10    7.60
   6  18   4   16.80    9.30
   6 -18   4    9.40    8.10
   6  18   5   11.00    8.80
   6 -18   5   21.90    8.10
   6  18   6  -13.90    7.40
   6 -18   6    1.50    7.70
   6  18   7    4.30    9.20
   6 -18   7   10.80    8.80
   6  18   8   -6.60    8.80
   6 -18   8    1.70    8.50
  -6  19  10   10.80    7.00
  -6  19   9    8.70    7.20
  -6  19   8    6.80    6.90
  -6  19   7    0.50    6.90
  -6 -19   7   -1.70    4.70
  -6  19   6   -7.00    6.90
  -6 -19   6   -3.20    5.30
  -6 -19   6   -3.80    7.50
  -6  19   5   41.50    9.10
  -6 -19   5   36.20    9.20
  -6 -19   5   47.30    7.50
  -6  19   4   34.80    7.90
  -6 -19   4   27.00    7.30
  -6 -19   4   37.60    8.90
  -6  19   3   54.29    9.40
  -6 -19   3   60.59   10.10
  -6 -19   3   38.70    8.10
  -6  19   2   14.80    8.10
  -6 -19   2   23.50    7.60
  -6 -19   2   17.10    8.60
   6 -19  -2   13.50    8.50
  -6  19   1    9.80    7.80
   6 -19  -1   18.00    8.10
   6 -19  -1    0.00    7.10
  -6 -19   1    3.10    8.80
  -6 -19   1    8.50    7.50
   6  19   0    9.20    7.10
  -6  19   0    6.70    7.40
   6  19   0    1.00    6.30
  -6 -19   0    3.40    7.50
   6 -19   0   12.30    7.40
   6 -19   0   -1.40    7.80
  -6 -19   0   20.60    9.40
  -6  19  -1  -10.10    7.00
   6  19   1   -5.90    6.80
   6  19   1   -5.30    6.80
  -6 -19  -1    6.60    7.10
   6 -19   1    1.40    7.70
  -6 -19  -1    0.50    8.90
   6 -19   1    4.70    9.20
   6  19   2    4.50    7.20
   6  19   2    8.20    8.00
   6 -19   2    0.80    9.70
   6 -19   2    0.60    7.60
  -6 -19  -2   10.20    7.60
   6  19   3   28.30   10.00
  -6 -19  -3   21.50    9.30
   6 -19   3    7.70    8.30
   6  19   4    1.40    8.80
   6 -19   4   11.20    7.80
   6  19   5   -0.90    8.70
   6 -19   5   10.20    8.20
   6  19   6    5.20    8.80
   6 -19   6    3.70    8.40
   6  19   7   -0.30    8.90
   6 -19   7    8.50    9.00
   6  19   8    5.80    9.10
   6 -19   8  -11.50    8.20
  -6  20  10   10.70    7.40
  -6  20   9  -11.80    6.70
  -6  20   8    2.40    7.40
  -6  20   7   39.90    8.90
  -6 -20   7   32.90    6.30
  -6  20   6   17.50    8.20
  -6 -20   6   34.30    6.80
  -6  20   5    3.90    7.20
  -6 -20   5   15.10    8.90
  -6 -20   5    7.90    6.40
  -6  20   4   16.80    7.30
  -6 -20   4   22.70    8.80
  -6 -20   4    5.40    6.70
  -6  20   3   -5.70    6.40
  -6 -20   3   -2.60    8.40
  -6 -20   3   -6.80    6.60
  -6  20   2   37.30    8.30
  -6 -20   2   37.70    8.50
  -6 -20   2   41.70    9.70
   6 -20  -2   33.50    8.90
  -6  20   1   13.60    7.80
   6 -20  -1   11.20    8.00
   6 -20  -1   24.50    8.80
  -6 -20   1   19.80    8.50
  -6 -20   1   29.80    8.10
   6  20   0    0.40    7.20
   6  20   0   -1.00    7.90
  -6  20   0   -5.60    7.50
   6 -20   0   -5.60    7.90
   6 -20   0    5.70    8.60
  -6 -20   0    9.80    7.70
  -6 -20   0    8.90    8.00
   6  20   1  -14.80    7.70
   6  20   1    5.70    7.30
  -6  20  -1    0.70    6.90
   6 -20   1    5.50    8.60
  -6 -20  -1   -9.80    7.60
   6 -20   1   12.90    9.60
   6  20   2   34.00    9.70
   6  20   2   31.10    8.90
  -6 -20  -2   28.50    9.60
   6 -20   2   25.90   10.60
   6 -20   2   22.10    9.20
   6  20   3   15.70    9.60
  -6 -20  -3   -2.70    7.30
   6 -20   3    1.70    7.80
   6  20   4   -2.10    9.20
   6 -20   4   12.00    8.60
   6  20   5   13.30    8.70
   6 -20   5   14.40    9.00
   6  20   6   11.10    8.70
   6 -20   6    2.40    8.70
   6  20   7   28.00   10.10
   6 -20   7   -6.70    8.70
   6  20   8   -2.10    9.10
   6 -20   8   -7.90    8.40
  -6  21  10   -4.60    7.10
  -6  21   9   -5.60    7.10
  -6  21   8    6.20    7.70
  -6  21   7    6.50    8.00
  -6 -21   7    1.10    5.30
  -6  21   6    8.00    8.10
  -6 -21   6   20.60    6.90
  -6  21   5   -4.50    7.60
  -6 -21   5    4.70    6.70
  -6  21   4   13.40    8.10
  -6 -21   4   15.30    7.10
  -6  21   3   26.90    8.60
  -6 -21   3   36.00   10.10
  -6 -21   3   29.90    8.20
  -6  21   2   32.70    8.90
   6 -21  -2   37.60    9.80
  -6 -21   2   36.80   10.20
  -6 -21   2   39.30    8.60
  -6  21   1    6.60    7.10
  -6 -21   1   12.00    8.20
  -6 -21   1   19.80   11.80
   6 -21  -1   14.60    8.30
   6 -21  -1   27.20    9.00
  -6  21   0  -14.80    7.10
   6  21   0    0.30    7.40
   6 -21   0   11.00    8.90
   6 -21   0    5.90    8.80
  -6 -21   0   -0.20    7.80
  -6  21  -1   -1.50    6.80
   6  21   1   12.90    8.10
   6  21   1    4.70    7.50
   6 -21   1    3.10    9.50
  -6 -21  -1   -1.90    7.00
   6 -21   1   27.20    9.60
   6  21   2    4.10    7.90
   6 -21   2   -9.80    7.70
  -6 -21  -2    8.90    7.70
   6  21   3   11.90    9.20
  -6 -21  -3   21.80    9.80
   6 -21   3   23.10    8.80
   6  21   4    6.90    8.40
   6 -21   4   -5.10    8.20
   6  21   5    5.00    9.80
   6 -21   5   -3.60    8.40
   6  21   6   13.30   10.10
   6 -21   6   -5.10    8.80
   6  21   7    0.00    9.30
   6 -21   7    4.70    9.40
   6  21   8    2.20    9.30
   6 -21   8  -10.00    8.60
  -6  22  10   -1.90    7.40
  -6  22   9    4.80    7.80
  -6  22   8  -10.60    7.50
  -6  22   7  -14.30    7.40
  -6 -22   7    2.80    5.60
  -6  22   6    3.90    7.80
  -6 -22   6   10.30    6.50
  -6  22   5   -5.90    7.80
  -6 -22   5    3.30    6.30
  -6  22   4   13.70    8.40
  -6 -22   4    5.10    7.10
  -6  22   3    2.90    8.10
  -6 -22   3   20.20    8.00
  -6  22   2   17.60    7.80
  -6 -22   2   19.20    7.80
   6 -22  -2   -6.80    8.50
  -6  22   1   -8.20    7.60
  -6 -22   1    6.00    8.10
   6 -22  -1   -0.40    9.80
   6 -22  -1   -7.20    8.40
  -6  22   0   15.20    8.20
   6 -22   0    9.50    9.60
  -6 -22   0   -9.80    7.60
   6 -22   0    9.20    8.30
   6  22   1   12.70    8.00
   6  22   1   10.00    8.10
  -6  22  -1   20.20    8.40
   6 -22   1   11.70    9.50
  -6 -22  -1    4.60    7.30
   6 -22   1   10.70    9.90
   6  22   2    7.40    9.20
  -6 -22  -2   -2.50    7.40
   6 -22   2  -14.40    7.60
   6  22   3   -4.70    8.50
  -6 -22  -3   -8.70    8.40
   6 -22   3   -2.50    8.40
   6  22   4    1.80    9.40
   6 -22   4   10.60    9.30
   6  22   5    1.40    8.40
   6 -22   5   31.80    9.90
   6  22   6   21.90   10.30
   6 -22   6   -8.00    8.70
   6  22   7  -13.90    8.80
   6 -22   7    0.60    9.40
  -6  23  10   -5.70    7.70
  -6  23   9   15.00    8.40
  -6  23   8    5.90    8.10
  -6  23   7    2.50    8.10
  -6 -23   7   -5.90    5.70
  -6  23   6   -4.40    7.80
  -6 -23   6   -2.30    6.50
  -6  23   5   -2.30    8.30
  -6 -23   5   -6.90    6.50
  -6  23   4   13.60    9.00
  -6 -23   4   16.00    7.70
  -6  23   3   12.00    8.80
  -6 -23   3   23.50    8.10
  -6  23   2   -6.70    7.70
   6 -23  -2   -8.60    8.30
  -6 -23   2   -5.30    7.00
  -6  23   1    1.90    7.20
   6 -23  -1   12.90    9.50
  -6 -23   1   -2.70    8.20
  -6  23   0    8.00    7.60
   6 -23   0   21.00    8.90
   6 -23   0   -1.30    9.70
  -6 -23   0   -3.90    8.10
   6  23   1  -17.50    7.10
  -6  23  -1    5.20    8.70
  -6 -23  -1   10.20    8.10
   6 -23   1  -17.70    8.20
   6  23   2   -1.70    9.30
   6 -23   2    7.40    9.30
  -6 -23  -2   -2.30    8.30
   6  23   3    2.70    9.40
  -6 -23  -3    9.40    9.40
   6 -23   3    7.10    8.80
   6  23   4  -12.00    9.50
   6 -23   4   -3.70    8.90
   6  23   5   -2.80    9.80
   6 -23   5    0.40    9.40
   6  23   6   -1.60    9.90
   6 -23   6   16.90   10.20
   6  23   7    8.40    9.90
   6 -23   7   -8.50    9.10
  -6  24  10  -11.90    7.60
  -6  24   9   -0.30    8.20
  -6  24   8   -1.40    8.50
  -6  24   7   -6.60    8.10
  -6 -24   7    4.70    6.20
  -6  24   6    2.70    8.40
  -6 -24   6    0.10    6.60
  -6  24   5    8.50    8.60
  -6 -24   5    1.90    7.10
  -6  24   4   11.40    9.10
  -6 -24   4    3.30    7.30
  -6  24   3    0.00    8.40
  -6 -24   3   10.40    7.90
  -6  24   2    5.00    9.00
   6 -24  -2   -0.70    8.60
  -6 -24   2    9.20    7.80
  -6  24   1  -11.70    7.90
   6 -24  -1   -6.80    7.80
  -6 -24   1    8.70    8.60
  -6  24   0    7.30    9.10
   6 -24   0   22.10   10.20
   6 -24   0   12.50   11.90
  -6 -24   0    8.50    8.00
  -6  24  -1   12.40   10.60
   6  24   1   -3.90    7.70
   6 -24   1   -4.60    8.00
  -6 -24  -1   12.80    8.10
   6  24   2   -2.10    9.30
  -6 -24  -2   24.20    8.90
   6 -24   2   11.40    9.70
   6  24   3    0.80    9.90
  -6 -24  -3   17.70   10.00
   6 -24   3    0.50    8.70
   6  24   4   -9.00    9.40
   6 -24   4   -5.40    9.00
   6  24   5    8.40   10.60
   6 -24   5    0.80    9.30
   6  24   6   -8.60    9.50
   6 -24   6   -5.60    8.90
   6  24   7    6.00   11.00
   6 -24   7    7.80    9.50
  -6  25   9    0.20    8.50
  -6  25   8    6.80    8.80
  -6  25   7   -7.70    8.40
  -6 -25   7   -1.10    6.40
  -6  25   6   25.40    9.30
  -6 -25   6   15.60    7.80
  -6  25   5    1.70    8.80
  -6 -25   5   -0.20    7.30
  -6  25   4   -1.70    9.10
  -6 -25   4   -9.80    6.80
  -6  25   3   33.30    9.90
  -6 -25   3   17.70    8.70
  -6  25   2    8.30    9.00
  -6 -25   2  -14.80    7.20
   6 -25  -2   16.00    9.80
  -6  25   1    6.30    8.90
   6 -25  -1  -30.10    8.30
  -6 -25   1   14.30    8.60
  -6  25   0    2.30    7.60
  -6 -25   0    5.20    8.70
   6 -25   0   -3.80    8.10
   6  25   1   -1.40    9.10
   6 -25   1   -8.50    8.90
  -6 -25  -1    1.60    9.00
   6  25   2    4.20    9.60
   6 -25   2    0.10    9.00
  -6 -25  -2   -2.20    9.10
   6  25   3   14.30   10.80
   6 -25   3   25.70   10.70
  -6 -25  -3   23.10   10.40
   6  25   4   -8.50    9.90
   6 -25   4    8.50    9.00
   6  25   5   12.00   11.00
   6 -25   5   -1.40    8.80
   6  25   6  -14.90    8.90
   6 -25   6    5.20    9.40
  -6  26   9    3.40    9.20
  -6  26   8  -14.20    8.20
  -6  26   7   -6.60    8.70
  -6 -26   7   -3.60    6.60
  -6  26   6    6.50    9.10
  -6 -26   6    4.60    7.60
  -6  26   5    1.70    8.90
  -6 -26   5    8.20    8.00
  -6  26   4    4.20    9.50
  -6 -26   4   -4.00    7.50
  -6  26   3   16.40    9.10
  -6 -26   3   13.90    8.60
  -6  26   2   -3.50    9.40
  -6 -26   2    1.90    7.80
   6 -26  -2   22.90   11.00
  -6  26   1  -14.50    7.30
   6 -26  -1   -3.40    9.10
  -6 -26   1   12.40    9.10
  -6  26   0   12.10    9.20
  -6 -26   0   -1.50    8.60
   6 -26   0    9.60   10.40
   6  26   1   -3.80    9.80
   6 -26   1   10.60    9.90
  -6 -26  -1    4.20    8.30
   6  26   2   11.90    9.00
   6 -26   2   -8.70    8.70
  -6 -26  -2   -2.00    9.30
   6  26   3   -6.60    8.60
  -6 -26  -3   -9.40    9.00
   6 -26   3  -13.80    9.00
   6  26   4    4.40   10.60
   6 -26   4   12.50   10.20
   6  26   5  -12.70    9.70
   6 -26   5   15.30   10.30
   6  26   6   -2.00   10.00
   6 -26   6  -19.70    9.40
  -6  27   8   13.50    9.30
  -6  27   7   -9.60    8.60
  -6 -27   7   -7.70    6.60
  -6  27   6  -12.10    8.80
  -6 -27   6   -4.30    7.40
  -6  27   5    4.10    8.80
  -6 -27   5   -1.40    7.80
  -6  27   4    9.60    9.30
  -6 -27   4   -3.90    7.60
  -6  27   3    9.60    9.70
  -6 -27   3    8.90    8.40
  -6  27   2    5.00    9.70
  -6 -27   2    5.80    8.60
   6 -27  -2   -3.10   10.10
  -6  27   1   -6.20    8.10
   6 -27  -1    3.80    9.10
  -6 -27   1    7.10    8.50
  -6  27   0   17.40   10.10
   6 -27   0   11.40    9.90
  -6 -27   0   17.60   10.10
   6 -27   1   -5.20    9.90
  -6 -27  -1   -6.40    9.40
   6  27   2    5.90   10.40
   6 -27   2   -0.50   10.10
  -6 -27  -2   -5.50    9.40
   6  27   3   -9.10   10.10
  -6 -27  -3   -8.40    9.90
   6 -27   3    5.90   10.10
   6  27   4   -3.60    9.90
   6 -27   4   -2.40    9.50
   6  27   5   -8.10   10.20
   6 -27   5   -8.90    9.50
   6  27   6  -12.10   10.20
   6 -27   6    7.60   10.40
  -6  28   8    4.10    9.00
  -6  28   7    7.00    9.50
  -6 -28   7    6.20    7.60
  -6  28   6   20.00   10.40
  -6 -28   6   13.70    7.90
  -6  28   5   -3.70    8.70
  -6 -28   5    5.80    8.20
  -6  28   4  -10.80    9.30
  -6 -28   4    0.20    8.30
  -6  28   3    3.90   10.20
  -6 -28   3    7.40    8.40
  -6  28   2    3.40    9.70
   6 -28  -2   19.60   10.60
  -6 -28   2  -12.80    8.20
  -6  28   1  -19.60    8.80
   6 -28  -1   11.00    9.50
  -6 -28   1    1.70    8.70
  -6  28   0   -7.30    9.00
   6 -28   0  -10.40    8.60
  -6 -28   0    2.50    9.30
   6 -28   1  -12.80    8.60
  -6 -28  -1    1.80    9.40
   6  28   2  -12.30    8.90
   6 -28   2    4.10   10.00
  -6 -28  -2    2.00    8.80
   6  28   3    3.30    9.40
   6 -28   3   -5.50    9.50
  -6 -28  -3  -17.60    9.40
   6  28   4    3.20   11.00
   6 -28   4    5.50   10.00
   6  28   5   26.00   11.30
   6 -28   5    5.60   10.40
  -6  29   7  -12.20    8.60
  -6 -29   7   -0.70    8.00
  -6  29   6   25.10   11.20
  -6 -29   6    3.70    7.90
  -6  29   5   -0.70   10.00
  -6 -29   5   -6.30    7.80
  -6  29   4   -6.50    9.20
  -6 -29   4   -2.40    8.60
  -6  29   3   -6.50    9.30
  -6 -29   3  -15.80    7.80
  -6  29   2    1.80   10.30
  -6 -29   2   -1.70    8.60
   6 -29  -2   23.10   11.40
  -6  29   1   -5.10    9.50
   6 -29  -1    4.30   10.20
  -6 -29   1  -11.40    8.30
  -6  29   0   16.20    9.70
   6 -29   0    0.00   10.80
  -6 -29   0    5.70    8.70
   6 -29   1   -2.40   10.70
  -6 -29  -1    2.20    8.80
   6  29   2    9.10   10.10
   6 -29   2  -11.80    9.70
  -6 -29  -2   -8.60   10.00
   6  29   3    8.80   11.30
  -6 -29  -3  -11.50    8.60
   6 -29   3    1.40   10.30
   6  29   4  -12.70    9.70
   6 -29   4    3.90   10.40
   6  29   5   10.30   11.40
   6 -29   5   -6.90   10.40
  -6  30   7    2.70   10.10
  -6 -30   7    0.20    7.70
  -6  30   6  -16.00    9.80
  -6 -30   6    6.10    8.30
  -6  30   5  -10.70    9.50
  -6 -30   5    3.10    8.90
  -6  30   4    9.90   10.30
  -6 -30   4    9.60    9.10
  -6  30   3   -4.70   10.10
  -6 -30   3    4.30    8.80
  -6  30   2   14.20    9.90
  -6 -30   2   36.30   10.40
   6 -30  -2   27.10   11.90
  -6  30   1   14.10   10.10
   6 -30  -1   -7.60   10.40
  -6 -30   1   -7.80    8.90
  -6 -30   0    0.90    8.70
   6 -30   0   -0.30   10.90
   6 -30   1    3.50   10.80
  -6 -30  -1    3.80    9.20
   6  30   2   16.50   11.20
  -6 -30  -2   -1.10   10.60
   6 -30   2   -1.90   10.50
   6  30   3   13.50   11.90
   6 -30   3   10.70   11.20
  -6 -30  -3  -16.70    8.90
   6  30   4   26.50   12.60
   6 -30   4   -0.40   10.70
  -6  31   6   13.60   10.40
  -6 -31   6    7.50    8.60
  -6  31   5   -9.30    9.90
  -6 -31   5   -9.30    8.60
  -6  31   4    3.10   10.60
  -6 -31   4   10.90    9.00
  -6  31   3    5.40   11.20
  -6 -31   3    4.60    9.30
  -6  31   2    3.90   11.00
   6 -31  -2   20.20   14.00
  -6 -31   2   -6.60    8.80
  -6  31   1    1.10    9.70
  -6 -31   1    4.20    9.70
   6 -31  -1    2.60   11.20
   6 -31   0   13.40   11.90
  -6 -31   0    5.50   10.00
   6 -31   1   -3.20   10.80
  -6 -31  -1   18.20   10.50
  -6 -31  -2  -22.60    9.50
   6 -31   2   -1.90   11.10
   6  31   3   11.40   11.60
   6 -31   3   18.00   11.60
  -6 -31  -3    5.80   10.80
  -6  32   5  -25.00    9.20
  -6 -32   5    6.10    9.30
  -6  32   4   10.40   10.50
  -6 -32   4    3.90    9.40
  -6  32   3   -3.70    9.70
  -6 -32   3   -4.50    9.20
  -6  32   2   12.00   12.00
  -6 -32   2    1.60    9.30
  -6  32   1    1.00   10.60
  -6 -32   1    0.70    9.40
   6 -32  -1   25.00   12.10
   6 -32   0  -10.00   11.60
  -6 -32   0    0.90   10.60
  -6 -32  -1    8.10   11.10
   6 -32   1   31.20   12.30
   6 -32   2   -1.70   11.10
  -6 -32  -2    2.10   10.60
  -6  33   4    2.50   10.90
  -6 -33   4   -2.70    9.40
  -6  33   3   -7.90   10.40
  -6 -33   3    9.40    9.80
  -6  33   2  -11.10   10.80
  -6 -33   2   -1.10    9.90
  -6  33   1    4.20   11.60
  -6 -33   1   -7.90   10.00
   6 -33  -1   20.20   11.50
   6 -33   0  -11.30   11.30
  -6 -33   0   -5.60   10.50
   6 -33   1   -2.50   11.50
  -6 -33  -1   -9.60   10.60
  -6  34   2   26.80   11.60
  -6 -34   2    7.30   10.50
  -6  34   1    4.20   11.60
   6 -34  -1   13.10   12.20
  -6 -34   1   15.30   10.90
  -7   0  13    2.00   11.10
  -7   0  12   30.70   11.60
  -7   0  11   -5.70   10.00
  -7   0  10   25.50    9.90
  -7   0   9   -2.90    7.60
  -7   0   8  251.37   14.80
  -7   0   7   -3.70    3.10
  -7   0   7   10.40    6.50
  -7   0   6   60.99    8.00
  -7   0   6   50.39    5.10
  -7   0   5   -1.20    5.20
  -7   0   5   -2.10    4.00
  -7   0   5   -1.00    5.30
  -7   0   4   63.29    6.40
  -7   0   4   53.09    6.60
  -7   0   4   55.49    5.20
  -7   0   4   62.19    6.40
  -7   0   3   -2.40    3.80
  -7   0   3   11.60    4.90
  -7   0   3    5.10    4.70
  -7   0   2   67.89    6.50
  -7   0   2   75.29    6.60
  -7   0   2   63.89    7.00
  -7   0   1    3.30    4.10
   7   0  -1   -2.60    5.60
  -7   0   1    4.40    4.90
  -7   0   1    2.10    4.80
   7   0   0   77.49    8.00
  -7   0   0   89.09    6.70
  -7   0   0   63.99    7.90
  -7   0   0   76.19    7.90
  -7   0  -1   10.80    6.50
   7   0   1    2.40    5.70
  -7   0  -1   -0.90    3.50
   7   0   2    7.70    6.20
  -7   0  -2    8.70    6.80
   7   0   3    6.10    7.20
  -7   0  -3    2.70    5.90
   7   0   4   25.70    8.00
  -7   0  -5    0.60    6.10
   7   0   5    2.60    7.10
   7   0   6   -0.50    7.20
  -7   0  -6   11.70    7.20
   7   0   7   -7.00    7.50
  -7   0  -7   -3.50    6.60
   7   0   8    2.70    8.10
   7   0   9    7.80    8.50
   7   0  10   -9.20    8.00
   7   0  10   -6.50    8.40
  -7   1  13   18.60   11.70
  -7  -1  13    8.40   11.80
  -7   1  12    6.00   10.90
  -7  -1  12    1.30   11.00
  -7   1  11    5.30   10.10
  -7  -1  11   20.20   10.30
  -7   1  10   38.80   10.40
  -7  -1  10    9.10    9.30
  -7   1   9   32.50    9.10
  -7  -1   9   16.30    9.20
  -7   1   8   63.29   10.00
  -7  -1   8   49.90    9.00
  -7   1   7   23.10    3.90
  -7   1   7   21.90    7.50
  -7  -1   7   24.90    3.60
  -7  -1   7   34.50    7.80
  -7   1   6  380.96   15.00
  -7   1   6  403.16   11.60
  -7  -1   6  409.36   15.30
  -7  -1   6  412.56   11.30
  -7   1   5   24.10    4.90
  -7   1   5   19.90    6.20
  -7   1   5   21.40    5.90
  -7  -1   5   25.80    4.80
  -7  -1   5   23.40    6.50
  -7  -1   5   19.50    5.60
  -7   1   4    0.10    3.50
  -7   1   4    0.30    4.70
  -7   1   4   -4.00    4.80
  -7   1   4    2.60    4.40
  -7  -1   4   -2.00    4.40
  -7  -1   4    5.00    5.20
  -7  -1   4    2.30    3.90
  -7   1   3    3.10    5.00
  -7   1   3    0.20    4.60
  -7   1   3    4.20    4.10
  -7  -1   3    5.30    4.70
  -7  -1   3   -2.60    4.20
  -7  -1   3    3.40    4.80
   7  -1  -3   -4.80    4.80
  -7   1   2   28.60    5.10
  -7   1   2   30.10    5.30
  -7   1   2   21.20    5.30
  -7  -1   2   34.60    5.70
  -7  -1   2   32.60    6.10
  -7  -1   2   31.10    5.30
   7  -1  -2   38.00    8.20
  -7   1   1   24.00    4.50
  -7   1   1   23.50    5.70
  -7   1   1    9.60    5.70
   7   1  -1   23.40    6.40
  -7  -1   1   17.50    4.80
   7  -1  -1   20.40    6.70
  -7  -1   1   18.90    5.60
  -7  -1   1   15.10    5.30
   7   1   0   78.09    8.80
  -7   1   0   91.19    8.40
  -7   1   0   82.99    5.80
  -7  -1   0   74.99    8.00
  -7  -1   0   89.49    8.10
   7  -1   0   92.89    9.40
  -7  -1   0   91.49    6.40
   7   1   1   81.19    8.90
  -7   1  -1   74.89    8.20
  -7  -1  -1   74.29    8.80
   7  -1   1   55.89    7.80
  -7  -1  -1   65.79    5.80
  -7  -1  -1   61.89    8.60
  -7   1  -2   14.20    7.00
   7   1   2   17.40    7.20
  -7  -1  -2    7.20    5.90
   7  -1   2   14.50    6.70
   7   1   3    0.70    6.80
  -7   1  -3    1.40    6.50
  -7  -1  -3   -2.70    6.60
   7  -1   3    6.50    6.50
  -7   1  -4   -2.50    5.80
   7   1   4    9.80    7.30
   7  -1   4    7.40    7.00
   7   1   5   -3.40    7.20
  -7   1  -5    1.40    6.40
   7  -1   5   -3.40    6.90
  -7   1  -6    8.20    6.80
   7   1   6   14.70    7.80
   7  -1   6   17.30    8.00
  -7  -1  -6   11.00   10.20
   7   1   7    2.40    7.70
  -7   1  -7  -21.70    5.90
  -7  -1  -7    6.00    9.70
   7  -1   7    5.80    7.80
  -7   1  -8    3.70    8.40
   7   1   8   27.00    8.80
   7  -1   8   -0.90    8.30
   7   1   9    3.20    8.10
   7  -1   9   -5.90    8.20
   7   1  10   -2.40    9.10
   7  -1  10    7.60    8.80
  -7   2  13    3.90   10.60
  -7  -2  13   18.60   12.30
  -7   2  12   21.30   11.90
  -7  -2  12  -11.90   10.20
  -7   2  11   22.40   10.60
  -7  -2  11   15.40   10.70
  -7   2  10    1.30    8.70
  -7  -2  10    5.90    8.90
  -7   2   9   31.60    9.50
  -7  -2   9   20.20    8.70
  -7   2   8    5.50    7.90
  -7  -2   8    5.90    7.60
  -7   2   7   57.79    8.60
  -7   2   7   52.69    4.90
  -7  -2   7   51.39    4.00
  -7  -2   7   56.09    8.70
  -7   2   6   23.60    7.20
  -7   2   6   26.40    4.80
  -7  -2   6   30.40    4.50
  -7  -2   6   23.20    6.60
  -7   2   5    4.20    5.70
  -7   2   5    0.50    4.30
  -7   2   5   -6.90    5.20
  -7  -2   5    2.70    5.60
  -7  -2   5    1.50    5.00
  -7  -2   5    8.70    4.20
  -7   2   4   83.49    7.70
  -7   2   4   92.49    7.10
  -7   2   4   74.99    6.80
  -7   2   4   74.19    5.40
  -7  -2   4   95.29    8.50
  -7  -2   4   89.89    6.50
  -7  -2   4   98.89    7.20
  -7   2   3    3.20    4.60
  -7   2   3   -1.10    3.80
  -7   2   3    4.50    4.80
  -7  -2   3    3.90    4.30
  -7  -2   3   -2.00    4.60
   7  -2  -3   -2.10    4.60
  -7  -2   3    0.90    4.50
  -7   2   2   47.90    6.60
  -7   2   2   45.00    5.80
  -7   2   2   49.90    5.70
  -7  -2   2   30.70    5.80
  -7  -2   2   44.40    6.00
   7  -2  -2   44.10    6.60
  -7  -2   2   35.60    6.40
  -7   2   1  339.07   13.30
  -7   2   1  330.17   10.80
   7   2  -1  314.67   12.50
  -7  -2   1  288.27   12.60
   7  -2  -1  355.36   13.90
  -7  -2   1  329.07   11.70
  -7  -2   1  317.67   13.00
   7   2   0   22.50    6.20
  -7   2   0   12.80    3.60
  -7   2   0   18.70    6.40
   7  -2   0   21.10    6.80
  -7  -2   0   19.60    6.30
  -7  -2   0   11.30    4.60
  -7  -2   0   14.30    6.10
   7   2   1   26.90    7.40
  -7   2  -1   23.20    6.50
  -7  -2  -1   24.00    7.30
  -7  -2  -1   43.60    7.80
   7  -2   1   35.10    8.00
  -7   2  -2    5.30    6.70
   7   2   2    0.60    6.70
  -7  -2  -2    8.70    6.70
   7  -2   2    9.10    6.40
  -7  -2  -2    4.20    7.00
   7   2   3    7.90    7.30
  -7   2  -3   -0.90    5.90
   7   2   3   21.10    7.80
  -7  -2  -3    3.90    6.90
   7  -2   3   -5.20    6.70
  -7  -2  -3   -1.10    5.90
   7   2   4    2.90    6.80
   7   2   4   -4.90    7.90
  -7   2  -4  -16.30    5.40
   7  -2   4    6.40    7.70
  -7   2  -5   -0.30    5.90
   7   2   5   -8.00    7.00
   7  -2   5   -6.00    7.30
   7   2   6    4.80    7.40
  -7   2  -6    1.00    6.20
   7  -2   6    3.70    7.50
   7   2   7   -2.50    7.60
  -7   2  -7   -7.40    6.60
   7  -2   7   -1.10    7.70
  -7   2  -8   11.80    8.10
   7   2   8   12.90    8.70
   7  -2   8   -1.40    8.00
   7   2   9    5.20    8.30
   7  -2   9   -0.90    8.10
   7  -2   9   -7.30    8.40
   7   2  10   -8.60    8.30
   7  -2  10    0.20    8.60
  -7   3  13    5.90   11.80
  -7  -3  13   14.10   12.20
  -7   3  12    2.30   10.40
  -7  -3  12   -1.10    9.80
  -7   3  11   -1.80   10.10
  -7  -3  11   -4.30    9.50
  -7   3  10   18.40    9.50
   7   3 -10   10.20    4.10
  -7  -3  10    0.50    8.50
  -7   3   9    9.60    8.50
  -7  -3   9   12.70    8.40
  -7   3   8    2.40    7.70
  -7  -3   8    2.00    7.20
  -7   3   7    5.70    3.80
  -7   3   7    1.60    7.20
  -7  -3   7    0.10    3.20
  -7  -3   7    2.90    6.80
  -7   3   6    8.70    4.30
  -7   3   6    3.10    6.20
  -7  -3   6    4.70    3.50
  -7  -3   6   -3.80    5.70
  -7   3   5   15.80    6.30
  -7   3   5   12.20    5.80
  -7   3   5    8.10    4.70
  -7  -3   5    7.60    6.10
  -7  -3   5    4.70    4.30
  -7  -3   5   19.20    4.70
  -7  -3   5    8.10    5.20
  -7   3   4    5.70    3.50
  -7   3   4   -0.20    5.30
  -7   3   4    6.10    5.00
  -7   3   4    3.30    4.50
  -7  -3   4    6.50    4.40
  -7  -3   4   10.80    5.70
  -7  -3   4    4.10    4.50
  -7   3   3   19.30    5.00
  -7   3   3    6.80    4.00
  -7   3   3    7.90    5.00
   7  -3  -3   15.60    5.30
  -7  -3   3   10.30    4.80
  -7  -3   3   17.70    5.40
  -7  -3   3    7.70    4.80
  -7   3   2  110.69    8.40
  -7   3   2  114.09    7.80
  -7   3   2  109.19    8.40
  -7  -3   2  126.69    8.80
  -7  -3   2  109.99    8.60
   7  -3  -2  128.19    9.60
  -7  -3   2  119.19    8.70
   7  -3  -2   92.09    6.90
  -7   3   1   99.59    6.80
   7   3  -1   99.49    9.00
  -7   3   1   97.69    8.60
  -7  -3   1   96.39    7.30
   7  -3  -1  102.49    9.20
  -7  -3   1   86.59    7.70
  -7  -3   1   86.09    7.90
  -7   3   0  242.48    8.40
   7   3   0  232.88   12.60
  -7   3   0  254.77   11.80
   7  -3   0  232.28   12.00
  -7  -3   0  259.17   12.80
  -7  -3   0  266.67   10.70
  -7  -3   0  261.97   12.40
  -7   3  -1   72.39    8.30
   7   3   1   53.69    8.30
  -7  -3  -1   68.09    7.90
  -7  -3  -1   73.89    9.00
   7  -3   1   68.49    8.30
  -7   3  -2   46.50    8.10
   7   3   2   46.40    7.80
   7   3   2   56.79    8.60
  -7  -3  -2   50.69    7.60
   7  -3   2   35.80    7.60
  -7  -3  -2   55.99    9.00
  -7   3  -3   13.70    7.50
   7   3   3   12.60    6.80
   7   3   3   24.30    8.60
  -7  -3  -3   21.50    8.30
   7  -3   3   17.50    8.10
  -7  -3  -3   12.10    6.70
   7   3   4   -3.70    7.60
  -7   3  -4    1.80    5.70
   7   3   4    1.50    6.40
   7  -3   4  -12.80    6.40
  -7  -3  -4    3.90    8.20
   7   3   5   23.40    8.00
  -7   3  -5   12.40    6.40
  -7  -3  -5   15.50    8.30
   7  -3   5    7.80    7.60
  -7   3  -6    7.30    6.70
   7   3   6   -7.00    7.30
   7  -3   6  -10.10    6.80
   7   3   7   15.10    8.20
  -7   3  -7    3.50    7.00
   7  -3   7   -5.10    7.60
  -7   3  -8    6.00    7.50
   7   3   8   -3.00    8.10
   7  -3   8  -10.20    7.70
   7   3   9    2.80    8.50
  -7   3  -9   11.90   12.50
   7  -3   9   -9.00    7.90
   7   3  10   -8.00    8.50
   7  -3  10  -11.80    8.30
  -7   4  13   12.70   12.70
  -7  -4  13   -2.10   11.60
  -7   4  12    4.70   11.90
  -7  -4  12   29.10   11.80
  -7   4  11    2.00   10.60
  -7  -4  11    1.20   10.00
   7   4 -10    9.30    3.20
  -7   4  10    5.40    8.50
  -7  -4  10   19.60    9.90
  -7   4   9    1.10    8.70
   7   4  -9   20.00    4.80
  -7  -4   9   20.90    9.00
  -7   4   8   52.59    9.90
  -7  -4   8   35.00    9.10
  -7   4   7   68.59    5.60
  -7   4   7   58.69    9.10
  -7  -4   7   64.29    8.90
  -7   4   6   -0.10    4.20
  -7   4   6    5.80    6.50
  -7  -4   6    3.80    6.00
  -7  -4   6    5.50    3.70
  -7   4   5   63.09    6.40
  -7   4   5   64.29    7.70
  -7   4   5   67.59    7.70
  -7  -4   5   71.99    8.70
  -7  -4   5   47.00    5.90
  -7  -4   5   69.29    5.90
  -7  -4   5   64.09    7.00
  -7   4   4   18.50    5.70
  -7   4   4   13.20    4.90
  -7  -4   4    7.80    5.70
  -7  -4   4   21.20    5.20
  -7  -4   4    4.40    4.30
  -7   4   3   20.60    5.30
  -7   4   3   29.30    5.80
  -7   4   3   25.40    4.60
  -7  -4   3   20.60    5.70
   7  -4  -3   18.70    5.30
  -7  -4   3   15.30    5.10
  -7  -4   3   23.20    5.40
  -7   4   2   28.70    4.90
  -7   4   2   41.20    5.80
  -7  -4   2   45.60    6.50
   7  -4  -2   33.70    5.20
  -7  -4   2   28.80    5.60
  -7  -4   2   22.30    6.00
   7  -4  -2   23.20    6.90
  -7   4   1    4.80    5.20
   7   4  -1    3.50    6.10
  -7   4   1    6.00    3.60
  -7  -4   1   13.60    5.00
  -7  -4   1    5.20    5.50
   7  -4  -1   -7.40    6.00
  -7  -4   1    8.50    5.70
  -7   4   0   94.49    8.90
  -7   4   0   89.49    5.70
   7   4   0   92.69    9.20
  -7  -4   0   83.39    8.40
   7  -4   0  114.19   10.00
  -7  -4   0   87.39    8.90
  -7   4  -1    6.80    6.50
   7   4   1    7.20    6.60
   7   4   1    7.40    6.20
   7  -4   1    1.90    5.90
  -7  -4  -1   18.40    6.50
  -7  -4  -1   -2.80    6.40
   7   4   2    2.80    7.30
  -7   4  -2    6.20    5.90
   7   4   2    5.50    7.10
   7  -4   2   11.20    6.50
  -7  -4  -2    7.20    6.50
  -7  -4  -2    5.20    6.50
  -7   4  -3   10.90    7.10
   7   4   3    0.20    7.10
   7   4   3    6.20    6.80
  -7  -4  -3   -2.00    5.90
   7  -4   3  -26.80    6.10
  -7  -4  -3    3.10    7.70
  -7   4  -4    2.40    5.60
   7   4   4    6.00    7.10
   7   4   4    1.50    8.30
   7  -4   4   -4.30    7.00
  -7  -4  -4   -1.40    8.20
  -7   4  -5   -2.40    6.00
   7   4   5    9.50    7.50
  -7  -4  -5   -2.10    9.40
   7  -4   5   -1.10    6.90
   7   4   6  -13.40    6.60
  -7   4  -6   -0.30    6.00
   7  -4   6   -2.50    7.20
  -7   4  -7    8.70    6.80
   7   4   7   -4.20    7.50
   7  -4   7   -2.90    7.80
  -7   4  -8    7.50    7.70
   7   4   8   -0.10    7.90
   7  -4   8   -6.00    7.80
   7  -4   8  -10.90    7.60
   7   4   9  -10.00    7.80
  -7   4  -9   -4.20   11.20
   7  -4   9   11.20    8.80
   7   4  10    0.30    8.60
   7  -4  10    3.60    9.10
  -7   5  13  -11.00   11.60
  -7  -5  13    2.10   11.10
  -7   5  12   11.30   11.50
  -7  -5  12    3.80   10.60
  -7   5  11   -7.60   10.00
  -7  -5  11    9.90    9.90
  -7   5  10    0.30    8.60
   7   5 -10    3.20    3.90
  -7  -5  10   -2.90    9.00
  -7   5   9   58.79   10.80
  -7  -5   9   83.09   11.60
  -7   5   8   34.40    4.40
  -7   5   8   30.40    9.00
  -7  -5   8   27.50    8.40
  -7   5   7  178.58   13.30
  -7   5   7  159.98    8.20
  -7  -5   7  173.88   12.40
  -7   5   6   85.79    6.70
  -7   5   6   95.29    9.70
  -7  -5   6   77.19    5.70
  -7  -5   6  100.19    9.10
  -7   5   5   -6.70    4.20
  -7   5   5    0.50    5.90
  -7  -5   5    4.60    4.60
  -7  -5   5   -1.60    3.90
  -7  -5   5    2.20    6.00
  -7  -5   5   -4.70    5.00
  -7   5   4   16.40    5.70
  -7   5   4   15.40    5.10
  -7  -5   4   14.20    6.10
  -7  -5   4   26.00    5.60
  -7  -5   4   21.90    5.00
  -7   5   3   46.00    6.00
  -7   5   3   48.20    5.20
  -7   5   3   40.40    6.40
   7  -5  -3   37.60    5.90
  -7  -5   3   44.80    6.90
  -7  -5   3   62.59    6.80
  -7  -5   3   41.00    6.00
  -7   5   2   43.10    6.80
  -7   5   2   56.19    5.80
  -7  -5   2   50.29    6.10
  -7  -5   2   63.99    7.10
   7  -5  -2   61.19    6.00
  -7  -5   2   56.59    6.80
   7  -5  -2   54.79    8.10
  -7   5   1   16.10    6.20
  -7   5   1   17.70    3.90
   7   5  -1   19.40    6.70
  -7  -5   1    9.90    5.90
  -7  -5   1    6.90    5.00
  -7  -5   1   26.60    6.30
   7  -5  -1   18.10    7.10
   7   5   0   10.60    6.00
  -7   5   0    9.60    6.40
   7   5   0    8.40    6.00
   7  -5   0   -1.50    5.80
  -7  -5   0   10.90    6.30
  -7  -5   0    7.40    5.20
   7   5   1    3.80    6.30
   7   5   1   10.50    7.10
  -7   5  -1    3.30    6.50
   7  -5   1    2.60    6.80
  -7  -5  -1    8.40    5.90
  -7  -5  -1   11.40    6.90
   7   5   2  119.99   11.10
   7   5   2  121.39   10.70
  -7   5  -2  115.79    9.80
   7  -5   2  114.99   10.60
  -7  -5  -2  129.89   11.40
  -7  -5  -2  128.89   10.80
   7   5   3    9.00    7.70
  -7   5  -3   15.60    6.60
   7   5   3   29.60    7.60
  -7  -5  -3    7.20    7.90
   7  -5   3   20.80    7.60
  -7  -5  -3   10.00    7.10
  -7   5  -4   12.20    6.60
   7   5   4    9.60    8.50
   7   5   4   -6.40    7.40
   7  -5   4   -7.70    6.80
  -7  -5  -4  -12.60    7.80
  -7   5  -5    8.10    6.60
   7   5   5   11.00    7.80
  -7  -5  -5    1.90   10.50
   7  -5   5   -1.70    7.30
   7   5   6   15.30    8.50
  -7   5  -6   25.90    7.60
   7  -5   6   30.50    9.00
   7   5   7   20.80    8.40
  -7   5  -7    5.90    6.70
   7  -5   7   -4.30    7.40
   7  -5   7    4.00    7.90
   7   5   8    2.90    8.10
  -7   5  -8  -12.40    6.70
   7  -5   8   13.00    8.40
   7   5   9   -3.50    7.80
  -7   5  -9   -7.30   10.60
   7  -5   9   -5.70    8.00
   7   5  10  -11.00    8.20
   7  -5  10  -11.80    8.10
  -7   6  13   10.60   11.50
  -7  -6  13   26.80   11.90
  -7   6  12   -7.10   11.50
  -7  -6  12  -18.70    9.90
  -7   6  11    8.50   10.60
  -7  -6  11    0.80    9.90
  -7   6  10   -2.50    9.40
  -7  -6  10   13.00    9.20
  -7   6   9   17.80    9.60
  -7  -6   9    1.10    8.60
  -7   6   8   46.70    9.70
  -7   6   8   59.39    5.20
  -7  -6   8   48.00    9.40
  -7   6   7   93.09    6.80
  -7   6   7  103.99   10.80
  -7  -6   7   99.69   10.40
  -7   6   6   30.50    7.50
  -7   6   6   41.30    5.90
  -7  -6   6   37.50    7.30
  -7  -6   6   33.70    4.60
  -7   6   5  227.28   11.60
  -7   6   5  211.78    9.90
  -7  -6   5  225.38    9.30
  -7  -6   5  228.88   11.30
  -7  -6   5  215.58   10.90
  -7   6   4    9.60    5.20
  -7  -6   4   13.10    4.90
  -7  -6   4   16.00    6.30
  -7  -6   4   13.70    5.30
  -7   6   3    2.40    5.40
  -7  -6   3   -6.90    5.00
  -7  -6   3   -2.50    4.90
  -7  -6   3    1.40    4.60
   7  -6  -3   -1.50    4.20
  -7   6   2    3.60    4.90
   7   6  -2   14.80    7.20
  -7  -6   2   13.70    5.40
  -7  -6   2    0.90    5.20
   7  -6  -2   -0.70    4.00
   7  -6  -2   -5.30    5.80
   7  -6  -2    9.00    6.50
  -7  -6   2    8.80    5.40
  -7   6   1  187.98   10.40
   7   6  -1  217.48   11.90
  -7  -6   1  204.18   11.30
  -7  -6   1  211.58   12.10
   7  -6  -1  196.38   11.40
   7  -6  -1  198.68    8.30
   7  -6  -1  209.48   11.50
  -7  -6   1  220.08   11.40
  -7   6   0   16.50    5.90
   7   6   0    9.90    6.00
   7   6   0   22.20    7.20
  -7  -6   0    0.90    6.20
  -7  -6   0   11.10    6.40
   7  -6   0    5.50    7.10
   7   6   1    9.50    6.40
   7   6   1   29.00    7.80
  -7   6  -1   24.40    7.20
   7  -6   1   23.40    7.50
  -7  -6  -1   18.70    6.70
  -7  -6  -1   13.60    6.10
   7   6   2   12.90    7.60
  -7   6  -2   23.50    6.80
   7   6   2   28.60    7.70
  -7  -6  -2   17.10    7.40
   7  -6   2   14.50    7.20
  -7  -6  -2   29.10    7.50
   7   6   3    5.40    6.60
   7   6   3   15.20    8.10
  -7   6  -3   24.00    8.10
  -7  -6  -3   18.20    8.00
   7  -6   3   15.40    6.90
  -7  -6  -3   24.00    8.50
   7   6   4    2.10    8.30
   7   6   4   11.30    7.50
  -7   6  -4    0.50    7.80
  -7  -6  -4    1.80    7.80
   7  -6   4   -2.90    7.10
  -7   6  -5   29.50    7.00
   7   6   5   16.70    7.90
   7  -6   5   22.50    8.40
  -7   6  -6    2.90    6.30
   7   6   6   11.20    7.60
   7  -6   6    0.30    7.60
   7  -6   6    9.60    8.10
   7   6   7   21.30    8.40
  -7   6  -7   14.50    7.70
   7  -6   7    4.80    7.80
  -7   6  -8  -11.90    6.70
   7   6   8    9.00    8.30
   7  -6   8   -2.90    8.30
  -7   6  -9    9.20   11.50
   7   6   9   -1.80    8.20
   7  -6   9   12.30    8.90
  -7   7  13    4.10   12.90
  -7  -7  13    0.00   11.60
  -7   7  12    0.90   11.50
  -7  -7  12   -3.80   10.80
  -7   7  11   23.60   11.90
  -7  -7  11   12.10   10.50
  -7   7  10   26.40   11.00
  -7  -7  10   19.60   10.10
  -7   7   9   32.90   10.40
  -7  -7   9   17.70    9.20
  -7   7   8  -11.20    7.90
  -7   7   8    5.90    4.30
  -7  -7   8    0.80    7.70
  -7   7   7   18.80    5.20
  -7   7   7    6.50    7.60
  -7  -7   7    7.50    7.10
  -7   7   6    2.40    4.80
  -7   7   6    6.70    6.90
  -7  -7   6    4.80    3.90
  -7  -7   6    4.40    6.20
  -7   7   5   19.40    5.60
  -7  -7   5   17.10    5.80
  -7  -7   5   17.30    4.70
  -7  -7   5   12.30    5.50
  -7   7   4    2.30    5.10
  -7  -7   4   -4.50    4.30
  -7  -7   4    6.30    6.10
  -7  -7   4   -7.00    5.00
  -7   7   3   60.09    7.00
   7  -7  -3   44.00    6.10
  -7  -7   3   52.19    6.50
  -7  -7   3   43.30    7.20
  -7  -7   3   64.59    7.40
   7   7  -2  137.89   11.60
  -7   7   2  134.79    9.90
  -7  -7   2  121.79    9.30
  -7  -7   2  128.29   10.20
  -7  -7   2  127.39    9.30
   7  -7  -2  129.69    8.00
   7  -7  -2  136.49   10.40
   7   7  -1   13.30    5.40
   7   7  -1   -0.20    5.40
  -7   7   1    5.50    5.30
   7  -7  -1    9.10    6.80
   7  -7  -1    0.50    3.60
  -7  -7   1    1.60    5.00
   7  -7  -1    0.80    6.90
  -7  -7   1    7.50    5.90
   7   7   0   94.19    8.90
  -7   7   0   90.09    8.50
   7   7   0   94.09    8.60
  -7  -7   0   71.39    8.20
   7  -7   0   93.89    9.20
  -7  -7   0   89.49    9.00
   7  -7   0  100.39    9.60
  -7   7  -1    1.00    6.10
   7   7   1    7.00    7.10
   7   7   1    2.90    6.50
   7  -7   1    7.30    7.30
  -7  -7  -1    8.20    5.90
   7  -7   1   -4.80    6.70
  -7  -7  -1    3.80    6.90
   7   7   2   -7.10    6.90
  -7   7  -2  -12.50    6.20
   7   7   2   -2.80    6.90
   7  -7   2   -3.70    6.20
   7  -7   2    4.40    6.40
  -7  -7  -2  -15.70    6.50
  -7  -7  -2   -7.90    5.50
  -7   7  -3    7.70    7.10
   7   7   3   13.40    8.20
   7   7   3    1.00    7.80
  -7  -7  -3   18.70    7.70
  -7  -7  -3   25.40    7.80
   7  -7   3   13.70    8.00
   7  -7   3   15.10    8.00
   7   7   4   -6.80    6.80
   7   7   4    8.90    8.10
   7  -7   4  -12.70    6.80
  -7  -7  -4    1.50    7.30
   7  -7   4   -6.50    7.50
   7   7   5   -5.00    7.10
  -7   7  -5   35.90    8.30
   7  -7   5   11.50    7.80
   7  -7   5   -2.60    7.30
   7   7   6    9.90    8.00
  -7   7  -6    9.90    6.90
   7  -7   6   -1.20    7.50
   7   7   7    9.20    8.00
  -7   7  -7   -2.10    7.40
   7  -7   7   26.60    8.90
   7   7   8    4.20    8.20
  -7   7  -8   -7.60    7.50
   7  -7   8    0.80    8.60
   7   7   9    5.20    8.70
   7  -7   9   12.60    8.90
  -7   8  13    2.10   12.90
  -7  -8  13   25.00   12.90
  -7   8  12  -11.10   11.80
  -7  -8  12  -11.20    9.90
  -7   8  11    9.90   12.00
  -7  -8  11   10.90   10.70
  -7   8  10   -5.20    9.90
  -7  -8  10   -4.10    9.10
  -7   8   9   25.60    9.80
  -7  -8   9   -6.80    8.50
  -7   8   8   26.50    5.20
  -7   8   8   19.80    8.60
  -7  -8   8   25.60    8.90
  -7   8   7    4.60    4.80
  -7   8   7   -2.00    7.30
  -7  -8   7   -2.20    6.60
  -7   8   6   21.00    5.70
  -7  -8   6   28.70    7.10
  -7  -8   6   15.80    4.30
  -7   8   5   35.10    6.40
  -7  -8   5   36.60    5.50
  -7  -8   5   29.70    6.40
  -7   8   4    9.00    5.60
  -7  -8   4    4.20    6.10
  -7  -8   4   -2.70    5.40
  -7  -8   4    2.20    4.50
  -7   8   3   -1.30    5.30
  -7  -8   3    1.20    5.60
  -7  -8   3    6.20    5.00
  -7  -8   3    1.40    5.70
   7  -8  -3    5.10    4.70
  -7   8   2  160.98   10.70
  -7  -8   2  158.18   10.90
   7  -8  -2  167.08   10.80
  -7  -8   2  162.38    9.80
   7  -8  -2  159.68    8.50
  -7  -8   2  179.48   11.60
   7   8  -1   57.19    7.00
   7   8  -1   67.89    8.30
  -7   8   1   42.80    7.30
   7  -8  -1   59.89    8.70
  -7  -8   1   50.99    8.10
  -7  -8   1   40.50    7.10
  -7   8   0   -5.30    5.20
   7   8   0   -0.50    5.70
   7   8   0    4.30    6.00
   7  -8   0    8.60    6.40
  -7  -8   0   13.60    6.50
  -7  -8   0   -0.40    6.60
   7   8   1   11.60    7.50
   7   8   1    9.80    6.90
  -7   8  -1   24.20    7.20
   7  -8   1   25.80    7.90
  -7  -8  -1   24.00    7.20
  -7  -8  -1   15.30    7.20
   7  -8   1   22.00    8.00
   7   8   2   55.59    9.20
  -7   8  -2   36.70    8.40
   7   8   2   25.00    7.40
  -7  -8  -2   26.80    7.20
  -7  -8  -2   58.99    9.80
   7  -8   2   52.49    8.20
   7  -8   2   50.29    8.50
   7   8   3    8.70    7.90
   7   8   3    2.10    7.30
  -7   8  -3   11.00    7.20
   7  -8   3   16.10    7.90
   7  -8   3    5.20    7.30
  -7  -8  -3    0.10    6.30
  -7  -8  -3    5.40    7.20
   7   8   4  111.19   12.70
   7   8   4  103.29   11.20
  -7  -8  -4  108.59   11.40
   7  -8   4   93.29   10.80
   7   8   5    6.40    7.90
  -7   8  -5    9.10    9.80
   7  -8   5   13.90    8.10
   7   8   6    4.50    7.80
  -7   8  -6    1.40    7.10
   7  -8   6    2.10    7.50
  -7   8  -7    6.90    7.70
   7   8   7    6.30    8.10
   7  -8   7    1.40    8.20
   7   8   8   11.70    8.60
  -7   8  -8    7.60   11.20
   7  -8   8   27.90    9.70
   7   8   9    1.00    8.50
   7  -8   9   12.50    8.70
  -7   9  13  -16.70   12.10
  -7  -9  13   12.60   11.50
  -7   9  12    9.30   12.20
  -7  -9  12   10.70   11.10
  -7   9  11   14.20   11.70
  -7  -9  11    2.50   10.50
  -7   9  10   -3.00    9.20
  -7  -9  10  -19.80    8.50
  -7   9   9    0.00    9.30
  -7  -9   9    0.40    8.30
  -7   9   8   -6.60    8.50
  -7   9   8   -3.40    4.50
  -7  -9   8    9.80    7.90
  -7   9   7    2.20    7.60
  -7   9   7   -6.10    4.90
  -7  -9   7   -4.40    6.40
  -7  -9   7    1.30    3.60
  -7   9   6   -5.20    4.90
  -7  -9   6    8.30    4.00
  -7   9   5   52.99    7.00
  -7  -9   5   59.49    7.70
  -7  -9   5   63.09    6.10
  -7   9   4   13.70    5.90
  -7  -9   4   12.90    6.30
  -7  -9   4   19.20    5.30
  -7   9   3   18.70    6.20
  -7  -9   3   35.40    6.10
  -7  -9   3   25.50    6.70
  -7  -9   3   27.40    6.50
   7  -9  -3   26.30    5.70
  -7   9   2    7.60    5.30
   7   9  -2    3.30    4.60
   7  -9  -2   -3.80    6.40
  -7  -9   2   13.70    6.00
  -7  -9   2   23.30    6.50
  -7  -9   2   10.80    6.20
   7  -9  -2   21.90    4.80
   7   9  -1   86.39    8.70
   7   9  -1   86.89    8.00
  -7   9   1   67.19    7.90
  -7  -9   1  108.29    9.90
  -7  -9   1   61.79    7.40
   7  -9  -1   99.69   10.00
   7   9   0  250.67   13.00
  -7   9   0  226.88   12.80
   7   9   0  235.48   13.00
   7  -9   0  233.18   12.70
  -7  -9   0  228.18   11.90
  -7  -9   0  234.88   14.10
   7   9   1    8.00    6.90
   7   9   1    4.60    6.40
  -7   9  -1   -5.10    5.40
  -7  -9  -1   10.20    7.40
   7  -9   1    3.10    7.50
  -7  -9  -1   -3.30    6.40
   7   9   2   49.99    9.00
  -7   9  -2   46.00    7.50
   7   9   2   66.39    9.80
   7  -9   2   53.29    9.40
  -7  -9  -2   55.19    9.90
  -7  -9  -2   69.59    9.30
   7   9   3   21.50    8.50
   7   9   3   26.00    7.80
  -7  -9  -3   13.20    7.50
   7  -9   3   19.30    8.00
  -7  -9  -3   10.10    7.50
   7   9   4    5.60    7.90
   7   9   4    1.60    8.60
  -7  -9  -4   11.30    9.10
   7  -9   4   35.30    8.50
   7   9   5    1.80    6.90
   7  -9   5    7.40    8.20
  -7   9  -6   13.90    9.60
   7   9   6    6.90    8.30
   7  -9   6   18.70    8.70
   7   9   7   -2.50    7.70
   7  -9   7    7.60    8.00
   7   9   8    2.50    8.50
   7  -9   8   -4.20    8.40
   7   9   9   -9.20    8.30
   7  -9   9   -5.30    8.20
  -7  10  12   15.10   13.10
  -7 -10  12   -1.00   11.10
  -7  10  11  -25.40   10.10
  -7 -10  11    1.90   10.50
  -7  10  10   -8.20    9.00
  -7 -10  10    8.20   10.00
  -7  10   9   -8.80    9.60
  -7  10   9    5.80    4.80
  -7 -10   9    1.80    8.50
  -7  10   8   12.50    8.20
  -7  10   8   28.90    5.90
  -7 -10   8   27.20    8.50
  -7  10   7   23.70    6.10
  -7 -10   7   38.10    4.20
  -7  10   6   18.00    5.70
  -7 -10   6   20.10    4.70
  -7 -10   6   28.30    7.20
  -7  10   5  141.69    9.80
  -7 -10   5  150.68   11.50
  -7 -10   5  154.58    8.60
  -7  10   4   23.00    6.60
  -7 -10   4   25.00    5.60
  -7 -10   4    7.90    6.30
  -7  10   3    4.60    5.90
  -7 -10   3    3.50    5.20
   7 -10  -3   -2.10    4.90
  -7 -10   3   -6.80    5.70
  -7 -10   3   -1.40    5.90
   7  10  -2   27.30    5.40
  -7  10   2   31.10    7.00
   7 -10  -2   31.60    7.10
  -7 -10   2   20.60    6.70
  -7 -10   2   25.50    7.50
  -7 -10   2   19.50    6.10
  -7  10   1   30.70    7.40
   7  10  -1   24.40    6.00
   7  10  -1   20.20    6.30
  -7 -10   1    9.20    6.20
   7 -10  -1   22.40    7.80
  -7 -10   1   23.00    7.50
   7  10   0  160.68   11.00
   7  10   0  166.98   11.90
  -7  10   0  172.68   12.00
   7 -10   0  180.78   12.60
   7 -10   0  178.68   12.70
  -7 -10   0  153.18   12.00
  -7 -10   0  199.68   12.20
  -7  10  -1   56.29    8.60
   7  10   1   51.69    8.30
   7  10   1   43.50    7.70
  -7 -10  -1   56.19    9.60
   7 -10   1   59.29    9.20
  -7 -10  -1   26.10    7.30
   7 -10   1   59.59    9.30
  -7  10  -2  118.19   10.90
   7  10   2   97.79   10.90
   7  10   2   95.59   10.40
  -7 -10  -2   98.09    9.80
   7 -10   2   90.39    9.90
  -7 -10  -2   85.69   10.80
   7  10   3    5.00    7.70
   7  10   3   -3.40    7.60
  -7 -10  -3   -3.10    7.20
  -7 -10  -3    3.40    7.40
   7 -10   3   -1.40    7.50
   7  10   4   39.00    9.80
   7 -10   4   51.99    9.80
  -7 -10  -4   46.60   10.70
   7  10   5    8.10    8.30
   7 -10   5   -2.10    7.90
   7  10   6    1.40    8.20
   7 -10   6  -12.80    7.50
   7  10   7    1.00    8.70
   7 -10   7   18.20    8.80
   7  10   8   -2.30    8.00
   7 -10   8   10.70    8.40
   7  10   9   14.40    9.40
   7 -10   9    8.90    9.00
  -7  11  12   18.50   13.40
  -7 -11  12    7.20   11.60
  -7  11  11   -1.40   11.80
  -7 -11  11    3.80   11.00
  -7  11  10   -2.50    9.90
  -7 -11  10    1.10    9.30
  -7  11   9    5.60    5.10
  -7  11   9   -6.10    9.40
  -7 -11   9   11.00    8.40
  -7  11   8   10.10    5.40
  -7  11   7   21.90    6.40
  -7 -11   7   30.70    4.40
  -7  11   6   41.20    7.10
  -7 -11   6   51.09    7.90
  -7 -11   6   43.70    5.60
  -7  11   5  -11.60    5.30
  -7 -11   5   11.80    6.40
  -7 -11   5   -7.10    4.50
  -7  11   4    7.60    5.80
  -7 -11   4    3.00    5.20
  -7 -11   4   -0.90    6.00
  -7  11   3   18.90    6.70
  -7 -11   3   18.60    6.90
  -7 -11   3   25.60    6.20
   7  11  -2   42.00    6.00
  -7  11   2   44.70    7.10
   7 -11  -2   46.60    8.50
  -7 -11   2   31.60    6.60
   7 -11  -2   44.20    6.70
  -7 -11   2   41.70    7.60
  -7 -11   2   39.20    7.70
  -7  11   1    3.00    5.80
   7  11  -1   -1.00    5.30
   7  11  -1    4.40    6.30
   7 -11  -1    5.90    6.30
  -7 -11   1   -7.70    6.60
  -7 -11   1   -4.20    5.10
   7 -11  -1   -1.10    7.10
  -7  11   0    2.90    5.80
   7  11   0    5.00    6.10
   7  11   0    5.60    6.10
  -7 -11   0   -0.20    6.60
   7 -11   0    5.70    7.80
  -7 -11   0    9.30    6.70
   7 -11   0    1.80    6.90
  -7  11  -1   47.40    8.50
   7  11   1   40.90    8.10
   7  11   1   34.20    7.60
  -7 -11  -1   43.90    9.30
   7 -11   1   48.20    9.60
  -7 -11  -1   30.40    8.00
   7 -11   1   49.30    8.40
   7  11   2   70.39    9.70
  -7  11  -2   73.79    9.00
   7  11   2   49.40    8.50
   7 -11   2   79.59   10.40
  -7 -11  -2   76.69   10.00
  -7 -11  -2   66.29   10.50
   7 -11   2   77.39   10.90
   7  11   3   10.60    8.10
   7  11   3    5.90    8.10
   7 -11   3   16.80    9.60
   7 -11   3    8.10    8.20
  -7 -11  -3    5.50    6.80
  -7 -11  -3    6.70    8.50
   7  11   4   19.00    8.00
   7 -11   4   23.40    8.90
   7  11   5    2.50    8.10
   7 -11   5   -0.40    8.10
   7  11   6  -21.20    7.00
   7 -11   6   -2.80    7.50
   7  11   7   11.30    8.40
   7 -11   7    0.40    8.30
   7  11   8   -2.70    8.40
   7 -11   8   10.40    9.00
   7  11   9   -1.20    8.70
   7 -11   9    2.80    8.10
  -7  12  12   16.60   13.30
  -7 -12  12  -13.30   10.80
  -7  12  11  -10.50   10.90
  -7 -12  11    9.50   10.90
  -7  12  10    5.60   10.50
  -7 -12  10    1.50    9.30
  -7  12   9    4.90    5.50
  -7 -12   9   15.40    9.10
  -7  12   8   16.30    5.90
  -7  12   7   67.29    8.00
  -7 -12   7   55.59    5.20
  -7  12   6    1.20    6.00
  -7 -12   6   -8.80    5.70
  -7 -12   6    1.10    4.20
  -7  12   5    8.10    5.90
  -7 -12   5    5.60    6.40
  -7 -12   5   -0.50    4.70
  -7  12   4  135.19   10.30
  -7 -12   4  113.39   10.30
  -7 -12   4  136.29    9.30
  -7  12   3  104.29    9.80
  -7 -12   3   82.49    8.20
  -7 -12   3  106.29   10.10
  -7  12   2    9.20    6.00
  -7 -12   2   20.30    7.30
  -7 -12   2   29.70    7.00
   7 -12  -2   20.50    7.10
   7 -12  -2    6.70    5.80
   7  12  -1   13.20    5.70
   7  12  -1   -1.50    5.80
  -7  12   1   10.80    7.00
   7 -12  -1   14.90    7.80
  -7 -12   1   16.50    6.20
  -7 -12   1   23.80    7.20
   7 -12  -1   -0.30    6.20
  -7  12   0   -3.00    5.90
   7  12   0   -5.10    6.00
   7  12   0   -7.00    6.60
  -7 -12   0   16.50    6.60
  -7 -12   0    0.70    7.40
   7 -12   0    0.40    7.10
   7 -12   0   -8.50    6.20
   7  12   1   82.09   10.40
  -7  12  -1   91.49   10.50
   7  12   1   83.89    9.70
   7 -12   1  105.09   11.60
   7 -12   1   79.09   10.10
  -7 -12  -1   74.09   10.50
  -7 -12  -1   72.09    9.00
  -7  12  -2   -1.20    6.80
   7  12   2   -0.70    7.30
   7  12   2   -2.40    7.10
   7 -12   2    1.80    8.90
   7 -12   2   -7.20    6.60
  -7 -12  -2   -3.50    6.40
  -7 -12  -2    3.90    8.50
   7  12   3   13.90    8.30
   7  12   3   14.50    8.10
  -7 -12  -3    8.50    7.70
   7 -12   3   -4.80    7.80
  -7 -12  -3    0.00    8.50
   7 -12   3   -3.80    9.50
   7  12   4   46.60   10.00
   7 -12   4   17.20    8.50
   7  12   5   20.60    9.40
   7 -12   5   25.40    8.90
   7  12   6   -5.20    7.30
   7 -12   6   -1.00    7.70
   7  12   7   19.60    9.00
   7 -12   7   21.20    9.00
   7  12   8   -2.50    8.90
   7 -12   8    4.70    8.90
   7  12   9   -1.30    8.50
   7 -12   9   10.40    8.90
  -7 -13  12  -17.70   10.60
  -7 -13  11   33.40   11.20
  -7 -13  10   18.20   10.20
  -7  13   9    2.60    5.70
  -7  13   8    3.40    5.90
  -7  13   7   12.20    6.30
  -7 -13   7    4.10    4.00
  -7  13   6   11.40    6.50
  -7 -13   6   -3.30    6.40
  -7 -13   6    4.70    4.70
  -7  13   5    2.90    6.40
  -7 -13   5   12.20    7.10
  -7 -13   5   13.00    5.60
  -7  13   4   23.10    6.90
  -7 -13   4   35.30    8.00
  -7 -13   4   38.70    6.80
  -7  13   3    1.40    5.50
  -7 -13   3   -4.90    5.50
  -7 -13   3    9.50    7.30
  -7  13   2    3.40    5.80
   7 -13  -2    7.60    7.30
   7 -13  -2    8.30    6.00
  -7 -13   2    1.30    5.80
  -7 -13   2   15.20    7.30
   7  13  -1   -1.90    5.40
  -7  13   1   -4.90    6.50
   7  13  -1    0.70    7.00
   7 -13  -1   -7.90    6.40
   7 -13  -1   -7.30    6.20
  -7 -13   1    6.20    6.60
  -7 -13   1    2.20    7.50
  -7  13   0   57.49    9.00
   7  13   0   55.29    8.20
   7  13   0   49.80    9.10
   7 -13   0   55.69    8.90
   7 -13   0   64.29    9.40
  -7 -13   0   72.99   10.30
  -7 -13   0   61.59    9.10
   7  13   1   26.20    7.80
   7  13   1   30.90    8.20
  -7  13  -1   51.99    8.90
   7 -13   1   41.00    9.20
  -7 -13  -1   27.80    8.20
   7 -13   1   26.00    8.70
  -7 -13  -1   18.60    7.90
   7  13   2    8.60    7.60
   7  13   2   13.40    8.00
  -7  13  -2   13.70    7.70
   7 -13   2   -5.90    8.80
   7 -13   2    7.50    7.10
  -7 -13  -2    6.40    7.80
  -7 -13  -2   28.80    9.20
   7  13   3   12.20    7.40
   7  13   3    5.90    8.20
  -7 -13  -3    5.00    8.40
   7 -13   3   -1.10   10.00
  -7 -13  -3    4.40    7.80
   7 -13   3   15.40    8.20
   7  13   4    6.00    8.50
   7 -13   4   -2.10    7.90
   7  13   5   -8.20    8.20
   7 -13   5   15.30    8.40
   7  13   6    0.40    7.80
   7 -13   6   38.40    9.80
   7  13   7   -2.00    8.50
   7 -13   7    5.00    8.70
   7  13   8    6.90    8.80
   7 -13   8    6.30    8.90
   7  13   9   -4.80    8.80
   7 -13   9   13.20    9.00
  -7 -14  12   -4.40   12.00
  -7 -14  11   -6.00   10.30
  -7 -14  10   -3.70    9.40
  -7  14   9  -13.40    5.50
  -7  14   8    2.10    6.00
  -7  14   7   25.20    7.10
  -7 -14   7    8.70    4.20
  -7  14   6   27.50    7.30
  -7 -14   6   20.50    7.60
  -7 -14   6   28.00    5.60
  -7  14   5    3.70    6.40
  -7 -14   5   18.40    5.80
  -7 -14   5   -3.20    6.80
  -7  14   4    8.40    6.20
  -7 -14   4    9.70    7.40
  -7 -14   4   15.80    6.00
  -7  14   3   -1.80    6.50
  -7 -14   3   -3.60    6.90
  -7 -14   3    2.30    5.80
  -7  14   2   50.89    8.70
  -7 -14   2   57.29    7.90
   7 -14  -2   63.29    8.00
  -7 -14   2   44.80    8.30
   7 -14  -2   53.39    9.20
  -7  14   1    4.70    6.90
   7  14  -1   10.90    6.00
   7  14  -1   -2.20    7.50
  -7 -14   1   17.70    6.40
   7 -14  -1   -0.40    6.50
  -7 -14   1    6.60    7.80
   7 -14  -1    6.90    6.90
  -7  14   0   65.69    9.20
   7  14   0   61.09    8.50
   7  14   0   53.39    9.70
   7 -14   0   66.19    9.70
  -7 -14   0   56.39    8.90
   7 -14   0   53.19    9.10
  -7 -14   0   59.99   10.10
  -7  14  -1   66.69    9.70
   7  14   1   69.29    9.70
   7  14   1   70.49    9.50
   7 -14   1   72.29   10.70
   7 -14   1   65.19   10.40
  -7 -14  -1   47.70   10.30
  -7 -14  -1   69.49    9.80
   7  14   2   10.10    7.90
   7  14   2   25.40    8.50
  -7  14  -2   23.50    8.30
  -7 -14  -2   15.20    8.20
   7 -14   2   21.00    7.90
  -7 -14  -2   14.70    7.20
   7 -14   2   20.60    9.60
   7  14   3  -10.60    6.70
   7  14   3  -13.50    7.30
  -7 -14  -3   -4.90    9.40
  -7 -14  -3    7.30    7.30
   7 -14   3    1.10    8.20
   7 -14   3   14.80   10.30
   7  14   4  159.18   14.10
   7 -14   4  152.48   13.40
   7  14   5   32.30    9.70
   7 -14   5    5.90    8.60
   7  14   6    6.40    8.20
   7 -14   6    8.00    8.60
   7  14   7    5.40    9.00
   7 -14   7   20.40    9.20
   7  14   8    6.20    9.10
   7 -14   8    8.70    9.50
   7  14   9   10.70    9.80
   7 -14   9    4.70    8.70
  -7 -15  12    1.00   11.70
  -7 -15  11   -4.70    9.90
  -7  15  10    2.00    9.40
  -7  15   9   -1.10    6.10
  -7  15   8    8.50    6.50
  -7  15   7   80.99    9.50
  -7 -15   7   92.89    6.90
  -7  15   6   18.90    7.10
  -7 -15   6   14.60    5.40
  -7 -15   6    8.90    7.50
  -7  15   5   30.80    7.80
  -7 -15   5   26.60    6.30
  -7 -15   5   12.30    7.50
  -7  15   4    5.10    6.50
  -7 -15   4    7.00    5.80
  -7 -15   4    4.50    7.10
  -7  15   3   13.30    7.20
  -7 -15   3   -6.10    7.00
  -7 -15   3    9.50    6.00
  -7  15   2   -3.90    5.80
  -7 -15   2    0.30    7.50
   7 -15  -2    4.00    6.80
  -7 -15   2   -3.30    5.70
  -7  15   1  131.89   10.90
   7 -15  -1  130.49   10.70
  -7 -15   1  145.89   12.80
   7 -15  -1  135.79   11.50
  -7 -15   1   96.29    9.50
  -7  15   0   35.60    7.70
   7  15   0   33.80    8.60
   7  15   0   32.20    7.70
   7 -15   0   46.30    8.70
  -7 -15   0   16.30    7.80
   7 -15   0   29.30    8.70
  -7 -15   0   25.30    8.30
   7  15   1    2.40    7.90
  -7  15  -1    3.60    7.30
   7  15   1    6.00    7.40
   7 -15   1    9.30    8.30
   7 -15   1   13.60    9.00
  -7 -15  -1    0.40    7.30
  -7 -15  -1   -3.00    6.20
   7  15   2    2.60    8.30
  -7  15  -2   -3.00    6.50
   7  15   2   17.50    8.10
   7 -15   2   16.20    9.70
  -7 -15  -2   21.30    8.40
   7 -15   2   -6.20    6.70
  -7 -15  -2   11.20    9.00
   7  15   3   89.19   11.80
   7 -15   3  112.59   15.80
   7 -15   3  100.49   11.90
  -7 -15  -3  106.99   11.70
   7  15   4   11.40    8.70
   7 -15   4   -2.50    7.90
   7  15   5   19.40    8.80
   7 -15   5    7.30    8.20
   7  15   6   12.30    9.40
   7 -15   6    1.50    8.20
   7  15   7    0.30    8.90
   7 -15   7    5.80    8.70
   7  15   8  -13.00    8.00
   7 -15   8   12.00    8.90
  -7 -16  12    4.20   11.70
  -7 -16  11   -6.10   10.50
  -7  16  10    0.60    5.90
  -7  16   9   18.10    7.10
  -7  16   8  -10.10    6.00
  -7  16   7   -4.10    6.70
  -7 -16   7    1.10    4.60
  -7  16   6   -2.70    6.80
  -7 -16   6   -5.60    6.80
  -7 -16   6    7.80    5.20
  -7  16   5    1.80    6.50
  -7 -16   5    7.40    5.70
  -7 -16   5   -7.10    7.10
  -7  16   4   31.20    8.20
  -7 -16   4   17.40    8.30
  -7 -16   4   30.70    7.00
  -7  16   3   19.20    7.70
  -7 -16   3   24.40    8.40
  -7 -16   3   20.80    6.90
  -7  16   2    1.50    7.00
  -7 -16   2    2.50    7.60
  -7 -16   2    5.00    6.20
   7 -16  -2    2.40    7.40
  -7  16   1   -4.50    6.90
   7 -16  -1   -3.70    6.80
  -7 -16   1   -4.20    6.80
   7 -16  -1   -9.20    7.50
  -7 -16   1   -8.40    7.70
   7  16   0   -3.30    6.80
  -7  16   0    5.70    7.50
   7  16   0   12.00    6.70
   7 -16   0   16.80    8.50
  -7 -16   0    6.20    7.20
   7 -16   0    0.10    7.90
  -7 -16   0   10.40    8.20
   7  16   1  310.27   16.50
  -7  16  -1  304.97   16.20
   7  16   1  334.57   17.30
  -7 -16  -1  322.37   16.40
  -7 -16  -1  328.77   18.90
   7 -16   1  335.27   18.30
   7 -16   1  339.87   17.50
   7  16   2    1.20    7.30
   7  16   2   18.40    8.10
  -7  16  -2    7.30    7.00
   7 -16   2   12.50    8.60
  -7 -16  -2    9.20   10.50
   7 -16   2    0.00    8.90
  -7 -16  -2    4.70    7.60
   7  16   3    9.40    8.30
   7 -16   3    3.50    8.30
  -7 -16  -3    6.00    7.00
   7  16   4   -2.90    8.50
   7 -16   4   19.90    8.90
   7  16   5   51.99   10.60
   7 -16   5   42.40   10.10
   7  16   6    6.00    8.80
   7 -16   6   -3.60    8.60
   7  16   7   27.80    9.90
   7 -16   7   11.90    9.10
   7  16   8   13.20    9.50
   7 -16   8   -5.40    8.30
  -7  17  10    3.00    6.10
  -7  17   9   12.70    7.20
  -7  17   8   25.90    7.70
  -7  17   7    8.70    7.10
  -7 -17   7   19.20    5.40
  -7  17   6    9.70    7.30
  -7 -17   6   15.90    8.30
  -7 -17   6   10.00    5.70
  -7  17   5   13.70    7.10
  -7 -17   5    5.90    5.90
  -7 -17   5   19.30    8.10
  -7  17   4   -3.30    6.60
  -7 -17   4    7.50    6.20
  -7 -17   4   13.30    7.90
  -7  17   3   13.60    7.80
  -7 -17   3    8.90    6.50
  -7 -17   3   21.90    8.40
  -7  17   2   18.80    8.20
  -7 -17   2   20.40    7.50
   7 -17  -2   25.20    7.80
  -7 -17   2   33.00    9.50
  -7  17   1   19.50    8.10
  -7 -17   1   23.60    9.00
   7 -17  -1   12.90    7.40
  -7 -17   1   16.00    7.60
   7 -17  -1   29.20    8.40
   7  17   0  -20.90    7.30
  -7  17   0    0.20    6.60
   7  17   0    8.80    6.70
   7 -17   0   -3.90    7.60
  -7 -17   0    8.90    8.30
   7 -17   0   -1.10    7.70
  -7 -17   0   -8.00    7.00
   7  17   1   -5.80    8.00
   7  17   1   11.10    7.50
  -7  17  -1    6.60    7.60
  -7 -17  -1   18.90    7.70
   7 -17   1    1.90    8.10
  -7 -17  -1    1.60    8.80
   7 -17   1   -3.40    8.60
   7  17   2   53.39    9.90
   7  17   2   54.49   10.60
  -7  17  -2   61.79   12.40
  -7 -17  -2   64.39   10.70
   7 -17   2   65.69   10.80
   7 -17   2   57.69   11.40
   7  17   3   13.70    9.70
  -7 -17  -3   42.10    9.80
   7 -17   3   30.00    9.30
   7  17   4   -0.80    7.40
   7 -17   4    0.50    8.70
   7  17   5    3.50    7.80
   7 -17   5    4.00    8.60
   7  17   6   42.20   10.90
   7 -17   6   28.90    9.70
   7  17   7   -6.00    8.50
   7 -17   7  -18.30    7.90
   7  17   8    3.60    9.40
   7 -17   8    5.10    9.10
  -7  18  10   11.50    6.80
  -7  18   9   17.50    7.10
  -7  18   8   11.40    7.80
  -7  18   7    4.00    7.40
  -7 -18   7   13.30    5.50
  -7  18   6    1.80    7.30
  -7 -18   6  -12.10    7.50
  -7 -18   6    6.90    5.80
  -7  18   5   -3.50    6.70
  -7 -18   5    8.50    6.00
  -7 -18   5   -5.90    7.80
  -7  18   4   34.10    8.50
  -7 -18   4   29.80    8.60
  -7 -18   4   35.20    7.60
  -7  18   3   12.80    8.00
  -7 -18   3    5.20    6.80
  -7 -18   3   12.40    8.40
  -7  18   2   16.00    8.00
   7 -18  -2   -2.00    7.00
  -7 -18   2    2.50    6.70
  -7 -18   2   -5.40    8.00
  -7  18   1    0.30    6.40
  -7 -18   1   -2.20    7.40
   7 -18  -1    9.60    8.40
  -7 -18   1    3.10    8.90
   7 -18  -1    9.60    7.90
  -7  18   0   35.20    8.90
   7  18   0   21.50    9.10
  -7 -18   0   25.50    8.80
   7 -18   0   18.60    8.50
  -7 -18   0   37.60    8.90
   7 -18   0   26.50    9.30
   7  18   1   -0.90    7.10
  -7  18  -1   18.00    7.60
   7  18   1   14.00    8.20
   7 -18   1   -0.20    8.90
  -7 -18  -1   14.70    7.50
   7 -18   1    6.90    8.30
   7  18   2   13.50    8.50
   7  18   2   18.70    9.30
   7 -18   2   11.40    8.60
  -7 -18  -2   12.10    8.80
   7 -18   2   16.00   10.80
   7  18   3   10.80    9.30
   7 -18   3   -1.00    8.30
  -7 -18  -3   11.10    8.60
   7  18   4   21.50    9.50
   7 -18   4   -3.60    7.90
   7  18   5   -0.20    8.60
   7 -18   5   -4.40    8.00
   7  18   6    9.20    9.80
   7 -18   6   -0.80    8.40
   7  18   7    0.60   10.10
   7 -18   7   -8.90    8.10
   7  18   8   10.40    9.90
   7 -18   8   -9.20    8.50
  -7  19  10   16.30    7.20
  -7  19   9    4.40    7.60
  -7  19   8    0.70    7.50
  -7  19   7   18.50    8.10
  -7 -19   7   16.70    5.60
  -7  19   6   22.40    8.20
  -7 -19   6   34.40    7.00
  -7 -19   6   17.70   14.50
  -7  19   5   -1.60    6.80
  -7 -19   5   -2.80    6.00
  -7 -19   5    6.40    8.20
  -7  19   4   -9.00    6.80
  -7 -19   4   10.30    6.70
  -7 -19   4    4.70    8.30
  -7  19   3   -0.30    6.80
  -7 -19   3   11.40    7.30
  -7 -19   3    9.00    8.60
  -7  19   2    2.10    7.90
  -7 -19   2   11.20    7.40
   7 -19  -2    9.00    8.30
  -7 -19   2    6.50    7.60
  -7  19   1    8.50    7.20
  -7 -19   1    5.20    7.80
   7 -19  -1   15.80    9.60
  -7 -19   1    7.40    9.30
   7 -19  -1   13.00    8.90
  -7  19   0   -3.30    7.60
   7  19   0   -4.90    8.40
  -7 -19   0   -4.20    7.80
   7 -19   0    6.70    8.60
   7 -19   0    1.90    7.40
   7  19   1  -11.80    7.20
  -7  19  -1   17.80    8.40
   7  19   1    8.70    8.90
  -7 -19  -1  -17.20    7.20
   7 -19   1  -17.60    7.60
   7 -19   1    6.10    9.70
   7  19   2  -13.10    8.10
  -7 -19  -2   -6.50    7.90
   7 -19   2   11.60    8.30
   7  19   3   12.50    9.70
   7 -19   3   21.50    9.00
  -7 -19  -3    7.00    7.70
   7  19   4   -5.60    8.50
   7 -19   4   -6.70    7.60
   7  19   5   12.80    9.50
   7 -19   5   11.40    8.80
   7  19   6    5.50    9.80
   7 -19   6   -6.50    8.40
   7  19   7    8.00   10.10
   7 -19   7   -3.70    8.60
   7  19   8   -5.50    9.50
  -7  20  10    3.60    7.30
  -7  20   9   10.90    7.80
  -7  20   8   72.89   10.40
  -7  20   7    6.70    7.60
  -7 -20   7   -7.10    5.00
  -7  20   6   -1.20    7.70
  -7 -20   6  -11.10    5.40
  -7  20   5   10.70    7.90
  -7 -20   5   -4.30    6.00
  -7  20   4   35.00    8.60
  -7 -20   4   34.00    8.10
  -7  20   3   67.09   10.40
  -7 -20   3   32.70    8.30
  -7  20   2   -0.60    7.50
   7 -20  -2   -2.20    7.60
  -7 -20   2    5.90    7.30
  -7  20   1    9.80    7.60
   7 -20  -1   11.30    8.90
  -7 -20   1    6.10    8.00
  -7  20   0    4.60    8.30
   7 -20   0   -7.00    8.40
  -7 -20   0   -7.30    7.70
   7 -20   0    6.40    8.80
   7  20   1    0.00    7.70
  -7  20  -1    7.00    8.30
   7  20   1   13.90    9.70
  -7 -20  -1   11.80    8.70
   7 -20   1   -3.20    8.20
   7 -20   1   11.00   10.20
   7  20   2    2.80    8.80
  -7 -20  -2    0.20    7.60
   7 -20   2    3.80    8.70
   7  20   3   -7.00    9.00
   7 -20   3   -6.10    8.10
  -7 -20  -3   26.80    9.90
   7  20   4    2.50    8.50
   7 -20   4   -5.80    8.30
   7  20   5   12.60    9.10
   7 -20   5    6.30    8.50
   7  20   6    9.30   10.30
   7 -20   6   -9.70    8.50
   7  20   7   -2.30    9.60
   7 -20   7   16.80    9.80
  -7  21  10    4.20    7.40
  -7  21   9    5.40    7.60
  -7  21   8   20.10    8.60
  -7  21   7    3.50    7.70
  -7 -21   7   -3.70    5.50
  -7  21   6   -8.60    7.70
  -7 -21   6   -4.70    5.70
  -7  21   5   -0.80    8.20
  -7 -21   5  -12.60    6.20
  -7  21   4   14.00    8.50
  -7 -21   4    7.90    7.40
  -7  21   3   13.80    7.70
  -7 -21   3   21.70    8.40
  -7  21   2    1.60    8.10
  -7 -21   2    5.70    8.00
   7 -21  -2    1.50    7.90
  -7  21   1   -6.00    7.80
   7 -21  -1   -3.30    8.90
  -7 -21   1  -13.50    7.40
  -7  21   0   16.30    9.10
   7 -21   0   33.20   10.00
   7 -21   0   32.40   10.10
  -7 -21   0   39.80   10.00
   7  21   1    3.80    8.20
  -7  21  -1    2.10    8.40
  -7 -21  -1    3.90    7.70
   7 -21   1  -11.20    7.40
   7  21   2   13.60   10.00
  -7 -21  -2   20.00    9.70
   7 -21   2   19.30    9.50
   7  21   3  -10.90    7.90
   7 -21   3   15.70    8.50
  -7 -21  -3   -5.20    7.50
   7  21   4    9.00   10.40
   7 -21   4    0.40    8.90
   7  21   5   -0.50    9.90
   7 -21   5    9.60    9.40
   7  21   6   22.70   10.30
   7 -21   6   10.60    9.70
   7  21   7   -3.60    9.20
   7 -21   7   15.70   10.10
  -7  22  10   -3.60    7.50
  -7  22   9    2.90    8.10
  -7  22   8   12.50    8.80
  -7  22   7    2.90    7.80
  -7 -22   7    2.60    5.60
  -7  22   6    2.30    8.30
  -7 -22   6   10.80    6.70
  -7  22   5   22.60    8.90
  -7 -22   5   16.60    7.50
  -7  22   4    2.90    8.20
  -7 -22   4   -4.70    6.60
  -7  22   3   27.40    9.40
  -7 -22   3   16.00    8.30
  -7  22   2    3.20    8.40
  -7 -22   2   -1.70    7.50
   7 -22  -2    1.40    9.40
  -7  22   1    5.00    8.60
   7 -22  -1   10.20    9.60
  -7 -22   1   -5.50    7.90
  -7  22   0    5.40    8.50
   7 -22   0   22.70   10.20
  -7 -22   0    1.10    8.30
   7 -22   0    3.60    9.10
   7  22   1    1.30    9.10
  -7  22  -1    2.20    8.50
  -7 -22  -1   22.30    9.60
   7 -22   1   16.60    9.10
   7  22   2    8.40    9.30
  -7 -22  -2    1.80    9.00
   7 -22   2   15.20    9.90
   7  22   3    6.70    9.90
  -7 -22  -3    5.80    9.20
   7 -22   3  -18.00    7.00
   7  22   4   -2.50    8.50
   7 -22   4  -10.20    8.70
   7  22   5   -7.60    9.00
   7 -22   5  -13.90    8.50
   7  22   6   20.40   10.80
   7 -22   6   -8.50    8.80
   7  22   7    0.20   10.00
   7 -22   7   10.40   10.20
  -7  23  10    8.90    8.00
  -7  23   9   -2.00    8.10
  -7  23   8    0.10    8.20
  -7  23   7    8.40    8.40
  -7 -23   7    6.30    6.20
  -7  23   6   48.90   10.30
  -7 -23   6   38.70    8.40
  -7  23   5    9.00    8.20
  -7 -23   5    8.00    7.40
  -7  23   4    6.70    8.60
  -7 -23   4    3.50    7.70
  -7  23   3   -4.00    8.40
  -7 -23   3   -4.20    7.70
  -7  23   2   -8.40    8.20
   7 -23  -2    5.30    9.70
  -7 -23   2    8.80    8.40
  -7  23   1    4.60    8.00
  -7 -23   1    5.00    8.50
   7 -23  -1    3.00    8.70
  -7  23   0   11.10    8.80
   7 -23   0    7.40    8.70
  -7 -23   0   -2.70    8.50
   7  23   1    1.00    9.60
  -7  23  -1   -1.20    8.40
   7 -23   1    2.20    9.70
  -7 -23  -1    0.20    9.50
   7  23   2   11.30   10.10
   7 -23   2  -15.00    8.90
  -7 -23  -2   -5.90    8.50
   7  23   3   11.00   10.40
  -7 -23  -3   14.20    9.90
   7 -23   3   -2.60    8.90
   7  23   4   20.50   11.00
   7 -23   4   -6.40    9.40
   7  23   5    3.80   10.60
   7 -23   5    1.00    8.90
   7  23   6   -0.30    9.70
   7 -23   6   -1.30    9.60
  -7  24   9   -1.10    8.00
  -7  24   8   10.20    8.80
  -7  24   7    9.50    8.80
  -7 -24   7   12.50    6.80
  -7  24   6   14.20    9.20
  -7 -24   6   12.40    7.20
  -7  24   5   17.50    9.80
  -7 -24   5   13.20    8.00
  -7  24   4   12.40    8.90
  -7 -24   4   12.20    8.40
  -7  24   3   18.70    9.60
  -7 -24   3    9.80    8.40
  -7  24   2    9.40    8.20
  -7 -24   2  -14.80    7.80
   7 -24  -2    9.00    9.70
  -7  24   1  -18.10    8.20
  -7 -24   1    7.10    8.70
   7 -24  -1    3.70    9.90
  -7  24   0    5.10    8.70
   7 -24   0   -7.30    9.40
  -7 -24   0  -14.00    8.40
   7  24   1    3.70    9.60
   7 -24   1    7.00   10.00
  -7 -24  -1    2.20    9.40
   7  24   2   11.70   10.40
   7 -24   2   12.60    9.80
  -7 -24  -2    2.80    9.30
   7  24   3  -11.30    9.20
  -7 -24  -3   -1.90    9.50
   7 -24   3   -6.50    9.30
   7  24   4   16.70   11.60
   7 -24   4    6.10    9.80
   7  24   5   25.40   11.60
   7 -24   5    3.60   10.00
   7  24   6   -3.20   10.60
   7 -24   6  -16.90    9.40
  -7  25   9    9.20    8.60
  -7  25   8   -2.80    8.40
  -7  25   7   17.80    9.40
  -7 -25   7    5.00    6.70
  -7  25   6    0.80    8.50
  -7 -25   6   -0.30    6.90
  -7  25   5   18.70    9.70
  -7 -25   5   22.40    8.50
  -7  25   4   16.40    9.30
  -7 -25   4   18.10    8.60
  -7  25   3   14.60    9.40
  -7 -25   3    7.00    8.60
  -7  25   2   29.60   10.00
  -7 -25   2   15.40    9.00
   7 -25  -2   -2.40    8.40
  -7  25   1   -1.70    7.90
   7 -25  -1  -16.60    9.10
  -7 -25   1    6.00    8.70
  -7  25   0    6.10    8.90
   7 -25   0   -1.30   10.10
  -7 -25   0    6.90    8.20
   7 -25   1   -0.50    9.50
  -7 -25  -1   -0.80    9.30
   7  25   2   12.10   10.70
  -7 -25  -2    3.00   10.10
   7 -25   2   -4.60    9.20
   7  25   3   -6.30   10.00
  -7 -25  -3    3.20   10.30
   7 -25   3  -12.00    9.60
   7  25   4   15.50   11.60
   7 -25   4   15.80   10.20
   7  25   5    1.00   10.60
   7 -25   5    5.70    9.80
   7  25   6   -7.70   10.40
   7 -25   6    1.40    9.80
  -7  26   8   17.10    9.20
  -7  26   7   -9.70    8.40
  -7 -26   7    7.50    7.00
  -7  26   6   -9.80    8.40
  -7 -26   6    1.90    7.30
  -7  26   5   15.80   10.10
  -7 -26   5    4.80    8.30
  -7  26   4   13.80   10.10
  -7 -26   4   -6.10    7.70
  -7  26   3   23.00   10.50
  -7 -26   3   24.70    9.20
  -7  26   2   10.20    9.90
  -7 -26   2   -8.10    7.80
   7 -26  -2   -4.90   10.30
  -7  26   1   15.20    9.20
   7 -26  -1   -6.40   10.00
  -7 -26   1    3.90    8.80
  -7  26   0  -11.00    8.20
   7 -26   0   13.30   10.30
  -7 -26   0   -9.90    9.10
   7 -26   1    4.30   10.30
  -7 -26  -1   -1.00    8.60
   7  26   2   -6.10    9.90
   7 -26   2   16.50   11.10
  -7 -26  -2  -21.10    9.00
   7  26   3  -23.90    9.50
  -7 -26  -3  -10.60    9.40
   7 -26   3  -13.80    9.50
   7  26   4   -7.90   10.50
   7 -26   4   10.00   10.80
   7  26   5   -9.50   10.70
   7 -26   5   -1.90    9.90
  -7  27   8   11.90    9.20
  -7  27   7   -2.80    8.90
  -7 -27   7   14.10    7.40
  -7  27   6   -4.00    8.90
  -7 -27   6   -1.70    7.60
  -7  27   5   -0.30    9.20
  -7 -27   5   -3.30    8.20
  -7  27   4   -3.50   10.10
  -7 -27   4   -5.00    7.90
  -7  27   3   -6.30    9.60
  -7 -27   3    6.70    8.90
  -7  27   2   18.00   10.90
   7 -27  -2   20.10   13.30
  -7 -27   2   11.40    9.40
  -7  27   1   16.60   10.20
  -7 -27   1   -2.80    9.30
   7 -27  -1   -9.20    8.90
  -7  27   0   10.30    9.60
  -7 -27   0   -0.20    9.50
   7 -27   0   14.20   10.90
  -7 -27  -1  -25.60    9.10
   7 -27   1    1.70   10.10
   7  27   2    6.40    9.80
  -7 -27  -2    1.00    9.20
   7 -27   2   -4.30    9.50
   7  27   3   16.90   11.40
   7 -27   3    7.50   10.20
  -7 -27  -3  -19.30    9.40
   7  27   4   23.90   11.70
   7 -27   4   19.40   10.80
   7  27   5    3.90   11.30
   7 -27   5  -32.00    8.30
  -7  28   7   -2.70    9.40
  -7 -28   7   -0.30    7.20
  -7  28   6    4.20    9.30
  -7 -28   6    1.90    8.10
  -7  28   5    5.10   10.10
  -7 -28   5   -5.40    8.00
  -7  28   4   -3.40    9.40
  -7 -28   4    1.70    8.40
  -7  28   3   -7.70   10.40
  -7 -28   3    5.10    8.90
  -7  28   2   -4.40    9.90
  -7 -28   2   10.60    8.80
  -7  28   1   -0.80    9.70
  -7 -28   1    6.00    9.50
   7 -28  -1    9.80   11.00
  -7  28   0   -7.50    9.70
  -7 -28   0   13.20   10.20
   7 -28   0   12.00   11.30
  -7 -28  -1   -5.20    8.70
   7 -28   1   12.70   11.20
   7  28   2   -8.20   10.60
  -7 -28  -2   -2.00   10.60
   7 -28   2    3.30   11.00
   7  28   3    1.90   10.20
   7 -28   3   15.20   10.90
  -7 -28  -3   -9.80   10.50
   7  28   4  -14.90    9.90
   7 -28   4    1.60   10.40
  -7  29   7   -4.60    9.80
  -7 -29   7   16.70    8.00
  -7  29   6   10.20    9.80
  -7 -29   6   14.70    9.00
  -7  29   5    9.00    9.40
  -7 -29   5   10.40    9.30
  -7  29   4   12.10   10.90
  -7 -29   4    0.20    8.70
  -7  29   3   13.90   11.20
  -7 -29   3   -2.70    8.60
  -7  29   2   30.60   11.70
  -7 -29   2   21.00   10.30
  -7  29   1    6.10   10.50
  -7 -29   1   14.10    9.90
   7 -29  -1   -0.90   11.30
  -7  29   0   14.80   12.80
   7 -29   0   -1.90   10.00
  -7 -29   0    0.40    9.50
   7 -29   1   -8.20    8.90
  -7 -29  -1   -3.00   10.40
   7  29   2   13.20   12.70
  -7 -29  -2   -0.60   10.70
   7 -29   2  -10.80    8.90
   7  29   3   -6.90   11.20
   7 -29   3   12.20   11.20
  -7 -29  -3    3.60   10.90
  -7  30   6    3.20   10.10
  -7 -30   6    3.70    8.20
  -7  30   5   -1.40   10.20
  -7 -30   5   -3.20    9.00
  -7  30   4    0.50   10.60
  -7 -30   4   45.10   10.90
  -7  30   3    3.20    9.90
  -7 -30   3   -1.60    9.20
  -7  30   2   -3.00   10.70
  -7 -30   2    7.40    9.80
  -7  30   1    2.30   10.40
  -7 -30   1    2.50   10.10
   7 -30  -1   -5.00   11.10
  -7 -30   0  -23.20    9.20
   7 -30   0   10.30   11.50
   7 -30   1  -12.00   10.50
  -7 -30  -1  -14.00   10.10
   7 -30   2   20.20   11.90
  -7 -30  -2    8.60   10.30
   7  30   3    8.40   11.20
   7 -30   3   -3.50   10.70
  -7 -30  -3    2.40   10.00
  -7  31   5    9.50   10.90
  -7 -31   5    0.40    9.10
  -7  31   4  -10.90    9.40
  -7 -31   4    6.90    9.40
  -7  31   3  -10.80   10.10
  -7 -31   3    1.10    9.30
  -7  31   2   21.00   12.30
  -7 -31   2   10.80   10.30
  -7  31   1   -6.90   10.20
   7 -31  -1    8.00   11.90
  -7 -31   1   -1.70   10.00
  -7 -31   0  -15.80    9.70
   7 -31   0   -5.90   10.90
   7 -31   1   -3.10   11.40
  -7 -31  -1   18.10   11.60
   7 -31   2  -29.00   10.00
  -7 -31  -2   13.20   11.60
  -7  32   4   24.60   12.00
  -7 -32   4   -4.00    9.20
  -7  32   3   -9.50   10.00
  -7 -32   3   -0.30    9.70
  -7  32   2  -11.40   10.60
  -7 -32   2  -15.40    9.00
  -7  32   1   22.60   11.80
   7 -32  -1    3.60   11.70
  -7 -32   1   -6.40    9.70
   7 -32   0   32.00   13.30
  -7 -32   0    3.00   10.90
  -7 -32  -1    2.40   11.20
   7 -32   1  -20.10    9.90
  -7  33   2    0.10   10.20
  -7 -33   2    0.20   10.20
  -8   0  13  -18.40   10.80
  -8   0  12   11.40   11.50
  -8   0  11    7.80   10.10
  -8   0  10    2.40    9.00
  -8   0   9   -4.00    8.00
  -8   0   8    0.70    7.20
  -8   0   7    3.10    6.70
  -8   0   7    0.00    3.90
  -8   0   6   38.50    5.60
  -8   0   6   36.10    7.30
  -8   0   5    5.10    4.80
  -8   0   5    0.90    5.90
  -8   0   4   13.20    5.80
  -8   0   4    8.00    5.40
  -8   0   4   11.40    5.70
  -8   0   3    1.10    4.70
  -8   0   3   -0.60    4.80
  -8   0   3    6.30    5.30
  -8   0   2   29.60    6.60
  -8   0   2   27.30    5.60
   8   0  -2   40.40    7.70
  -8   0   2   26.90    6.00
   8   0  -1    1.80    6.60
  -8   0   1    9.50    4.60
  -8   0   1   -2.50    6.00
  -8   0   1    4.20    5.60
  -8   0   0  177.68   12.10
  -8   0   0  164.78   11.90
   8   0   0  157.08   11.30
   8   0   1   -4.60    6.40
  -8   0  -1    2.40    6.00
  -8   0  -1   -6.80    6.70
   8   0   2   -1.10    7.30
  -8   0  -2    0.20    6.80
  -8   0  -3    6.90    7.60
   8   0   3    2.00    7.80
   8   0   4   33.30    9.50
   8   0   5   -0.80    7.80
   8   0   6   19.60    8.60
   8   0   7   -6.60    7.70
   8   0   8   -3.50    8.70
   8   0   9   12.60    9.30
  -8   1  13    7.40   11.40
  -8  -1  13   20.60   12.30
  -8   1  12   18.20   11.50
  -8  -1  12    5.50   10.70
  -8   1  11   16.50   10.60
  -8  -1  11   13.50   10.10
  -8   1  10   17.10   10.20
  -8  -1  10   13.40    9.30
  -8   1   9    8.00    8.50
  -8  -1   9   10.50    8.10
  -8   1   8   38.20    9.00
  -8  -1   8   35.10    8.50
  -8   1   7   10.10    7.10
  -8   1   7   -1.50    4.00
  -8  -1   7   21.10    7.10
  -8  -1   7   14.80    4.20
  -8   1   6  173.18   11.70
  -8   1   6  157.68    8.90
  -8  -1   6  167.38    8.70
  -8  -1   6  188.48   11.50
  -8   1   5    6.60    6.60
  -8   1   5   -2.00    5.60
  -8   1   5   -4.10    4.40
  -8  -1   5    6.60    4.80
  -8  -1   5    2.30    6.80
  -8   1   4   20.30    5.60
  -8   1   4   25.60    6.30
  -8  -1   4   20.50    5.90
  -8  -1   4   19.60    5.00
  -8  -1   4   21.40    6.20
  -8   1   3   -3.60    4.60
  -8   1   3  -13.50    5.10
  -8   1   3   -1.60    4.40
  -8  -1   3    9.60    5.60
  -8  -1   3    2.90    5.00
  -8  -1   3   -0.60    4.80
  -8   1   2   19.80    6.40
  -8   1   2   25.10    5.20
  -8   1   2   13.60    5.50
   8   1  -2   20.90    6.20
  -8  -1   2    8.50    5.80
   8  -1  -2    9.30    6.90
  -8  -1   2   16.00    5.20
  -8  -1   2    8.30    5.60
  -8   1   1    0.80    6.00
   8   1  -1    3.80    6.50
  -8   1   1    4.60    4.40
  -8   1   1    5.90    5.80
  -8  -1   1    1.40    5.70
  -8  -1   1    2.00    6.20
  -8  -1   1    7.50    4.60
   8  -1  -1    4.60    7.10
   8   1   0   22.00    7.70
  -8   1   0   27.30    7.30
  -8   1   0   22.00    6.80
  -8  -1   0   34.90    7.10
  -8  -1   0   29.80    7.20
  -8  -1   0   36.90    6.10
   8  -1   0   39.10    7.90
   8   1   1   -8.10    7.00
  -8   1  -1   14.50    7.30
   8  -1   1   -0.30    7.30
  -8  -1  -1   -1.80    6.60
  -8  -1  -1    7.10    6.30
  -8   1  -2  175.98   12.70
   8   1   2  169.98   12.10
   8  -1   2  167.48   13.10
  -8  -1  -2  130.39   11.40
  -8  -1  -2  155.68   11.80
   8   1   3   61.89    9.90
  -8   1  -3   44.90    9.20
  -8  -1  -3   21.10    8.60
   8  -1   3   49.00    9.70
   8   1   4   12.40    8.50
   8  -1   4    4.00    8.10
   8   1   5    6.40    8.00
   8  -1   5    0.40    7.60
   8   1   6   35.70    9.30
   8  -1   6   14.90    8.60
   8   1   7    5.10    9.00
   8  -1   7    5.80    8.50
   8   1   8   -3.80    8.70
   8  -1   8   -5.00    8.20
   8   1   9  -19.20    8.10
   8  -1   9   13.30    9.60
  -8   2  13    7.60   11.30
  -8  -2  13   17.40   12.30
  -8   2  12   -6.20   10.10
  -8  -2  12    0.60   10.60
  -8   2  11   18.50   10.00
  -8  -2  11   18.10   10.40
  -8   2  10   11.20    9.80
  -8  -2  10    6.00    8.60
  -8   2   9   85.19   11.00
  -8  -2   9   71.79   10.60
  -8   2   8    9.40    8.00
  -8  -2   8   -0.90    7.10
  -8   2   7    5.70    7.10
  -8   2   7   -2.10    4.00
  -8  -2   7    3.00    6.40
  -8  -2   7    5.80    3.80
  -8   2   6    3.50    6.40
  -8   2   6    0.60    4.70
  -8  -2   6    2.50    4.30
  -8  -2   6   -1.70    5.60
  -8   2   5    6.00    5.80
  -8   2   5    0.80    5.70
  -8   2   5    8.20    5.20
  -8  -2   5   11.90    5.00
  -8   2   4    4.90    5.60
  -8   2   4    7.90    5.20
  -8  -2   4    7.20    4.70
  -8  -2   4    1.50    5.10
  -8  -2   4   -3.70    5.30
  -8   2   3   41.20    6.30
  -8   2   3   52.79    6.00
  -8   2   3   34.80    6.40
  -8  -2   3   42.00    6.70
  -8  -2   3   39.30    6.20
  -8  -2   3   42.30    6.80
   8   2  -2   11.20    7.30
  -8   2   2    9.50    5.30
  -8   2   2    8.80    6.30
  -8   2   2   13.60    4.90
  -8  -2   2    4.20    5.40
  -8  -2   2   12.50    5.40
   8  -2  -2    7.10    6.00
  -8  -2   2    9.80    5.90
   8   2  -1    2.30    6.80
  -8   2   1    9.20    4.30
  -8   2   1    9.60    6.30
  -8   2   1   15.60    5.80
  -8  -2   1   24.50    6.70
   8  -2  -1  -10.90    6.70
  -8  -2   1   12.10    5.00
  -8  -2   1   18.70    6.80
   8   2   0    8.90    7.40
  -8   2   0    7.90    6.80
   8  -2   0    7.30    7.60
  -8  -2   0    3.90    4.80
  -8  -2   0   -7.80    6.30
  -8  -2   0   10.50    6.80
   8   2   1   71.59    9.40
  -8   2  -1   91.69    9.60
  -8  -2  -1   73.49    9.60
   8  -2   1   65.59    8.90
  -8  -2  -1   81.39    9.70
   8   2   2   25.20    7.60
  -8   2  -2    6.10    7.40
  -8  -2  -2   12.70    7.50
  -8  -2  -2    9.50    7.00
   8  -2   2    0.00    6.80
  -8   2  -3    7.20    7.90
   8   2   3   18.10    8.40
  -8  -2  -3   19.30    8.70
  -8  -2  -3    8.20    7.10
   8  -2   3    9.60    8.40
   8   2   4   12.40    7.60
  -8  -2  -4   -5.70    8.10
   8  -2   4    4.50    8.20
   8   2   5   13.30    8.50
   8  -2   5   14.10    8.00
   8   2   6    6.70    8.50
   8  -2   6    6.50    8.30
   8   2   7   20.20    9.30
   8  -2   7   25.50    9.40
   8   2   8   13.40    9.10
   8  -2   8   -0.80    8.70
   8   2   9    4.50    9.10
   8  -2   9    2.30    9.20
   8  -2   9    6.20    9.10
  -8   3  13   26.10   12.90
  -8  -3  13    0.70   11.40
  -8   3  12   24.90   12.50
  -8  -3  12   21.20   11.60
  -8   3  11   61.99   12.80
  -8  -3  11   35.50   10.70
  -8   3  10   -5.30    9.00
  -8  -3  10   14.20    9.30
  -8   3   9   31.50   10.00
  -8  -3   9   12.20    8.60
  -8   3   8   58.19   10.00
  -8   3   8   69.39    8.30
  -8  -3   8   67.59    9.60
  -8   3   7   -1.70    7.30
  -8   3   7    2.00    4.50
  -8  -3   7    8.50    3.80
  -8  -3   7    5.90    6.80
  -8   3   6    3.20    4.80
  -8   3   6    2.30    6.60
  -8  -3   6   -4.80    5.60
  -8  -3   6   11.00    4.60
  -8   3   5   10.60    6.30
  -8   3   5    9.10    6.10
  -8   3   5   15.60    5.70
  -8  -3   5   17.90    5.40
  -8   3   4    7.90    5.20
  -8   3   4   -0.50    5.30
  -8  -3   4   -6.80    5.40
  -8  -3   4    2.00    4.90
  -8  -3   4    0.70    5.10
  -8   3   3   26.50    6.30
  -8   3   3   19.70    5.40
  -8   3   3   26.80    5.30
  -8  -3   3   28.30    6.10
  -8  -3   3   33.80    6.30
  -8  -3   3   38.90    6.80
  -8   3   2  101.69    9.40
  -8   3   2   82.99    7.60
  -8   3   2   90.09    7.20
  -8  -3   2   77.19    8.00
  -8  -3   2   80.29    8.30
  -8  -3   2   80.39    7.70
   8  -3  -2   90.29    9.80
   8   3  -1   23.50    7.30
  -8   3   1    2.80    5.60
  -8  -3   1   12.80    6.40
  -8  -3   1   17.80    6.10
   8  -3  -1   13.50    7.40
  -8  -3   1   14.10    5.30
   8   3   0   20.60    7.00
  -8   3   0   29.00    7.70
  -8  -3   0   25.80    6.70
   8  -3   0   26.00    8.10
  -8  -3   0   31.90    7.50
  -8  -3   0   29.90    5.50
  -8   3  -1   12.30    7.70
   8   3   1   23.40    7.30
   8  -3   1   12.60    7.90
  -8  -3  -1   27.40    8.20
  -8  -3  -1   19.40    7.80
  -8   3  -2   50.49    8.60
   8   3   2   51.39    8.70
   8  -3   2   69.39    9.70
  -8  -3  -2   54.19    9.00
  -8  -3  -2   44.80    9.10
   8   3   3   43.30    9.30
  -8   3  -3   71.19   10.50
  -8  -3  -3   64.49   10.00
  -8  -3  -3   49.90    9.30
   8  -3   3   47.00    9.50
   8   3   4   21.40    8.80
   8  -3   4   12.40    8.30
   8   3   5    2.60    7.70
   8  -3   5    8.30    8.20
   8   3   6   19.20    8.50
   8  -3   6   14.80    8.30
   8   3   7   -7.50    8.20
   8  -3   7    5.70    8.20
   8   3   8    1.30    8.80
   8  -3   8    5.40    8.90
   8  -3   8   18.40    9.40
   8   3   9   -1.50    8.90
   8  -3   9   18.90   10.00
  -8   4  13   14.10   13.20
  -8  -4  13   24.10   12.20
  -8   4  12    8.20   11.50
  -8  -4  12   32.30   12.10
  -8   4  11   13.50   10.90
  -8  -4  11   -4.10    9.20
  -8   4  10   20.50   10.70
  -8  -4  10   49.70   11.00
  -8   4   9    9.40    9.00
  -8  -4   9   -1.90    7.80
  -8   4   8   -3.20    8.10
  -8   4   8   -0.20    4.00
  -8  -4   8   -0.80    7.20
  -8   4   7   10.50    7.90
  -8   4   7   28.00    5.40
  -8  -4   7   27.70    4.30
  -8  -4   7   23.30    7.20
  -8   4   6    3.50    5.10
  -8   4   6   -3.80    6.50
  -8  -4   6    2.10    4.30
  -8  -4   6    5.30    9.10
  -8   4   5   17.30    6.30
  -8   4   5    9.10    5.60
  -8   4   5   24.40    6.80
  -8  -4   5   29.00    5.60
  -8   4   4    6.40    5.50
  -8   4   4   10.30    5.70
  -8  -4   4    7.00    6.00
  -8  -4   4    6.70    5.20
  -8  -4   4    4.40    5.30
  -8   4   3   36.10    7.00
  -8   4   3   30.90    6.00
  -8   4   3   28.90    5.30
  -8  -4   3   35.40    6.40
  -8  -4   3   28.50    6.80
  -8  -4   3   35.30    6.60
  -8   4   2   31.30    7.10
  -8   4   2   31.80    5.30
  -8  -4   2   32.00    6.60
   8  -4  -2   35.10    8.10
  -8  -4   2   35.00    6.30
  -8  -4   2   21.40    6.20
   8   4  -1  212.98   12.10
  -8   4   1  214.88   12.00
  -8  -4   1  226.08   12.60
   8  -4  -1  242.38   13.50
  -8  -4   1  217.18   11.00
  -8  -4   1  222.78   12.50
  -8   4   0  122.69   10.30
   8   4   0  102.99   10.10
  -8  -4   0  122.59   10.40
  -8  -4   0  113.29    8.40
   8  -4   0  126.59   11.30
  -8  -4   0  108.19   10.30
  -8   4  -1   13.90    6.90
   8   4   1   23.30    7.50
  -8  -4  -1   -0.10    7.00
   8  -4   1   19.20    8.10
  -8  -4  -1    0.50    7.20
  -8   4  -2   56.09    8.80
   8   4   2   58.39    9.80
   8   4   2   44.50    8.50
   8  -4   2   34.60    9.00
  -8  -4  -2   68.49    9.60
  -8  -4  -2   51.59    8.90
   8   4   3   67.09    9.40
   8   4   3   91.29   10.90
  -8   4  -3  101.09   11.20
  -8  -4  -3   78.89   11.20
   8  -4   3   72.39    9.80
  -8  -4  -3   94.79   10.90
   8   4   4   11.70    7.50
   8  -4   4   28.20    8.90
   8   4   5   -4.30    8.10
   8  -4   5   -4.80    8.20
   8   4   6    5.30    7.90
   8  -4   6    8.30    8.40
   8   4   7   -5.20    8.30
   8  -4   7    9.10    8.90
   8   4   8   -7.80    8.10
   8  -4   8    0.60    8.70
   8  -4   8   -2.60    8.40
   8   4   9   -1.10    8.90
   8  -4   9    7.30    9.50
  -8   5  13   -8.70   12.50
  -8  -5  13    1.90   11.00
  -8   5  12   16.10   12.70
  -8  -5  12   15.40   11.30
  -8   5  11   26.50   11.10
  -8  -5  11   -4.00    9.90
  -8   5  10   10.50   10.40
  -8  -5  10   -3.90    8.80
  -8   5   9   19.50    9.80
  -8  -5   9   28.20    9.10
  -8   5   8   -3.80    4.20
  -8   5   8    5.80    8.20
  -8  -5   8    8.90    7.40
  -8   5   7   52.49    9.30
  -8   5   7   47.10    6.10
  -8  -5   7   41.70    4.80
  -8  -5   7   36.10    8.10
  -8   5   6  118.19    8.90
  -8   5   6  129.09   10.50
  -8  -5   6  110.49    7.90
  -8   5   5    0.00    5.30
  -8  -5   5    8.40    5.00
  -8   5   4   46.00    6.90
  -8   5   4   52.19    7.20
  -8  -5   4   38.80    6.30
  -8  -5   4   47.10    7.50
  -8  -5   4   44.40    6.70
  -8   5   3  214.08   10.10
  -8   5   3  220.18   11.70
  -8   5   3  216.58   10.80
  -8  -5   3  223.28   12.00
  -8  -5   3  215.88   12.70
  -8  -5   3  257.57   11.70
  -8   5   2   14.60    6.50
  -8   5   2   13.50    4.80
  -8  -5   2   13.60    5.90
  -8  -5   2    9.60    6.00
  -8  -5   2   15.10    6.20
   8  -5  -2   18.60    6.10
   8  -5  -2   23.90    7.10
   8   5  -1  169.08   12.20
  -8   5   1  170.68   11.70
   8  -5  -1  173.38   12.50
  -8  -5   1  159.28   11.80
  -8  -5   1  171.38   10.80
  -8  -5   1  167.18   10.60
   8   5   0  356.86   15.90
  -8   5   0  357.56   15.10
  -8  -5   0  347.47   15.30
  -8  -5   0  359.06   16.10
   8  -5   0  359.56   15.40
  -8  -5   0  358.26   13.80
   8   5   1  152.38   11.90
   8   5   1  171.78   12.10
  -8   5  -1  185.88   13.50
  -8  -5  -1  160.38   11.60
  -8  -5  -1  140.99   11.30
   8  -5   1  177.78   12.40
  -8   5  -2   22.10    8.50
   8   5   2   26.50    8.80
   8   5   2   29.90    8.30
   8  -5   2    0.50    7.00
  -8  -5  -2   18.60    8.30
  -8  -5  -2   22.70    7.40
  -8   5  -3    4.60    7.90
   8   5   3   -0.50    7.70
   8   5   3   11.70    8.50
  -8  -5  -3    5.20    8.50
   8  -5   3    1.60    7.00
  -8  -5  -3    5.70    7.80
   8   5   4   20.30    8.70
   8  -5   4    3.90    8.10
   8   5   5    6.00    8.30
   8  -5   5   -2.60    8.10
   8   5   6    2.20    8.30
   8  -5   6   15.40    8.80
   8   5   7   -9.60    8.10
   8  -5   7   15.00    8.70
   8  -5   7  -12.30    8.20
   8   5   8   28.30    9.80
   8  -5   8   24.00   10.20
   8   5   9   -3.20    8.70
   8  -5   9  -14.60    8.70
  -8   6  13   -9.30   12.30
  -8  -6  13   38.00   13.00
  -8   6  12    6.10   11.90
  -8  -6  12   -5.40   10.80
  -8   6  11    0.70   11.10
  -8  -6  11   -0.70    9.90
  -8   6  10   10.30   10.50
  -8  -6  10   18.60    9.50
  -8   6   9   -2.00    9.00
  -8  -6   9   19.20    8.70
  -8   6   8   27.60    5.30
  -8   6   8   17.40    8.90
  -8  -6   8   20.30    8.10
  -8   6   7   90.49   10.50
  -8   6   7  118.99    8.30
  -8  -6   7  113.79    6.70
  -8  -6   7  112.99   10.50
  -8   6   6    3.40    5.20
  -8   6   6    0.20    6.40
  -8  -6   6    5.20    4.40
  -8   6   5   23.20    6.10
  -8  -6   5   19.80    5.40
  -8   6   4    1.90    5.60
  -8  -6   4   -3.90    5.40
  -8  -6   4    4.20    5.20
  -8   6   3    7.00    6.00
  -8  -6   3    1.40    5.60
  -8  -6   3    0.70    5.60
  -8  -6   3   10.20    6.00
  -8   6   2  361.36   14.80
  -8  -6   2  378.86   15.30
   8  -6  -2  364.46   15.10
  -8  -6   2  372.86   14.60
  -8  -6   2  373.56   14.60
   8  -6  -2  378.26   15.10
  -8   6   1   35.30    7.70
   8   6  -1   36.30    8.00
  -8  -6   1   29.00    6.40
   8  -6  -1   25.00    8.40
  -8  -6   1   24.90    6.90
  -8  -6   1   24.90    6.30
  -8   6   0   62.69    9.10
   8   6   0   65.29    9.30
   8  -6   0   60.19    8.90
  -8  -6   0   63.69    8.10
  -8  -6   0   62.39    9.30
   8   6   1  281.57   15.20
   8   6   1  297.67   15.50
  -8   6  -1  290.27   14.30
  -8  -6  -1  276.37   14.60
  -8  -6  -1  289.47   15.10
   8  -6   1  289.17   15.60
   8   6   2   -6.70    7.00
   8   6   2  -10.80    6.30
  -8   6  -2    0.90    7.30
  -8  -6  -2   13.10    8.20
   8  -6   2   -6.20    7.80
  -8  -6  -2    5.20    7.10
   8   6   3   43.00    9.90
   8   6   3   67.49   10.70
  -8   6  -3   48.70    9.80
  -8  -6  -3   38.30    9.10
   8  -6   3   30.50    9.20
  -8  -6  -3   55.49    9.50
   8   6   4   12.40    8.80
   8  -6   4   11.00    8.70
   8   6   5   15.00    8.90
   8  -6   5   27.10    9.10
   8  -6   5  -12.00    7.30
   8   6   6   11.10    8.20
   8  -6   6    7.60    8.70
   8  -6   6    2.50    8.50
   8   6   7    0.80    8.50
   8  -6   7    4.50    8.80
   8   6   8   -1.40    8.90
   8  -6   8   -3.70    8.80
   8   6   9    5.00    9.20
   8  -6   9    9.00    9.70
  -8   7  12    1.90   11.80
  -8  -7  12   -0.10   10.90
  -8   7  11    2.90   11.20
  -8  -7  11    4.40   10.20
  -8   7  10   13.20   10.80
  -8  -7  10   -6.00    8.70
  -8   7   9   -4.10    9.20
  -8  -7   9   11.10    8.40
  -8   7   8    3.10    4.70
  -8   7   8    4.30    8.20
  -8  -7   8    5.40    7.60
  -8   7   7   61.29    9.80
  -8   7   7   84.19    7.60
  -8  -7   7   69.19    9.50
  -8  -7   7   75.09    5.50
  -8   7   6   90.69    8.10
  -8  -7   6  100.39    7.30
  -8   7   5    0.50    5.50
  -8  -7   5    1.40    5.80
  -8  -7   5    2.00    4.80
  -8   7   4   58.19    7.80
  -8  -7   4   54.29    6.90
  -8  -7   4   63.59    7.70
  -8   7   3  257.57   12.90
  -8  -7   3  286.27   13.30
  -8  -7   3  262.47   13.20
  -8  -7   3  268.97   12.30
  -8   7   2  176.28   11.00
  -8  -7   2  177.08   12.20
  -8  -7   2  176.48   11.70
   8  -7  -2  190.48   12.10
  -8  -7   2  200.38   11.40
  -8   7   1   36.50    7.00
   8   7  -1   28.90    8.00
   8  -7  -1   33.90    8.60
  -8  -7   1   19.60    6.30
  -8  -7   1   31.50    7.50
   8  -7  -1   30.30    8.40
  -8  -7   1   29.30    6.90
   8   7   0   15.80    6.90
  -8   7   0   13.80    6.50
   8   7   0   17.80    7.30
  -8  -7   0   15.10    7.20
   8  -7   0    9.10    8.00
   8  -7   0   18.60    8.20
  -8  -7   0    6.00    7.30
   8   7   1   -3.20    6.60
  -8   7  -1    1.10    6.90
   8   7   1    2.70    7.00
  -8  -7  -1    6.10    6.30
  -8  -7  -1    3.60    7.30
   8  -7   1   -2.30    6.60
   8  -7   1   -2.40    6.80
   8   7   2    4.10    8.00
  -8   7  -2    5.20    6.50
   8   7   2    0.40    7.20
  -8  -7  -2    6.50    8.40
  -8  -7  -2    7.00    7.50
   8  -7   2   12.50    8.50
   8   7   3   12.00    8.60
   8   7   3    2.50    7.30
   8  -7   3   -7.80    8.10
  -8  -7  -3    3.10    8.40
   8  -7   3    7.90    8.50
  -8  -7  -3   13.20    8.10
   8   7   4   -8.20    8.30
   8  -7   4    7.10    8.00
   8  -7   4   18.30    8.70
   8   7   5   19.00    9.20
   8  -7   5    1.80    7.70
   8  -7   5    6.10    7.90
   8   7   6   12.10    8.10
   8  -7   6    3.40    8.40
   8   7   7   18.90    9.40
   8  -7   7    2.80    8.90
   8   7   8  -20.10    7.90
   8  -7   8   -8.90    8.90
   8   7   9   -7.60    8.80
   8  -7   9    0.80    9.10
  -8   8  12    3.70   12.90
  -8  -8  12   -6.80   10.80
  -8   8  11    0.80   11.30
  -8  -8  11    4.20   10.10
  -8   8  10   13.60   10.80
  -8  -8  10   19.80    9.40
  -8   8   9   15.80   10.20
  -8  -8   9   13.10    9.00
  -8   8   8    8.60    5.20
  -8   8   8   -0.30    8.50
  -8  -8   8    1.20    7.70
  -8   8   7   24.50    5.90
  -8  -8   7   20.60    4.50
  -8  -8   7   23.40    7.90
  -8   8   6   19.40    6.10
  -8  -8   6   26.60    5.30
  -8   8   5  152.08   10.40
  -8  -8   5  148.79    9.30
  -8  -8   5  162.68   11.10
  -8   8   4    4.70    6.00
  -8  -8   4    1.20    5.20
  -8  -8   4   -4.80    5.90
  -8   8   3    5.80    6.40
  -8  -8   3    6.80    7.00
  -8  -8   3   15.80    6.70
  -8  -8   3    9.90    5.40
  -8   8   2    8.60    6.80
  -8  -8   2   11.00    6.10
  -8  -8   2   14.60    6.80
  -8  -8   2   17.10    6.40
   8  -8  -2   15.60    7.70
  -8   8   1  245.78   13.40
   8   8  -1  219.48   13.50
   8   8  -1  226.98   12.40
  -8  -8   1  261.77   13.50
  -8  -8   1  212.28   13.00
   8  -8  -1  231.18   13.30
  -8  -8   1  235.28   13.90
   8   8   0   11.20    6.70
  -8   8   0   -3.60    6.50
   8   8   0   12.50    8.00
  -8  -8   0    4.90    7.20
   8  -8   0    8.20    7.10
  -8  -8   0   12.60    7.10
   8   8   1  -10.80    7.50
  -8   8  -1   -0.70    7.20
   8   8   1   -8.40    6.90
   8  -8   1   -0.60    7.70
  -8  -8  -1   -5.80    6.50
  -8  -8  -1   -7.80    6.60
   8  -8   1   -4.10    7.60
   8   8   2   28.70    9.10
   8   8   2   27.40    8.80
  -8   8  -2   15.20    7.20
   8  -8   2   26.70    8.20
  -8  -8  -2   33.90    8.80
   8  -8   2   25.40    8.10
  -8  -8  -2   26.20    9.20
   8   8   3    3.80    8.00
   8   8   3   15.20    8.80
   8  -8   3   12.70    8.70
   8  -8   3    5.50    8.50
  -8  -8  -3   31.70    9.70
  -8  -8  -3    3.90    8.00
   8   8   4   11.70    8.70
   8  -8   4   13.80    8.50
   8   8   5    1.50    8.80
   8  -8   5   12.60    8.40
   8   8   6    8.70    8.70
   8  -8   6   -6.70    8.30
   8   8   7    4.50    8.60
   8  -8   7   -3.90    9.10
   8   8   8    8.50    9.20
   8  -8   8  -11.60    8.70
   8   8   9   11.90    9.70
   8  -8   9   -3.10    9.00
  -8   9  12   -9.90   11.80
  -8  -9  12    9.40   11.40
  -8   9  11   -6.40   11.70
  -8  -9  11   -1.10   10.20
  -8   9  10    2.00    9.30
  -8  -9  10    7.20    9.60
  -8   9   9    4.60    9.60
  -8  -9   9    0.60    8.30
  -8   9   8    1.60    5.20
  -8   9   8    3.40    8.50
  -8  -9   8   -5.50    7.30
  -8   9   7   10.20    5.90
  -8  -9   7   19.10   13.30
  -8  -9   7   16.50    4.40
  -8   9   6    9.60    6.10
  -8  -9   6   24.20    5.30
  -8   9   5    3.70    5.80
  -8  -9   5   -7.00    5.70
  -8  -9   5   -0.20    5.00
  -8   9   4   86.79    9.10
  -8  -9   4   88.69    8.20
  -8  -9   4   90.29    9.30
  -8   9   3  151.58   11.50
  -8  -9   3  172.38   12.70
  -8  -9   3  148.59   11.10
  -8   9   2  133.59   10.50
   8  -9  -2  138.69   11.60
  -8  -9   2  153.08   11.10
  -8  -9   2  140.29   10.80
  -8  -9   2  124.39   10.80
  -8   9   1  108.29    9.90
   8   9  -1   89.99    9.50
   8   9  -1  103.19    9.10
  -8  -9   1   89.19    9.60
   8  -9  -1  109.89   11.10
  -8  -9   1  107.79   10.10
   8   9   0   56.29    8.50
   8   9   0   31.80    8.10
  -8   9   0   70.89    9.50
  -8  -9   0   73.29    9.50
  -8  -9   0   59.59    9.70
   8  -9   0   47.90    9.60
  -8   9  -1   23.20    7.30
   8   9   1   27.40    8.90
   8   9   1    9.60    7.70
  -8  -9  -1   12.70    7.50
  -8  -9  -1   14.70    7.40
   8  -9   1   27.40    8.30
  -8   9  -2   12.90    7.60
   8   9   2   10.30    8.00
   8   9   2    9.00    8.50
  -8  -9  -2    6.80    7.20
  -8  -9  -2   20.80    9.20
   8  -9   2   17.90    8.60
   8   9   3    0.80    8.00
   8   9   3   -5.20    8.00
  -8  -9  -3    6.70    7.80
   8  -9   3    3.90    8.30
  -8  -9  -3   -6.70    6.80
   8   9   4   11.50    7.70
   8  -9   4   -4.70    7.90
   8   9   5   -7.60    7.50
   8  -9   5    3.70    8.50
   8   9   6   11.00    8.30
   8  -9   6   -6.30    8.50
   8   9   7  -13.40    7.80
   8  -9   7   -5.30    8.40
   8   9   8   -0.50    8.80
   8  -9   8   20.90   10.20
  -8  10  12  -12.60   12.20
  -8 -10  12    1.10   10.60
  -8  10  11   -6.20   11.00
  -8 -10  11   10.50   11.10
  -8  10  10   12.50   10.90
  -8 -10  10   16.20   10.20
  -8  10   9    2.00    5.10
  -8  10   9    1.30    9.70
  -8 -10   9    7.00    9.00
  -8  10   8   11.20    5.80
  -8 -10   8   18.40    8.80
  -8  10   7    1.10    5.80
  -8 -10   7   10.40    4.20
  -8  10   6   91.59    8.80
  -8 -10   6   82.99    7.30
  -8  10   5  218.98   12.00
  -8 -10   5  218.08   13.20
  -8 -10   5  212.38   10.80
  -8  10   4   73.59    8.60
  -8 -10   4   72.19    9.00
  -8 -10   4   76.29    8.00
  -8  10   3    9.30    6.90
  -8 -10   3   18.00    7.30
  -8 -10   3   14.20    6.30
  -8  10   2   60.59    8.20
   8 -10  -2   43.30    9.10
  -8 -10   2   42.20    7.40
  -8 -10   2   59.39    8.90
  -8  10   1   55.39    8.80
   8  10  -1   45.00    8.70
   8  10  -1   51.79    7.60
  -8 -10   1   41.40    8.30
  -8 -10   1   28.80    8.50
   8 -10  -1   22.70    7.80
   8  10   0  142.09   11.50
   8  10   0  136.99   11.50
  -8  10   0  141.69   11.30
  -8 -10   0  152.08   12.40
  -8 -10   0  154.98   12.30
   8 -10   0  139.69   11.90
   8  10   1   71.59   10.70
  -8  10  -1   58.89    8.70
   8  10   1   58.29    9.60
   8 -10   1   67.49    9.50
  -8 -10  -1   71.39   11.00
  -8 -10  -1   46.70    8.30
   8  10   2   27.80    8.50
  -8  10  -2   26.30    8.50
   8  10   2   20.40    8.60
   8 -10   2   21.20    8.90
  -8 -10  -2   23.90    8.50
  -8 -10  -2   24.70    9.20
   8  10   3   41.10   10.10
  -8 -10  -3   38.20    9.40
   8 -10   3   68.19   10.80
   8  10   4    4.00    8.60
   8 -10   4  -13.70    6.90
   8  10   5   13.20    9.00
   8 -10   5   -1.20    8.70
   8  10   6    6.30    9.40
   8 -10   6    9.60    9.20
   8  10   7   15.80    9.20
   8 -10   7   -8.00    8.80
   8  10   8  -14.10    8.30
   8 -10   8   -9.40    8.70
  -8  11  12  -12.30   11.40
  -8 -11  12   -3.30   11.40
  -8  11  11   -5.70   10.90
  -8 -11  11  -15.50    9.50
  -8  11  10   -9.00   10.40
  -8 -11  10   11.50    9.60
  -8  11   9   11.90    5.70
  -8 -11   9    0.40    8.50
  -8  11   8   -5.60    5.70
  -8 -11   8   13.00    7.80
  -8  11   7   21.30    6.50
  -8 -11   7   16.70    4.60
  -8  11   6    3.60    6.30
  -8 -11   6   -2.00    4.60
  -8  11   5   29.70    7.30
  -8 -11   5   21.40    7.30
  -8 -11   5   34.30    6.20
  -8  11   4    5.50    6.50
  -8 -11   4    7.10    7.10
  -8 -11   4   10.90    6.30
  -8  11   3  142.99   11.50
  -8 -11   3  135.99   10.40
  -8 -11   3  125.89   11.00
  -8  11   2   23.40    7.10
   8 -11  -2   22.90    7.50
  -8 -11   2   44.10    8.80
  -8 -11   2   15.60    6.90
   8  11  -1  184.78   12.40
   8  11  -1  174.58   14.80
  -8  11   1  176.88   12.70
   8 -11  -1  189.28   13.90
  -8 -11   1  175.08   12.70
  -8 -11   1  157.18   12.60
   8  11   0   29.90    7.60
  -8  11   0   15.30    7.00
   8  11   0   27.70    8.50
  -8 -11   0   28.90    7.60
   8 -11   0   22.00    8.70
  -8 -11   0   21.50    8.60
   8  11   1   15.50    7.50
  -8  11  -1    8.70    6.90
   8  11   1   16.30    7.70
   8 -11   1   18.50    8.70
  -8 -11  -1   13.70    8.00
  -8 -11  -1   23.20    9.20
   8  11   2   71.19   10.80
   8  11   2   55.99    9.80
  -8  11  -2   39.30    9.40
  -8 -11  -2   67.69   11.20
   8 -11   2   56.29   10.50
  -8 -11  -2   52.99    9.10
   8  11   3    5.00    8.70
   8 -11   3  -11.60    8.30
  -8 -11  -3   -4.40    7.50
   8  11   4  -14.90    6.90
   8 -11   4   13.60    8.80
   8  11   5    7.00    9.20
   8 -11   5   -1.70    8.20
   8  11   6   -2.00    9.00
   8 -11   6  -10.30    8.40
   8  11   7   -7.20    8.30
   8 -11   7    4.70    9.00
   8  11   8    5.80    9.20
   8 -11   8    2.30    9.20
  -8 -12  12  -13.30   10.80
  -8 -12  11    4.50   11.00
  -8 -12  10    5.90    9.30
  -8  12   9    9.70    5.60
  -8 -12   9   12.00    8.70
  -8  12   8    3.90    6.20
  -8 -12   8   27.80    8.70
  -8  12   7   52.79    7.90
  -8 -12   7   68.49    6.20
  -8  12   6   18.60    7.00
  -8 -12   6   34.90    5.90
  -8  12   5  181.28   12.40
  -8 -12   5  168.98   13.20
  -8 -12   5  184.88   10.70
  -8  12   4   99.49   10.00
  -8 -12   4  121.19    9.70
  -8 -12   4  105.69   10.70
  -8  12   3    9.50    7.30
  -8 -12   3   17.20    7.70
  -8 -12   3   10.50    6.40
  -8  12   2    1.40    6.20
   8 -12  -2    8.20    7.20
  -8 -12   2   -2.10    7.10
  -8 -12   2   12.80    6.90
  -8  12   1  200.08   13.90
   8  12  -1  231.48   15.00
   8 -12  -1  221.98   14.80
  -8 -12   1  234.78   15.60
  -8 -12   1  227.38   13.70
   8  12   0   62.79    8.90
   8  12   0   57.99    9.10
  -8  12   0   49.60    8.60
  -8 -12   0   58.69    9.40
   8 -12   0   55.99   10.10
  -8 -12   0   42.90    9.80
  -8  12  -1   60.59    9.20
   8  12   1   51.09   10.20
   8  12   1   64.29    9.60
  -8 -12  -1   59.89    8.90
  -8 -12  -1   67.59   10.70
   8 -12   1   66.69   10.80
   8  12   2  -10.30    7.30
  -8  12  -2   -8.40    7.10
   8  12   2    4.10    7.50
  -8 -12  -2   12.40    8.00
  -8 -12  -2    5.10    8.00
   8 -12   2    4.00    8.60
   8  12   3   19.10    8.60
  -8 -12  -3   21.60    8.10
   8 -12   3   21.00    9.60
   8  12   4    1.10    7.90
   8 -12   4    1.10    8.40
   8  12   5  -13.00    8.40
   8 -12   5    3.70    8.60
   8  12   6   -1.70    8.70
   8 -12   6    3.90    8.70
   8  12   7    4.10    8.90
   8 -12   7   18.00    9.80
   8  12   8  -15.60    8.70
   8 -12   8   -8.60    8.80
  -8 -13  12    5.90   11.80
  -8 -13  11    4.30   11.00
  -8 -13  10   21.60   10.60
  -8  13   9    4.50    6.00
  -8 -13   9   -2.90    8.60
  -8  13   8    2.30    6.20
  -8  13   7   15.10    6.80
  -8 -13   7    4.00    4.60
  -8  13   6    7.90    6.90
  -8 -13   6   12.90    5.20
  -8  13   5   12.70    6.90
  -8 -13   5    9.80    5.90
  -8 -13   5   10.20    7.10
  -8  13   4   24.00    7.90
  -8 -13   4   22.20    7.90
  -8 -13   4   15.80    6.60
  -8  13   3   23.30    7.50
  -8 -13   3   24.00    7.00
  -8 -13   3   14.30    7.70
  -8  13   2   16.40    7.70
   8 -13  -2    7.60    7.50
  -8 -13   2    6.20    6.40
  -8 -13   2    1.40    7.70
  -8  13   1  166.38   12.20
  -8 -13   1  176.68   13.20
   8 -13  -1  177.38   13.80
  -8 -13   1  166.88   13.50
   8  13   0   49.10    8.70
   8  13   0   46.50    9.40
  -8  13   0   44.80    9.00
  -8 -13   0   53.99   10.40
  -8 -13   0   32.50    7.90
   8 -13   0   47.50    9.60
   8 -13   0   30.50    9.00
   8  13   1   -1.80    7.50
  -8  13  -1    3.70    7.60
   8  13   1    1.80    7.80
  -8 -13  -1   -3.30    8.30
   8 -13   1  -24.30    6.20
  -8 -13  -1   -4.40    6.40
   8 -13   1    5.00    8.40
   8  13   2    7.20    8.50
   8  13   2    2.80    7.60
  -8  13  -2   16.50    7.50
  -8 -13  -2   12.60    8.30
   8 -13   2   12.00    8.60
   8  13   3   16.50    8.40
   8 -13   3    0.00    8.40
  -8 -13  -3   14.60    8.70
   8  13   4   12.10    8.10
   8 -13   4    7.50    8.90
   8  13   5    5.20    9.30
   8 -13   5   -3.00    8.60
   8  13   6   12.50    9.50
   8 -13   6    8.70    9.20
   8  13   7   -8.10    8.50
   8 -13   7    9.60    9.70
   8  13   8    9.30    9.60
   8 -13   8   11.90    9.40
  -8 -14  12   -6.50   10.50
  -8 -14  11   -8.80   10.20
  -8 -14  10    2.70    9.70
  -8  14   9    0.90    6.20
  -8 -14   9    7.10    9.00
  -8  14   8   28.90    7.40
  -8  14   7    7.00    6.90
  -8 -14   7   12.70    5.00
  -8  14   6   22.40    7.20
  -8 -14   6   18.40    5.60
  -8  14   5   -7.10    6.40
  -8 -14   5    5.40    5.80
  -8 -14   5    8.30    7.20
  -8  14   4   19.50    7.60
  -8 -14   4   12.90    8.00
  -8 -14   4   25.90    7.00
  -8  14   3   14.60    7.60
  -8 -14   3   17.90    7.00
  -8 -14   3   27.60    8.30
  -8  14   2   65.49    9.70
  -8 -14   2   72.59   10.10
  -8 -14   2   95.79   10.20
   8 -14  -2   75.29    9.90
  -8  14   1   64.89    9.80
  -8 -14   1   48.10    9.40
  -8 -14   1   77.09   10.80
   8 -14  -1   68.89   10.90
   8 -14  -1   74.79   10.00
   8  14   0   -2.40    7.70
   8  14   0   -7.40    6.40
  -8  14   0    8.80    7.90
  -8 -14   0   -1.70    6.50
   8 -14   0   -8.20    8.00
  -8 -14   0    1.30    7.60
   8 -14   0   -7.20    7.10
   8  14   1    9.50    8.60
   8  14   1    8.20    8.10
  -8  14  -1   20.80    9.00
  -8 -14  -1   27.00   10.00
   8 -14   1   23.90    9.60
  -8 -14  -1    4.80    7.20
   8 -14   1    9.80    7.90
   8  14   2   48.60    9.30
  -8  14  -2   74.29   11.00
   8  14   2   36.20    9.50
   8 -14   2   73.39   11.90
   8 -14   2   66.69   10.20
  -8 -14  -2   59.49    9.70
   8  14   3  -17.90    7.70
   8 -14   3   -4.90    7.90
  -8 -14  -3   21.00    8.90
   8  14   4   -4.60    8.70
   8 -14   4    0.90    8.30
   8  14   5   -1.40    8.90
   8 -14   5   -5.50    8.20
   8  14   6  -12.30    8.60
   8 -14   6   -9.60    8.60
   8  14   7    5.70    9.70
   8 -14   7    0.80    8.90
   8  14   8   -5.60    9.60
   8 -14   8   12.00    9.80
  -8 -15  11    1.00   10.80
  -8 -15  10    5.90   10.20
  -8  15   9   -4.70    6.40
  -8  15   8   -3.00    6.30
  -8  15   7   29.90    8.00
  -8 -15   7   22.40    5.50
  -8  15   6   10.50    7.20
  -8 -15   6   30.80    6.50
  -8  15   5    6.20    7.20
  -8 -15   5   -1.40    7.30
  -8 -15   5   -7.70    5.70
  -8  15   4   16.70    8.00
  -8 -15   4   15.60    6.90
  -8 -15   4    1.70    7.50
  -8  15   3   11.50    7.80
  -8 -15   3    1.40    7.70
  -8 -15   3  -10.70    6.20
  -8  15   2    8.40    7.80
  -8 -15   2    1.40    7.80
   8 -15  -2   17.70    8.80
  -8 -15   2    6.10    7.30
  -8  15   1    6.80    7.70
   8 -15  -1   11.40    8.10
   8 -15  -1   20.90    8.20
  -8 -15   1   15.20    8.70
  -8 -15   1    8.90    7.50
   8  15   0    8.90    8.40
  -8  15   0   10.50    7.30
   8  15   0   10.80    7.80
  -8 -15   0    7.50    8.00
   8 -15   0   28.50    9.30
  -8 -15   0    7.30    8.00
   8 -15   0   18.20    9.10
  -8  15  -1   59.89    9.20
   8  15   1   78.89   11.40
   8  15   1   64.69   10.00
   8 -15   1   49.10   10.70
   8 -15   1   58.59   11.00
  -8 -15  -1   69.19   10.80
  -8  15  -2   -2.20    7.90
   8  15   2   14.90    8.60
   8  15   2   -5.80    8.80
   8 -15   2   -2.10   11.00
  -8 -15  -2   11.40    8.80
   8 -15   2   11.60    9.40
   8  15   3   -7.10    8.50
  -8 -15  -3   -8.20    6.80
   8 -15   3    8.40    9.20
   8  15   4  -11.70    8.90
   8 -15   4    9.00    9.50
   8  15   5   13.40    9.20
   8 -15   5   15.70    9.30
   8  15   6   -4.20    9.20
   8 -15   6  -20.80    8.40
   8  15   7  -17.80    8.40
   8 -15   7   -3.20    9.60
   8  15   8   -7.00    9.70
   8 -15   8    2.90    9.40
  -8 -16  11  -10.60   10.00
  -8  16  10   12.20    6.60
  -8 -16  10    1.30    9.60
  -8  16   9   -6.10    6.40
  -8  16   8   -3.40    6.90
  -8  16   7   22.70    7.80
  -8 -16   7   15.90    5.40
  -8  16   6   -0.30    7.00
  -8 -16   6   -6.10    5.40
  -8 -16   6   -5.10    8.90
  -8  16   5   31.70    8.00
  -8 -16   5   39.60    9.10
  -8 -16   5   24.50    6.90
  -8  16   4    3.10    7.50
  -8 -16   4   13.00    8.30
  -8 -16   4    8.30    6.80
  -8  16   3   -8.00    7.30
  -8 -16   3   -6.30    6.30
  -8 -16   3   -2.50    8.10
  -8  16   2   14.80    7.50
  -8 -16   2   11.80    7.80
   8 -16  -2    3.80    7.20
  -8 -16   2   11.90    8.70
  -8  16   1   12.10    8.40
   8 -16  -1   16.60   12.60
   8 -16  -1   19.20    9.30
  -8 -16   1   20.00    8.20
  -8 -16   1   19.00    9.30
  -8  16   0  -11.70    7.30
   8  16   0   -3.60    7.10
  -8 -16   0    3.40    7.80
  -8 -16   0    9.80    9.00
   8 -16   0   10.80    9.00
   8 -16   0   -2.20    8.60
  -8  16  -1   21.60    8.70
   8  16   1   22.30    8.50
   8  16   1   25.10    8.40
  -8 -16  -1   30.80    8.70
   8 -16   1   35.20    9.90
   8 -16   1   27.80   10.30
   8  16   2   21.90    9.10
  -8  16  -2   29.40   10.70
   8 -16   2   36.20    9.20
  -8 -16  -2   16.80    8.10
   8  16   3  -14.40    8.00
   8 -16   3    0.40    7.70
  -8 -16  -3   -0.70    8.50
   8  16   4    3.10    8.90
   8 -16   4   14.00    8.90
   8  16   5   -0.30    9.50
   8 -16   5   11.50    9.30
   8  16   6   15.10    9.90
   8 -16   6   -0.30    9.60
   8  16   7    6.50   10.00
   8 -16   7   10.50    9.60
  -8 -17  11    6.20   10.70
  -8  17  10    3.50    6.40
  -8  17   9   -5.20    6.80
  -8  17   8   11.20    7.20
  -8  17   7   18.20    7.90
  -8 -17   7   21.50    5.90
  -8  17   6  108.39   11.20
  -8 -17   6  111.69    9.50
  -8 -17   6  104.89   12.00
  -8  17   5    2.40    7.20
  -8 -17   5   10.30    8.20
  -8 -17   5   19.60    6.70
  -8  17   4   -2.50    7.00
  -8 -17   4    5.40    8.30
  -8 -17   4   13.70    6.80
  -8  17   3   16.40    8.40
  -8 -17   3   -6.70    6.70
  -8 -17   3    9.10    8.80
  -8  17   2    2.60    6.70
  -8 -17   2   -5.00    6.50
  -8 -17   2    5.30    8.30
   8 -17  -2    8.20    8.40
  -8  17   1   21.00    8.00
   8 -17  -1   18.80    8.30
  -8 -17   1   34.20   10.70
  -8 -17   1    3.70    6.60
   8  17   0   79.39   13.40
  -8  17   0   59.39    9.70
   8 -17   0   40.30    9.90
   8 -17   0   39.40    9.40
  -8 -17   0   71.39   10.60
  -8  17  -1    4.20    7.20
   8  17   1    5.80    8.20
   8  17   1    0.00    8.80
   8 -17   1    4.90    9.00
   8 -17   1   -9.90    8.80
  -8 -17  -1   20.40    8.90
   8  17   2    6.00    9.20
  -8 -17  -2   30.90    9.80
   8 -17   2   15.10    9.60
   8  17   3   -1.40    7.70
   8 -17   3   -1.10    9.20
  -8 -17  -3   -8.20    8.60
   8  17   4   13.70    8.80
   8 -17   4  -10.70    8.40
   8  17   5    4.70    9.70
   8 -17   5   -2.20    8.70
   8  17   6    0.60    9.70
   8 -17   6    1.70    9.00
   8  17   7   -2.10    9.30
   8 -17   7   -2.00    9.30
  -8 -18  11   -4.00   10.70
  -8  18  10    2.70    6.80
  -8  18   9   13.80    7.90
  -8  18   8   26.90    8.10
  -8  18   7  -11.70    7.10
  -8 -18   7    4.20    5.40
  -8  18   6   -2.00    7.20
  -8 -18   6   -3.10   13.10
  -8 -18   6   -6.70    5.50
  -8  18   5    2.30    7.40
  -8 -18   5    6.80    8.10
  -8 -18   5    8.00    6.60
  -8  18   4   53.29    9.80
  -8 -18   4   58.09   10.20
  -8 -18   4   51.19    8.70
  -8  18   3   -9.30    7.70
  -8 -18   3    8.50    7.10
  -8 -18   3   19.60    9.10
  -8  18   2   30.50    8.40
  -8 -18   2   32.20    8.50
   8 -18  -2   31.70    9.80
  -8  18   1    8.60    7.40
   8 -18  -1    7.70    8.70
  -8 -18   1  -11.60    7.00
  -8  18   0   34.60    8.80
   8 -18   0   25.40    8.80
  -8 -18   0   39.50    9.30
   8 -18   0   26.00    9.40
   8  18   1    8.60    9.30
  -8  18  -1   14.10    8.40
   8  18   1   -1.80   12.60
   8 -18   1    9.20    8.10
   8 -18   1    7.70   10.10
  -8 -18  -1    2.50    8.50
   8  18   2    0.50    8.90
   8 -18   2    6.80    9.10
  -8 -18  -2    0.90    8.50
   8  18   3   35.30   10.30
  -8 -18  -3   14.40    9.80
   8 -18   3   22.70   10.20
   8  18   4   25.50    9.80
   8 -18   4   16.60    9.70
   8  18   5    6.90   10.10
   8 -18   5   12.20    8.90
   8  18   6  -12.10    9.40
   8 -18   6    2.50    9.10
   8  18   7   25.90   10.80
   8 -18   7    6.90    9.10
  -8  19  10    7.40    7.30
  -8  19   9   18.70    7.90
  -8  19   8    4.70    7.40
  -8  19   7   24.70    8.80
  -8 -19   7   22.40    6.20
  -8  19   6   -0.30    7.40
  -8 -19   6   -4.20    6.00
  -8  19   5   19.60    8.70
  -8 -19   5   30.70    7.70
  -8  19   4   17.70    8.20
  -8 -19   4   10.80    7.10
  -8  19   3   -0.70    7.10
  -8 -19   3   -6.70    6.80
  -8  19   2    7.60    7.50
  -8 -19   2   11.20    7.80
   8 -19  -2   13.90    9.30
  -8  19   1    5.90    7.60
   8 -19  -1   -8.00    8.20
  -8 -19   1   13.80    8.20
  -8  19   0    4.40    8.20
   8 -19   0   18.10    9.20
  -8 -19   0    2.50    8.20
   8 -19   0    4.90    8.50
  -8  19  -1    0.10    8.40
   8  19   1   -9.30    8.70
   8 -19   1   -6.30    8.50
  -8 -19  -1   11.70    8.60
   8  19   2   19.70   10.20
   8 -19   2   13.90    8.90
  -8 -19  -2   14.30    9.10
   8  19   3   14.60    9.60
   8 -19   3   -8.50    8.10
  -8 -19  -3   19.30    9.70
   8  19   4   17.00   10.10
   8 -19   4  -22.30    7.90
   8  19   5   -6.40    9.60
   8 -19   5    2.00    9.10
   8  19   6   11.00   10.60
   8 -19   6    5.10    8.80
   8  19   7   -3.40    9.60
   8 -19   7    0.60    8.90
  -8  20  10    5.10    7.30
  -8  20   9   -5.40    7.10
  -8  20   8  -10.00    7.40
  -8  20   7   -6.00    7.70
  -8 -20   7   -3.50    5.60
  -8  20   6   -6.50    7.60
  -8 -20   6   15.10    6.80
  -8  20   5   -9.50    7.70
  -8 -20   5  -11.00    6.40
  -8  20   4    2.10    8.20
  -8 -20   4   18.50    7.80
  -8  20   3   13.40    9.10
  -8 -20   3   -7.70    6.50
  -8  20   2   23.50    9.50
  -8 -20   2    2.70    7.60
   8 -20  -2  -10.90    8.70
  -8  20   1   11.00    8.20
  -8 -20   1    9.80    7.90
   8 -20  -1   24.80    9.90
  -8  20   0   -2.40    7.80
  -8 -20   0   -1.90    8.70
   8 -20   0    1.20   13.00
   8 -20   0   10.20    9.70
  -8  20  -1    2.10    8.60
   8  20   1   -6.10    8.70
  -8 -20  -1   -1.80    7.30
   8 -20   1   13.10    9.30
   8  20   2    1.80    9.50
   8 -20   2   12.50    9.30
  -8 -20  -2   -1.40    7.60
   8  20   3   10.90    8.80
  -8 -20  -3    3.00    8.10
   8 -20   3   18.50    8.60
   8  20   4    5.70    9.00
   8 -20   4   21.30    9.90
   8  20   5    4.60   10.00
   8 -20   5   32.20   10.50
   8  20   6    8.90   10.70
   8 -20   6   -1.60    9.30
  -8  21  10    9.80    7.80
  -8  21   9    8.40    8.30
  -8  21   8    3.40    8.10
  -8  21   7    2.10    8.20
  -8 -21   7    3.10    5.80
  -8  21   6   27.90    9.50
  -8 -21   6   24.50    7.50
  -8  21   5    2.40    8.30
  -8 -21   5   -2.20    6.70
  -8  21   4   -0.30    8.10
  -8 -21   4    3.10    7.40
  -8  21   3   12.00    7.90
  -8 -21   3   -3.60    7.10
  -8  21   2   27.20    9.70
   8 -21  -2   -1.90   10.50
  -8 -21   2   -1.40    7.90
  -8  21   1    4.90    8.60
  -8 -21   1    6.10    8.30
   8 -21  -1  -10.40    9.20
  -8  21   0   11.70    8.50
  -8 -21   0   20.60    9.00
   8 -21   0    3.30    9.10
  -8  21  -1   11.60    8.90
   8  21   1   12.10    8.90
  -8 -21  -1  -16.20    8.00
   8 -21   1   -1.60    8.90
   8  21   2    8.10    8.90
   8 -21   2    3.10    9.20
  -8 -21  -2   -1.90    9.10
   8  21   3   -3.30    9.80
  -8 -21  -3    1.20    9.30
   8 -21   3    7.50    9.30
   8  21   4  -20.50    9.20
   8 -21   4   11.00    9.40
   8  21   5   -1.10    9.60
   8 -21   5   10.00    9.80
   8  21   6   -0.30    9.40
   8 -21   6   -0.90    9.10
  -8  22  10    5.00    7.80
  -8  22   9   11.90    8.30
  -8  22   8  -15.20    7.60
  -8  22   7   12.90    8.70
  -8 -22   7   -3.00    6.00
  -8  22   6   17.70    8.90
  -8 -22   6    5.40    6.90
  -8  22   5   -0.70    8.60
  -8 -22   5    9.10    7.30
  -8  22   4    7.30    8.70
  -8 -22   4    4.90    7.50
  -8  22   3   -6.10    8.50
  -8 -22   3   -1.20    7.50
  -8  22   2   29.50    9.20
   8 -22  -2    0.20   10.60
  -8 -22   2    8.70    7.80
  -8  22   1  -10.90    8.40
   8 -22  -1   14.00   10.00
  -8 -22   1    2.10    8.10
  -8  22   0   -0.60    7.50
  -8 -22   0   -2.70    8.80
   8 -22   0  -11.80    8.90
   8  22   1   -2.40   10.00
  -8  22  -1   -7.60    8.50
  -8 -22  -1   -3.00    7.70
   8 -22   1    5.20    9.60
   8  22   2    3.60   10.00
   8 -22   2    4.40    9.30
  -8 -22  -2   -0.50    8.90
   8  22   3   -1.90    8.70
  -8 -22  -3   10.60    8.70
   8 -22   3   -5.80    7.90
   8  22   4    4.60   10.00
   8 -22   4   -4.00    9.80
   8  22   5   11.50   10.80
   8 -22   5   16.60   10.20
   8  22   6  -11.80   10.20
   8 -22   6   -2.80    9.50
  -8  23   9    0.90    7.90
  -8  23   8   23.20    9.40
  -8  23   7  -15.00    8.00
  -8 -23   7   -6.90    6.20
  -8  23   6   -8.50    8.20
  -8 -23   6    3.20    7.20
  -8  23   5   18.50    9.30
  -8 -23   5    0.30    7.20
  -8  23   4   -3.70    7.80
  -8 -23   4   -4.20    7.10
  -8  23   3   23.30   10.00
  -8 -23   3   -1.30    7.60
  -8  23   2    3.10    9.10
  -8 -23   2   13.00    8.60
  -8  23   1   -4.60    7.70
  -8 -23   1   20.70    9.30
   8 -23  -1   14.30    9.30
  -8  23   0   31.20   10.60
   8 -23   0   16.40   10.00
  -8 -23   0   22.70    9.40
  -8 -23  -1    7.80    9.40
   8 -23   1    5.30    9.70
   8  23   2    4.70   10.00
   8 -23   2    9.40   10.00
  -8 -23  -2   14.80    9.20
   8  23   3    3.20   11.00
  -8 -23  -3    6.00    8.80
   8 -23   3   -6.60    9.00
   8  23   4    7.90   10.80
   8 -23   4    2.20    9.80
   8  23   5   -4.60    8.90
   8 -23   5  -23.00    8.70
  -8  24   9    1.80    8.10
  -8  24   8    4.40    9.00
  -8  24   7   -3.70    8.20
  -8 -24   7   -0.80    6.70
  -8  24   6   -1.30    8.30
  -8 -24   6    2.50    7.20
  -8  24   5    3.90    8.70
  -8 -24   5    9.20    7.60
  -8  24   4  -18.10    7.00
  -8 -24   4   -0.40    7.70
  -8  24   3   -0.90    8.00
  -8 -24   3   -8.20    7.50
  -8  24   2   -4.00    8.50
  -8 -24   2    6.50    8.90
  -8  24   1    5.20    9.50
   8 -24  -1    9.90   10.50
  -8 -24   1    7.40    8.90
  -8  24   0   19.70    9.80
   8 -24   0   15.50    9.70
  -8 -24   0    1.00    8.20
   8 -24   1   -2.00    8.70
  -8 -24  -1    6.60    9.70
   8  24   2  -22.80    8.00
   8 -24   2    1.90    9.50
  -8 -24  -2   -6.80    8.90
   8  24   3   11.40   11.30
   8 -24   3    4.00   10.00
  -8 -24  -3  -15.00    9.00
   8  24   4  -13.50   10.00
   8 -24   4  -18.70    9.20
   8  24   5   -3.10   10.30
   8 -24   5  -13.00    9.10
  -8  25   8    3.30    9.10
  -8  25   7   -9.90    8.50
  -8 -25   7  -12.90    6.50
  -8  25   6   18.20    9.80
  -8 -25   6   -1.70    7.00
  -8  25   5   16.00    9.70
  -8 -25   5    5.50    7.90
  -8  25   4   -7.30    8.00
  -8 -25   4  -12.30    7.40
  -8  25   3    0.70    8.60
  -8 -25   3  -10.80    7.70
  -8  25   2   -7.90    8.00
  -8 -25   2   34.10    9.90
  -8  25   1   -5.20    8.40
  -8 -25   1    3.10    9.00
   8 -25  -1  -12.50    9.60
  -8  25   0   -5.90    8.80
   8 -25   0  -15.20    9.70
  -8 -25   0   -0.90    8.30
  -8 -25  -1   10.00   10.30
   8 -25   1    1.10   10.60
   8  25   2   -9.30    8.90
   8 -25   2   -5.00   10.20
  -8 -25  -2    2.30    8.60
   8  25   3   32.70   12.60
  -8 -25  -3   22.50   10.90
   8 -25   3   22.10   11.00
   8  25   4    0.80   10.50
   8 -25   4    0.80   10.20
   8  25   5   -2.40   10.60
   8 -25   5  -17.60    9.60
  -8  26   8  -20.60    8.10
  -8  26   7   -6.00    8.70
  -8 -26   7    5.90    7.30
  -8  26   6   -9.50    8.90
  -8 -26   6   -1.60    7.40
  -8  26   5    5.40    9.90
  -8 -26   5   -8.60    7.80
  -8  26   4   20.30   10.20
  -8 -26   4   11.00    8.50
  -8  26   3    9.80   10.10
  -8 -26   3  -11.30    8.10
  -8  26   2    3.60   10.10
  -8 -26   2   -5.00    8.80
  -8  26   1    1.70    9.80
  -8 -26   1   13.50    9.80
   8 -26  -1    9.00   10.90
  -8  26   0    2.90    9.50
   8 -26   0   -3.40    9.30
  -8 -26   0  -13.00    8.80
  -8 -26  -1  -10.30    9.00
   8 -26   1   -0.50   10.40
   8  26   2    4.00    9.20
  -8 -26  -2   -2.60    9.70
   8 -26   2    2.10   10.60
   8  26   3   -9.30   10.90
  -8 -26  -3    5.80    9.50
   8 -26   3   12.00   10.60
   8  26   4  -14.20   10.10
   8 -26   4   -0.40   10.50
  -8  27   7   -0.70    9.10
  -8 -27   7   16.10    7.90
  -8  27   6    2.30    9.80
  -8 -27   6    9.70    7.90
  -8  27   5   14.70    9.80
  -8 -27   5    3.10    7.90
  -8  27   4    4.90   10.40
  -8 -27   4   -2.70    8.30
  -8  27   3    5.30    9.70
  -8 -27   3   -2.10    8.70
  -8  27   2   14.30   10.90
  -8 -27   2   21.30    9.90
  -8  27   1   11.50   10.40
   8 -27  -1   -3.90    9.30
  -8 -27   1  -16.40    8.70
  -8  27   0    3.50   10.00
   8 -27   0    1.50   11.00
  -8 -27   0   11.10   10.10
   8 -27   1    9.70   11.40
  -8 -27  -1   -8.00    9.20
   8  27   2   10.90   11.60
   8 -27   2    9.40   10.60
  -8 -27  -2    1.30   10.30
   8  27   3    6.70   11.40
  -8 -27  -3   18.80   11.50
   8 -27   3    9.80   10.90
   8  27   4    6.10   11.80
   8 -27   4  -17.30    9.50
  -8  28   7   10.10    9.90
  -8 -28   7    8.50    7.80
  -8  28   6    8.00    9.70
  -8 -28   6  -10.30    7.20
  -8  28   5  -19.10    9.30
  -8 -28   5   -7.20    7.90
  -8  28   4  -18.10    9.20
  -8 -28   4    1.70    8.90
  -8  28   3  -12.00    9.30
  -8 -28   3   -2.20    9.10
  -8  28   2   22.70   11.30
  -8 -28   2    7.90    9.60
  -8  28   1    2.30    9.20
  -8 -28   1   -4.00    9.20
   8 -28  -1  -24.70   10.50
  -8  28   0   -3.80    8.50
  -8 -28   0    8.20    9.60
   8 -28   0   12.40   10.30
   8 -28   1   10.50   11.40
  -8 -28  -1    1.30   10.10
   8 -28   2   -8.40   10.00
  -8 -28  -2   -4.60    9.50
   8  28   3    9.60   11.00
   8 -28   3   10.60   11.40
  -8 -28  -3    2.60   10.90
  -8  29   6    1.30    9.50
  -8 -29   6   -2.30    7.70
  -8  29   5  -14.80    9.60
  -8 -29   5   12.00    8.90
  -8  29   4   -8.90    9.90
  -8 -29   4    5.80    8.90
  -8  29   3    1.60   10.50
  -8 -29   3    7.70    9.30
  -8  29   2    6.60   11.10
  -8 -29   2    0.60    9.80
  -8  29   1    1.10   10.40
  -8 -29   1    2.10   10.50
   8 -29  -1   20.70   12.10
   8 -29   0    4.40   11.60
  -8 -29   0   14.90   11.40
  -8 -29  -1   17.70   10.90
   8 -29   1    1.80   11.40
  -8 -29  -2   -4.50   10.10
   8 -29   2    4.70   11.30
  -8  30   5    3.30   10.50
  -8 -30   5   -4.00    8.30
  -8  30   4   -5.70    8.70
  -8 -30   4   17.70    9.80
  -8  30   3    5.40    9.90
  -8 -30   3   23.10   10.40
  -8  30   2   12.90   12.30
  -8 -30   2   13.30   10.40
  -8  30   1    1.70   10.80
  -8 -30   1    0.60   10.50
   8 -30  -1    9.30   11.20
  -8 -30   0  -14.40    9.80
   8 -30   0    3.00   11.90
  -8 -30  -1    7.80   10.90
   8 -30   1   11.90   10.50
  -8  31   4  -10.00   10.50
  -8 -31   4   -8.80    9.00
  -8  31   3   10.90   11.30
  -8 -31   3   -7.40    9.60
  -8  31   2   -1.20   11.10
  -8 -31   2   10.40   10.30
  -8  31   1   10.80   11.80
  -8 -31   1  -20.30    9.00
   8 -31  -1   10.00   10.90
   8 -31   0  -15.70   10.50
  -8 -31   0  -18.60    9.20
  -9   0  12   -7.70   10.10
  -9   0  11   13.70   10.60
  -9   0  10   25.20   10.10
  -9   0   9    7.40    8.50
  -9   0   8   65.69    9.70
  -9   0   7    0.40    4.60
  -9   0   6   15.40    5.50
  -9   0   5    3.80    5.60
  -9   0   4  150.28   11.70
  -9   0   4  156.08   10.80
  -9   0   3    8.60    5.70
  -9   0   3    1.80    5.20
  -9   0   3    0.50    6.10
  -9   0   2   88.19    8.00
  -9   0   2   78.39    9.20
  -9   0   2   79.59    8.50
  -9   0   1    4.90    6.30
  -9   0   1    3.00    6.30
   9   0  -1    0.80    7.10
  -9   0   0   18.10    7.40
  -9   0   0   13.20    7.90
   9   0   0   -0.40    6.70
   9   0   1   21.60    8.60
  -9   0  -1   17.50    8.10
  -9   0  -1  -11.90    7.00
   9   0   2   16.90    8.80
  -9   0  -2   23.80    8.80
  -9   0  -2   11.30    8.50
   9   0   3    0.00    8.40
  -9   0  -3   -5.00    6.90
   9   0   4    2.00    8.50
   9   0   5    2.70    8.10
   9   0   6  -12.10    8.60
   9   0   7   -9.40    8.20
   9   0   8    0.10    9.40
  -9   1  12   10.70   11.40
  -9  -1  12    7.00   11.50
  -9   1  11    5.20    9.80
  -9  -1  11    8.20   10.20
  -9   1  10   16.10    9.40
  -9  -1  10   26.50   10.00
  -9   1   9   -5.50    7.90
  -9  -1   9   -0.70    7.80
  -9   1   8  -15.00    5.80
  -9   1   8  -11.10    7.30
  -9  -1   8   -1.20    7.60
  -9   1   7   57.29    6.50
  -9  -1   7   60.49    6.30
  -9   1   6  138.79    9.40
  -9  -1   6  156.68    9.60
  -9   1   5    6.90    5.70
  -9  -1   5    4.70    5.50
  -9   1   4  129.79    9.80
  -9   1   4  154.08   11.70
  -9  -1   4  128.79   10.00
  -9  -1   4  148.99   11.20
  -9   1   3  198.18   11.50
  -9   1   3  194.28   11.30
  -9   1   3  188.38   12.40
  -9  -1   3  194.38   11.30
  -9  -1   3  190.28   12.00
  -9  -1   3  202.98   12.00
  -9   1   2  377.46   14.90
  -9   1   2  369.96   15.80
  -9  -1   2  370.56   14.80
  -9  -1   2  350.46   13.90
  -9  -1   2  366.56   15.90
  -9   1   1    6.60    6.70
   9   1  -1   10.20    6.90
  -9   1   1    9.30    6.80
   9  -1  -1    6.60    7.90
  -9  -1   1    6.10    7.10
  -9  -1   1    0.30    6.30
  -9   1   0  136.09   12.10
  -9   1   0  127.59   11.20
   9   1   0  107.89   10.60
   9  -1   0  123.59   11.50
  -9  -1   0  131.09   11.10
  -9  -1   0  143.99   12.20
  -9   1  -1   27.40    8.20
  -9   1  -1    5.60    8.00
   9   1   1   16.30    8.50
  -9  -1  -1   15.70    7.90
   9  -1   1    2.90    7.40
  -9  -1  -1   15.30    7.90
  -9   1  -2   50.79    9.90
   9   1   2   33.70    9.70
   9  -1   2   41.40    8.90
  -9  -1  -2   49.99    9.50
  -9  -1  -2   43.00    9.80
  -9   1  -3   -7.10    8.20
   9   1   3    1.60    7.50
  -9  -1  -3    3.20    8.00
   9  -1   3    1.50    7.70
   9   1   4   -0.30    7.70
   9  -1   4    7.00    8.60
   9   1   5   12.00    8.50
   9  -1   5    7.70    8.70
   9   1   6   -1.00    9.30
   9  -1   6    7.90    9.30
   9   1   7   -4.30    8.40
   9  -1   7  -12.60    8.20
   9   1   8    6.40    9.60
   9  -1   8   -8.30    9.10
  -9   2  12   -2.40   10.90
  -9  -2  12    9.50   10.70
  -9   2  11   12.50   10.80
  -9  -2  11   13.80   10.20
  -9   2  10  -12.30    8.90
  -9  -2  10    3.40    9.00
  -9   2   9   13.60    8.90
  -9  -2   9   18.00    8.90
  -9   2   8    2.20    7.80
  -9   2   8    0.90    4.40
  -9   2   7    3.20    4.90
  -9  -2   7    1.10    4.40
  -9   2   6    5.90    5.30
  -9  -2   6    9.10    5.10
  -9   2   5  107.99    9.10
  -9  -2   5  110.09    9.00
  -9   2   4    2.20    5.60
  -9   2   4    0.00    5.70
  -9  -2   4    4.50    7.20
  -9  -2   4    3.50    5.90
  -9   2   3    8.00    5.50
  -9   2   3   21.10    6.70
  -9   2   3   16.50    6.50
  -9  -2   3   15.30    6.20
  -9  -2   3    7.30    6.70
  -9  -2   3    2.00    5.70
  -9   2   2    8.20    6.00
  -9   2   2    3.90    6.80
  -9  -2   2    1.50    5.40
  -9  -2   2    4.80    6.00
  -9  -2   2    3.30    6.40
   9   2  -1   84.99   10.40
  -9   2   1   94.29    9.50
  -9   2   1   94.49   10.60
  -9  -2   1   82.19   10.10
   9  -2  -1   81.69    9.70
  -9  -2   1   79.79    9.10
  -9   2   0    8.60    7.70
   9   2   0    9.40    6.90
  -9   2   0   10.20    7.20
   9  -2   0   -0.40    7.80
  -9  -2   0   14.20    7.60
  -9  -2   0   10.30    7.10
  -9   2  -1    2.40    7.70
   9   2   1   21.10    8.40
   9  -2   1    0.20    7.40
  -9  -2  -1    5.70    7.30
  -9  -2  -1    6.00    6.90
  -9   2  -2   31.00    8.40
   9   2   2   26.70    8.10
  -9  -2  -2   28.50    9.30
  -9  -2  -2   26.50    8.70
   9  -2   2   28.60    8.60
  -9   2  -3   11.40    7.90
   9   2   3   -2.60    8.30
   9  -2   3   -5.60    8.50
  -9  -2  -3    8.10    8.40
   9   2   4    4.00    8.60
   9  -2   4   -2.60    8.20
   9   2   5   15.20    9.20
   9  -2   5    9.80    9.00
   9   2   6   25.00   10.30
   9  -2   6   -3.50    8.50
   9   2   7   11.50    9.50
   9  -2   7   -5.20    8.80
   9   2   8   -6.90    9.10
   9  -2   8    4.70   10.00
  -9   3  12   -8.60   11.00
  -9  -3  12   16.00   11.40
  -9   3  11    0.20   10.10
  -9  -3  11    3.40    9.70
  -9   3  10    0.00    8.90
  -9  -3  10    3.60    8.50
  -9   3   9   13.40    9.20
  -9  -3   9   -7.70    7.40
  -9   3   8   59.99    6.00
  -9   3   8   67.89   10.60
  -9   3   7   28.80    5.80
  -9   3   7   37.40    8.40
  -9  -3   7   29.70    5.30
  -9   3   6   12.00    5.60
  -9  -3   6   12.40    5.30
  -9   3   5   33.80    6.90
  -9  -3   5   15.90    6.10
  -9   3   4   23.30    6.80
  -9   3   4   36.70    7.00
  -9  -3   4   31.90    7.10
  -9   3   3  272.67   12.60
  -9   3   3  296.37   13.50
  -9  -3   3  269.07   13.90
  -9  -3   3  279.07   13.20
  -9  -3   3  277.87   13.30
  -9   3   2   34.70    7.90
  -9   3   2   43.70    7.10
  -9  -3   2   47.40    7.00
  -9  -3   2   42.40    7.80
  -9  -3   2   34.80    7.70
  -9   3   1   24.50    8.30
   9   3  -1   14.20    7.90
  -9   3   1    5.10    6.50
  -9  -3   1   13.50    7.60
  -9  -3   1   15.70    6.80
  -9  -3   1   14.20    7.10
   9  -3  -1   28.50    8.80
   9   3   0    2.30    6.70
  -9   3   0   -3.30    7.20
  -9  -3   0  -12.10    5.80
   9  -3   0    7.00    8.20
  -9  -3   0   -2.20    6.90
  -9   3  -1   28.90    8.10
   9   3   1   35.10    8.20
   9  -3   1   33.80    8.70
  -9  -3  -1   37.20    8.80
  -9  -3  -1   52.79    9.80
  -9   3  -2    7.60    7.40
   9   3   2   -1.10    8.10
  -9  -3  -2   15.60    8.30
   9  -3   2    8.90    8.50
  -9  -3  -2    8.00    8.30
  -9   3  -3  -14.40    7.70
   9   3   3   -5.50    7.70
  -9  -3  -3   10.50    8.30
   9  -3   3   -2.70    8.30
   9   3   4    5.10    8.90
   9  -3   4    1.10    8.30
   9   3   5    6.50    8.90
   9  -3   5    7.80    8.40
   9   3   6   10.70    9.40
   9  -3   6    5.30    8.80
   9   3   7    9.30    9.30
   9  -3   7    7.70    9.50
   9   3   8  -13.40    8.80
   9  -3   8    0.30    9.50
   9  -3   8    7.20   10.10
  -9   4  12    7.20   11.20
  -9  -4  12   -5.20   10.60
  -9   4  11   10.10   10.70
  -9  -4  11   12.10   10.00
  -9   4  10   18.00   10.10
  -9  -4  10   13.50    9.30
  -9   4   9   16.00    9.20
  -9  -4   9   25.60    8.90
  -9   4   8    3.10    8.00
  -9   4   8    6.90    4.80
  -9   4   7   -3.40    7.40
  -9   4   7    3.20    5.20
  -9  -4   7    8.10    4.40
  -9   4   6   97.19    8.50
  -9  -4   6   87.19    7.70
  -9   4   5    1.40    5.80
  -9  -4   5   -1.50    5.40
  -9   4   4   39.20    6.90
  -9   4   4   48.30    7.80
  -9  -4   4   48.60    7.50
  -9   4   3   -2.50    9.00
  -9   4   3    4.00    6.10
  -9  -4   3   -2.80    5.90
  -9  -4   3    6.50    6.50
  -9  -4   3   -3.50    5.60
  -9   4   2   33.90    6.80
  -9   4   2   33.30    8.10
  -9  -4   2   45.70    7.80
  -9  -4   2   34.50    6.80
  -9  -4   2   26.40    7.70
   9   4  -1   33.20    8.40
  -9   4   1   12.90    7.00
  -9  -4   1   16.10    7.50
   9  -4  -1   19.90    7.90
  -9  -4   1   23.10    7.20
  -9  -4   1   17.20    6.00
   9   4   0   15.00    8.00
  -9   4   0    9.80    7.90
   9  -4   0   11.30    7.50
  -9  -4   0    4.70    7.60
  -9  -4   0  -14.10    6.50
   9   4   1   44.20    9.50
  -9   4  -1   22.80    7.70
  -9  -4  -1   41.60    9.40
  -9  -4  -1   32.30    8.00
   9  -4   1   24.10    9.10
   9   4   2    5.40    8.20
  -9   4  -2   -9.80    7.70
  -9  -4  -2    0.70    7.10
   9  -4   2   11.20    8.80
  -9  -4  -2   -2.60    7.90
   9   4   3   -6.00    7.20
  -9   4  -3    6.80    9.60
  -9  -4  -3   -1.30    7.80
   9  -4   3   -3.00    7.30
   9   4   4    8.30    8.60
   9  -4   4    9.70    9.20
   9   4   5  -13.20    7.70
   9  -4   5    0.30    8.60
   9   4   6   24.20    9.90
   9  -4   6  -10.60    8.90
   9   4   7   -1.80    9.20
   9  -4   7   13.90   10.00
   9  -4   7   17.60    9.60
   9   4   8   -8.90    9.30
   9  -4   8    8.50   10.00
  -9   5  12    6.90   12.00
  -9  -5  12   -6.10   10.10
  -9   5  11   21.90   12.00
  -9  -5  11   17.60   10.50
  -9   5  10    2.60    9.70
  -9  -5  10   -3.10    8.60
  -9   5   9    7.40    9.70
  -9  -5   9    1.00    8.50
  -9   5   8    8.80    5.00
  -9   5   8   -1.40    8.30
  -9   5   7   36.90    9.00
  -9   5   7   49.10    6.90
  -9  -5   7   44.10    5.60
  -9   5   6   10.30    6.00
  -9  -5   6   23.40    6.00
  -9   5   5   16.70    6.40
  -9  -5   5    8.10    5.80
  -9   5   4  101.99    9.10
  -9   5   4  100.89    9.50
  -9  -5   4  109.59    9.40
  -9  -5   4  102.79    9.30
  -9   5   3   20.60    7.30
  -9  -5   3   25.00    7.10
  -9  -5   3   28.00    7.10
  -9  -5   3   31.00    7.30
  -9   5   2   81.39    9.00
  -9  -5   2   94.39   10.00
  -9  -5   2  117.59    9.60
  -9  -5   2   99.99    9.60
   9   5  -1   -0.30    7.50
  -9   5   1   -2.60    6.20
  -9  -5   1   -3.20    6.00
  -9  -5   1   -2.50    5.50
   9  -5  -1    2.80    7.80
  -9  -5   1    6.50    7.00
   9   5   0  108.99   11.60
  -9   5   0   85.49   10.00
   9  -5   0   90.29   10.40
  -9  -5   0   76.49   10.20
  -9  -5   0   82.99   10.50
  -9   5  -1   -4.80    6.70
   9   5   1   -8.90    6.80
  -9  -5  -1   13.50    7.90
   9  -5   1   12.70    8.70
  -9  -5  -1   -0.20    6.60
  -9   5  -2   -0.20    8.40
   9   5   2   -6.00    7.10
   9  -5   2   -5.60    8.50
  -9  -5  -2   -8.40    8.00
  -9  -5  -2   -4.30    6.70
   9   5   3   19.40    8.10
   9  -5   3   16.40    9.00
  -9  -5  -3   27.10    9.20
   9   5   4   28.60    9.60
   9  -5   4   -0.90    8.20
   9   5   5   -3.70    8.00
   9  -5   5   -2.50    8.20
   9   5   6   11.00    9.20
   9  -5   6   15.90    9.60
   9  -5   6   19.10   10.20
   9   5   7    0.50    9.00
   9  -5   7    8.50    9.40
   9  -5   7    3.20    9.20
   9   5   8   -2.90    9.00
   9  -5   8    7.00   10.40
  -9   6  12   17.10   12.40
  -9  -6  12    2.20   10.40
  -9   6  11    7.70   11.40
  -9  -6  11   26.20   10.80
  -9   6  10    5.00   10.20
  -9  -6  10    6.50    8.80
  -9   6   9   -9.00    8.90
  -9   6   8   -8.70    4.60
  -9   6   8    9.30    8.30
  -9   6   7   16.40    6.00
  -9   6   7   13.50    7.80
  -9  -6   7    8.60    4.70
  -9   6   6   33.50    7.00
  -9  -6   6   28.10    5.80
  -9   6   5   90.89    9.10
  -9  -6   5   79.69    8.20
  -9   6   4   -6.70    6.20
  -9  -6   4   -4.30    5.80
  -9  -6   4    4.40    6.00
  -9   6   3   17.00    6.90
  -9  -6   3   16.00    6.80
  -9  -6   3    7.10    6.50
  -9   6   2   34.70    7.70
  -9  -6   2   18.60    6.70
  -9  -6   2   40.60    8.00
  -9  -6   2   20.40    7.20
   9   6  -1  310.27   15.00
  -9   6   1  339.07   15.90
  -9  -6   1  303.07   14.40
  -9  -6   1  317.37   15.50
   9  -6  -1  324.37   16.90
  -9  -6   1  314.87   15.80
   9   6   0   11.20    8.30
  -9   6   0    3.30    6.60
  -9  -6   0   11.50    8.20
  -9  -6   0   -6.80    7.00
   9  -6   0   18.00    8.70
   9   6   1   26.90    9.40
  -9   6  -1   15.60    7.50
   9  -6   1   30.40    9.40
  -9  -6  -1   18.90    8.20
  -9  -6  -1   24.30    8.50
   9   6   2   -5.10    7.60
   9   6   2  -12.70    7.70
  -9   6  -2   -3.00    7.50
   9  -6   2    5.30    8.80
  -9  -6  -2    3.30    7.10
  -9  -6  -2    4.80    8.30
   9   6   3    9.00    7.70
   9  -6   3   11.80    9.40
  -9  -6  -3   20.80    9.30
   9   6   4  -11.80    7.90
   9  -6   4   16.70    9.50
   9   6   5   10.50    8.70
   9  -6   5    2.90    9.00
   9  -6   5  -10.30    8.20
   9   6   6   23.50   10.00
   9  -6   6  -14.70    8.00
   9  -6   6  -10.30    8.70
   9   6   7   20.10   10.00
   9  -6   7   30.90   10.40
   9   6   8    2.60    9.40
   9  -6   8   -9.00    9.60
  -9   7  12  -17.00   10.80
  -9  -7  12    0.20   10.50
  -9   7  11  -14.50   10.40
  -9  -7  11    7.20   10.20
  -9   7  10    0.80   10.30
  -9  -7  10   18.30    9.10
  -9   7   9   24.40   10.40
  -9   7   8   17.20    9.20
  -9   7   8   10.00    5.50
  -9   7   7   27.00    6.70
  -9  -7   7   18.50    5.00
  -9   7   6   25.30    7.00
  -9  -7   6   24.50    6.00
  -9   7   5   -0.20    5.90
  -9  -7   5   10.40    5.80
  -9   7   4   -2.80    6.30
  -9  -7   4   -2.30    5.90
  -9  -7   4   -1.10    6.20
  -9   7   3   44.40    8.10
  -9  -7   3   64.69    8.80
  -9  -7   3   65.69    8.30
  -9   7   2   99.19   10.40
  -9  -7   2   86.19    8.90
  -9  -7   2   87.39    9.90
   9   7  -1   -0.70    8.80
  -9   7   1   -3.70    6.80
  -9  -7   1    1.90    6.70
   9  -7  -1    7.40    7.30
  -9  -7   1   14.30    7.80
   9  -7  -1  -13.70    7.60
  -9  -7   1   -0.80    5.60
   9   7   0   53.99    9.00
  -9   7   0   40.00    8.40
  -9  -7   0   53.19    8.60
  -9  -7   0   42.00    8.70
  -9  -7   0   38.60   11.80
   9  -7   0   54.69   10.50
   9  -7   0   37.50    9.90
   9   7   1    5.10    8.60
  -9   7  -1    7.40    7.00
   9   7   1   -5.60    7.40
  -9  -7  -1   23.10    8.80
   9  -7   1  -11.00    7.90
  -9  -7  -1   -8.50    7.20
   9  -7   1    1.50    8.60
   9   7   2   13.30    8.30
  -9   7  -2   17.70    7.70
   9   7   2    9.90    8.40
   9  -7   2   17.30    9.00
  -9  -7  -2    2.10    8.00
  -9  -7  -2   26.30    9.70
   9  -7   2   12.20    8.90
   9   7   3    6.00    8.30
   9  -7   3   16.90    9.20
  -9  -7  -3    9.30    8.60
   9  -7   3    7.50    8.80
   9   7   4   -3.40    7.40
   9  -7   4   -2.30    7.70
   9  -7   4   -0.10    7.50
   9   7   5   31.20   10.00
   9  -7   5   12.70    9.30
   9  -7   5   34.90    9.90
   9   7   6   -2.80    8.10
   9  -7   6   11.70    9.70
   9   7   7    2.80    8.80
   9  -7   7   -8.60    9.10
   9   7   8    2.20    9.80
   9  -7   8    0.10   10.10
  -9   8  12   -4.30   12.10
  -9  -8  12   15.70   11.40
  -9   8  11    4.10   11.10
  -9  -8  11   15.60   10.60
  -9   8  10   -3.00   10.00
  -9  -8  10   -2.80    9.00
  -9   8   9   -7.90    9.20
  -9   8   8    3.80    5.40
  -9   8   7   43.60    7.30
  -9  -8   7   46.50    6.00
  -9   8   6   38.90    7.20
  -9  -8   6   37.00    6.40
  -9   8   5    1.80    6.30
  -9  -8   5    0.30    5.50
  -9   8   4   -9.80    6.20
  -9  -8   4   -3.80    6.00
  -9  -8   4   -5.00    5.50
  -9   8   3   16.70    6.70
  -9  -8   3    6.90    6.40
  -9  -8   3    1.20    6.90
  -9   8   2  280.27   15.30
  -9  -8   2  294.27   14.60
  -9  -8   2  319.87   16.50
  -9   8   1    1.40    7.40
  -9  -8   1  -13.60    6.50
  -9  -8   1    6.50    6.90
  -9  -8   1   11.40   10.20
   9  -8  -1   -3.70    7.10
  -9   8   0   36.40    8.10
   9   8   0   50.19    8.90
  -9  -8   0   20.90    7.20
   9  -8   0   38.30    9.70
  -9  -8   0   26.90    8.60
   9  -8   0   13.40    9.20
   9   8   1    6.90    8.70
  -9   8  -1    4.60    8.00
   9   8   1   -4.00    7.10
   9  -8   1   14.50    8.60
  -9  -8  -1   -2.30    6.70
   9  -8   1    3.80    8.40
  -9  -8  -1   12.70    7.60
  -9   8  -2    8.50    8.50
   9   8   2   14.20    8.80
   9   8   2   21.50    8.50
   9  -8   2   10.70    7.90
  -9  -8  -2    2.30    7.80
   9  -8   2    0.20    7.60
   9   8   3  -16.20    8.20
  -9  -8  -3   14.60    8.60
   9  -8   3   -0.80    8.60
   9  -8   3   -7.90    7.90
   9   8   4   18.20    9.80
   9  -8   4    7.10    9.20
   9   8   5    9.90    8.80
   9  -8   5    2.50    9.00
   9   8   6   10.20    9.70
   9  -8   6   10.00    9.50
   9   8   7    2.20    9.60
   9  -8   7    5.60    9.70
   9   8   8   20.40   10.70
   9  -8   8  -10.00    9.10
  -9   9  12    3.10   12.90
  -9  -9  12  -12.70   10.00
  -9   9  11   21.70   12.20
  -9  -9  11   16.20   10.70
  -9   9  10  -13.40    9.70
  -9  -9  10   23.50   14.70
  -9   9   9    5.80    5.30
  -9   9   8   10.80    5.90
  -9   9   7   10.70    6.10
  -9  -9   7   11.60    4.80
  -9   9   6   14.40    6.40
  -9  -9   6    6.90    5.40
  -9   9   5   37.60    7.80
  -9  -9   5   36.20    6.90
  -9   9   4   27.30    7.80
  -9  -9   4   39.40    8.10
  -9  -9   4   33.20    7.20
  -9   9   3    2.60    6.50
  -9  -9   3   -8.60    6.70
  -9  -9   3   10.40    6.70
  -9   9   2   13.50    7.70
  -9  -9   2   -3.50    7.00
  -9  -9   2   -3.20    6.00
  -9   9   1   -9.80    7.20
  -9  -9   1   18.10    8.20
   9  -9  -1   -6.70    6.90
  -9  -9   1    3.00    7.20
   9   9   0    1.00    7.30
  -9   9   0    3.40    7.50
   9   9   0    1.90    7.10
  -9  -9   0   -8.70    6.90
  -9  -9   0    4.50    8.00
   9  -9   0   -2.80    8.40
   9   9   1  -17.70    7.60
   9   9   1    9.30    8.10
  -9   9  -1  -16.50    6.90
  -9  -9  -1    0.90    6.90
   9  -9   1   -8.70    7.70
  -9  -9  -1   -4.40    8.30
  -9   9  -2    1.20    7.90
   9   9   2   -4.80    8.40
   9   9   2   12.70    9.10
  -9  -9  -2   -6.20    6.70
   9  -9   2   -2.60    7.60
   9   9   3   33.70    9.10
  -9  -9  -3    1.40    7.50
   9  -9   3   17.80    9.60
   9   9   4   -2.20    7.80
   9  -9   4    3.60    9.00
   9   9   5   11.60    9.00
   9  -9   5   15.00    9.80
   9   9   6   26.60   10.20
   9  -9   6   31.00   10.70
   9   9   7    2.00    9.10
   9  -9   7    3.20    9.50
   9   9   8   19.50   10.30
   9  -9   8   29.20   10.80
  -9  10  12   -1.90   11.90
  -9 -10  12   -8.30   10.60
  -9  10  11  -19.50   10.00
  -9 -10  11    6.00   10.00
  -9  10   9   -4.70    5.20
  -9  10   8   11.70    6.00
  -9  10   7   -4.50    6.00
  -9 -10   7   -2.60    4.70
  -9  10   6   19.30    7.00
  -9 -10   6    8.10    5.50
  -9  10   5   37.70    7.90
  -9 -10   5   32.70    6.90
  -9  10   4   14.70    6.90
  -9 -10   4    8.40    7.00
  -9 -10   4    8.90    6.40
  -9  10   3    8.50    7.40
  -9 -10   3   20.40    7.30
  -9 -10   3   12.40    6.80
  -9  10   2   13.80    7.40
  -9 -10   2    2.30    6.00
  -9 -10   2   -5.90    7.00
  -9  10   1   36.10    8.80
   9 -10  -1   42.10    9.10
  -9 -10   1   53.79    9.40
  -9 -10   1   41.20    9.10
   9  10   0    5.80    7.30
   9  10   0    4.70    7.70
  -9  10   0   11.20    8.30
  -9 -10   0    9.20    8.40
  -9 -10   0    8.30    8.10
   9 -10   0    3.30    8.80
   9  10   1   22.90    8.60
   9  10   1   15.90    9.20
  -9  10  -1   24.00    8.60
  -9 -10  -1   29.50    9.30
  -9 -10  -1   25.60    8.90
   9 -10   1   16.70    8.70
  -9  10  -2    6.40    7.50
   9  10   2  -14.80    7.20
   9 -10   2   -1.80    8.80
  -9 -10  -2    3.30    8.30
   9  10   3   37.20   10.20
   9 -10   3   -4.30    8.40
  -9 -10  -3   23.00    9.50
   9  10   4   18.20    9.70
   9 -10   4   16.50    9.60
   9  10   5    2.30    9.50
   9 -10   5  -10.20    8.30
   9  10   6    0.10    8.80
   9 -10   6   -5.30    9.30
   9  10   7  -23.30    8.40
   9 -10   7  -16.30    8.70
  -9 -11  12   -7.60   10.80
  -9 -11  11   14.80   11.00
  -9  11   9    6.70    5.90
  -9  11   8   -0.90    5.90
  -9  11   7   -6.60    6.00
  -9 -11   7   -3.60    4.70
  -9  11   6    1.90    6.80
  -9 -11   6   -0.70    5.30
  -9  11   5   -1.90    6.50
  -9 -11   5   -4.20    5.40
  -9  11   4   -3.90    7.00
  -9 -11   4    4.80    6.10
  -9 -11   4    6.80    7.00
  -9  11   3   11.70    7.60
  -9 -11   3   -3.20    6.50
  -9 -11   3   11.20    7.60
  -9  11   2   -1.70    6.80
  -9 -11   2   -3.50    7.40
  -9 -11   2    7.20    7.00
  -9  11   1    3.70    6.70
   9 -11  -1    8.20    7.90
  -9 -11   1    2.60    8.00
  -9 -11   1    5.00    6.70
  -9  11   0   -8.70    7.50
   9  11   0  -11.40    6.80
   9  11   0   15.40    8.90
  -9 -11   0    6.50    8.20
  -9 -11   0    1.60    6.90
   9 -11   0   -3.20    8.70
  -9  11  -1   45.80    9.00
   9  11   1   44.80   10.40
   9  11   1   53.89    9.90
   9 -11   1   35.50   10.20
  -9 -11  -1   64.49   10.50
   9  11   2   -5.30    8.80
  -9  11  -2   -8.70    8.00
   9 -11   2    1.40    9.00
  -9 -11  -2   -9.50    7.70
   9  11   3   -3.30    8.70
  -9 -11  -3   11.10    9.20
   9 -11   3   -5.40    8.80
   9  11   4   -1.20    8.80
   9 -11   4   12.50    9.40
   9  11   5   -3.80    9.00
   9 -11   5   11.80    9.80
   9  11   6    6.00    9.60
   9 -11   6   15.90   10.10
   9  11   7  -12.80    8.90
   9 -11   7  -10.70    8.80
  -9 -12  12   -5.70   10.70
  -9  12   9   15.40    6.20
  -9  12   8   -4.00    6.30
  -9  12   7   30.30    7.50
  -9 -12   7   29.80    5.70
  -9  12   6   17.80    7.30
  -9 -12   6    5.50    5.70
  -9  12   5    6.90    7.20
  -9 -12   5   -2.40   11.10
  -9 -12   5    5.50    6.10
  -9  12   4    3.90    7.10
  -9 -12   4   -7.10    6.00
  -9 -12   4    9.00    7.30
  -9  12   3   16.00    7.40
  -9 -12   3    2.10    6.60
  -9 -12   3   -1.40    7.40
  -9  12   2   -6.80    7.50
  -9 -12   2   -6.20    7.50
  -9 -12   2    4.60    7.40
  -9  12   1    8.30    7.90
  -9 -12   1   14.00    8.00
  -9 -12   1  -11.30    7.60
   9 -12  -1   -5.80    7.10
  -9  12   0   -0.60    6.80
   9  12   0   -8.40    8.10
   9  12   0  -14.40    6.80
  -9 -12   0   15.60    8.90
   9 -12   0  -16.50    7.20
  -9 -12   0   -5.50    6.40
   9  12   1   40.20    9.60
   9  12   1   63.69   11.00
  -9  12  -1   57.19   10.50
  -9 -12  -1   61.69   10.40
   9 -12   1   52.79   10.80
   9  12   2   13.50    9.80
  -9  12  -2   -0.60    8.10
   9 -12   2   -3.50    7.90
  -9 -12  -2    8.60    8.80
   9  12   3   39.40   11.00
   9 -12   3   40.20   10.60
  -9 -12  -3   38.70   10.20
   9  12   4    4.70    9.20
   9 -12   4    7.00    9.70
   9  12   5    4.90    9.50
   9 -12   5   11.90    9.50
   9  12   6    6.10    9.90
   9 -12   6   -5.80    8.40
   9  12   7    3.40    9.50
   9 -12   7   -6.90    9.40
  -9  13   9  -11.60    5.50
  -9  13   8    5.00    6.60
  -9  13   7    5.70    6.90
  -9 -13   7   -6.90    4.70
  -9  13   6   41.70    8.40
  -9 -13   6   58.79    7.60
  -9  13   5   77.49    9.80
  -9 -13   5   54.39    9.90
  -9 -13   5   50.19    7.90
  -9  13   4   76.59   10.00
  -9 -13   4   77.19   10.40
  -9 -13   4   78.39    9.30
  -9  13   3   11.90    8.20
  -9 -13   3   26.50    8.60
  -9 -13   3   11.30    7.30
  -9  13   2   23.70    7.90
  -9 -13   2   34.50    9.10
  -9 -13   2   30.80    7.50
  -9  13   1    3.80    7.00
  -9 -13   1    5.70    8.70
   9 -13  -1  -14.10    8.00
  -9 -13   1    6.00    7.90
   9  13   0    8.30    7.70
  -9  13   0    7.90    8.40
  -9 -13   0    1.90    7.60
   9 -13   0    7.90    8.50
  -9 -13   0    2.10    9.60
   9  13   1   -7.40    8.50
  -9  13  -1    9.90    7.60
   9  13   1    6.20    8.20
   9 -13   1    2.60    8.00
  -9 -13  -1    3.40    8.40
   9  13   2   33.80   10.10
  -9  13  -2   32.50   10.00
   9 -13   2   32.30   10.70
  -9 -13  -2   33.50    9.70
   9  13   3    0.30    9.50
   9 -13   3    9.20    9.30
  -9 -13  -3   15.90    8.40
   9  13   4   -1.10    8.30
   9 -13   4    2.10    7.90
   9  13   5   10.70    8.80
   9 -13   5    7.70    9.20
   9  13   6   10.50   10.50
   9 -13   6   -8.80    9.00
   9  13   7   14.90   10.00
   9 -13   7   -1.50    9.90
  -9  14   9   16.50    7.00
  -9  14   8    5.90    6.90
  -9  14   7   12.30    7.10
  -9 -14   7    6.00    5.30
  -9  14   6    1.40    7.10
  -9 -14   6    3.00    5.90
  -9  14   5    7.90    7.20
  -9 -14   5    8.10    6.40
  -9 -14   5    5.20    7.90
  -9  14   4    8.80    7.20
  -9 -14   4    4.70    6.80
  -9 -14   4   -0.90    7.50
  -9  14   3   32.80    9.30
  -9 -14   3   40.40    9.30
  -9 -14   3   47.30    9.00
  -9  14   2    6.80    8.30
  -9 -14   2   -0.20    7.10
  -9 -14   2   17.40    8.60
  -9  14   1    8.90    8.50
  -9 -14   1  -11.90    8.00
  -9 -14   1   13.10    8.10
   9 -14  -1   -3.50    7.40
  -9  14   0   -2.60    7.00
   9  14   0    5.90    8.80
   9 -14   0    8.10    8.90
  -9 -14   0    0.60    7.00
   9  14   1   -5.10    7.70
   9  14   1    6.00    9.20
  -9  14  -1   -1.50    8.50
   9 -14   1    6.70    9.40
  -9 -14  -1    3.90    8.40
   9  14   2   -6.70    7.80
  -9  14  -2   12.40    8.10
  -9 -14  -2    5.10    7.90
   9 -14   2   -8.10    7.40
   9  14   3    7.90    9.40
  -9 -14  -3   -9.60    8.50
   9 -14   3   -4.10    8.50
   9  14   4   41.20   11.20
   9 -14   4   32.70   10.40
   9  14   5   12.00   10.00
   9 -14   5    5.10    9.80
   9  14   6   -6.20    8.60
   9 -14   6   11.10   10.10
   9  14   7    3.50    9.80
   9 -14   7   -0.20   10.10
  -9  15   9   -1.40    6.60
  -9  15   8    5.20    7.20
  -9  15   7    6.00    7.30
  -9 -15   7    1.20    5.40
  -9  15   6   -5.70    6.80
  -9 -15   6   -5.40    5.30
  -9  15   5  -13.40    6.90
  -9 -15   5   -1.70    6.40
  -9 -15   5    9.80    8.10
  -9  15   4    7.60    7.50
  -9 -15   4   14.60    8.20
  -9 -15   4    4.70    7.00
  -9  15   3   29.80    9.50
  -9 -15   3   24.80    8.80
  -9 -15   3   29.40    8.30
  -9  15   2   21.30    9.00
  -9 -15   2   21.10    9.30
  -9 -15   2   20.70    8.20
  -9  15   1   22.50    8.30
   9 -15  -1   24.90    9.60
  -9 -15   1   15.80    8.30
  -9  15   0   20.40    9.20
  -9 -15   0   12.50    8.50
   9 -15   0   -1.20    8.20
  -9  15  -1   21.10    8.40
   9  15   1   12.60    9.50
   9  15   1   18.80    8.60
  -9 -15  -1    2.60    7.50
   9 -15   1   12.50    8.60
   9  15   2   -3.60    8.90
   9 -15   2    3.20    9.50
  -9 -15  -2    1.00    8.80
   9  15   3   18.20    9.90
   9 -15   3    2.20    9.60
  -9 -15  -3   -5.60    7.70
   9  15   4    8.60    9.50
   9 -15   4   12.60   10.20
   9  15   5   27.80   10.50
   9 -15   5   -7.70    9.60
   9  15   6  -10.10    9.70
   9 -15   6  -14.70    9.00
   9  15   7   -1.60    9.60
   9 -15   7  -13.20    9.70
  -9  16  10   10.60    7.10
  -9  16   9   14.50    7.20
  -9  16   8   22.10    7.90
  -9  16   7   10.20    7.50
  -9 -16   7    5.20    5.30
  -9  16   6   21.00    7.90
  -9 -16   6   23.40    6.90
  -9  16   5   23.10    8.40
  -9 -16   5    6.30    6.70
  -9 -16   5    5.90    8.40
  -9  16   4   12.40    8.20
  -9 -16   4   20.20    7.50
  -9 -16   4    5.80    8.90
  -9  16   3  -13.00    7.70
  -9 -16   3    0.80    8.40
  -9 -16   3   13.10    7.70
  -9  16   2   10.50    8.60
  -9 -16   2   11.90    7.50
  -9  16   1   -8.90    7.10
  -9 -16   1   -2.00    7.60
   9 -16  -1   11.80    8.50
  -9  16   0   11.00    8.90
   9 -16   0   24.90   10.20
  -9 -16   0   13.70    9.00
  -9  16  -1   25.90    9.30
   9  16   1   20.80    9.60
   9 -16   1   13.90   10.00
  -9 -16  -1   20.00    9.30
   9  16   2   13.20    8.90
   9 -16   2   -3.70    9.00
  -9 -16  -2   12.40    9.10
   9  16   3   16.60    9.00
   9 -16   3    0.20    9.20
  -9 -16  -3   20.20    9.60
   9  16   4   -5.30    9.60
   9 -16   4    6.20    9.60
   9  16   5   -7.60    9.90
   9 -16   5   11.30    9.60
   9  16   6   12.70   10.20
   9 -16   6   -9.90    9.50
  -9  17  10    5.10    7.00
  -9  17   9    3.00    7.20
  -9  17   8   33.80    8.90
  -9  17   7   10.10    7.90
  -9 -17   7    0.50    5.60
  -9  17   6    3.10    7.50
  -9 -17   6    6.00    6.30
  -9  17   5    1.70    7.60
  -9 -17   5   -4.90    6.30
  -9  17   4   12.40    8.80
  -9 -17   4   -7.40    6.60
  -9  17   3   12.20    8.60
  -9 -17   3    7.50    7.20
  -9  17   2   -5.10    8.40
  -9 -17   2   28.20    8.80
  -9  17   1   -1.80    8.20
   9 -17  -1  -11.90    8.70
  -9 -17   1   -6.00    7.90
  -9  17   0   19.20    9.10
   9 -17   0   29.30   10.80
  -9 -17   0   23.20    9.70
  -9  17  -1    2.60    8.60
   9  17   1  -17.00    7.80
  -9 -17  -1    9.00    8.80
   9 -17   1    7.20    9.20
   9  17   2   23.60   10.00
  -9 -17  -2   20.40    8.70
   9 -17   2   17.60    9.10
   9  17   3    7.90    9.70
   9 -17   3   11.50    8.30
  -9 -17  -3   -0.90    9.30
   9  17   4    6.60   10.00
   9 -17   4   -4.00    8.50
   9  17   5   15.80   10.60
   9 -17   5    5.50    9.60
   9  17   6   19.60   10.70
   9 -17   6    9.30   10.00
  -9  18  10    2.60    7.40
  -9  18   9   21.20    8.00
  -9  18   8    1.80    7.50
  -9  18   7   -6.80    7.60
  -9 -18   7    6.90    5.90
  -9  18   6   -3.70    7.70
  -9 -18   6   -3.20    6.20
  -9  18   5   44.20    9.40
  -9 -18   5   31.80    8.10
  -9  18   4    6.70    8.00
  -9 -18   4   -3.80    6.70
  -9  18   3   16.40    9.00
  -9 -18   3   17.60    8.10
  -9  18   2   13.00    8.90
  -9 -18   2    6.70    7.40
  -9  18   1   68.89   11.10
   9 -18  -1   86.99   12.40
  -9 -18   1   64.19   10.60
  -9  18   0   22.60    8.60
  -9 -18   0   13.10    9.10
   9 -18   0   20.80   10.30
  -9  18  -1    5.30    9.10
   9  18   1    1.30    8.10
   9 -18   1   -1.00    8.40
  -9 -18  -1   -6.00    8.50
   9  18   2   12.20    9.50
  -9 -18  -2    4.60    7.80
   9 -18   2   12.70    8.80
   9  18   3   -4.10    9.50
   9 -18   3   -4.40    9.00
  -9 -18  -3    6.30    9.60
   9  18   4   -9.50    9.60
   9 -18   4    7.80   10.00
   9  18   5   -7.30   10.00
   9 -18   5   -4.30    9.00
   9  18   6  -20.10    8.90
   9 -18   6    3.70    9.70
  -9  19  10   -0.40    7.10
  -9  19   9   16.50    8.60
  -9  19   8   13.90    8.30
  -9  19   7    7.50    8.30
  -9 -19   7   10.90    6.10
  -9  19   6   27.50    9.00
  -9 -19   6   14.40    7.10
  -9  19   5   16.90    8.70
  -9 -19   5    2.00    6.80
  -9  19   4   -3.60    8.30
  -9 -19   4    3.10    7.70
  -9  19   3   -6.10    7.30
  -9 -19   3    3.20    7.60
  -9  19   2    0.40    8.60
  -9 -19   2  -10.80    7.50
  -9  19   1    8.70    8.60
   9 -19  -1   -2.10    9.10
  -9 -19   1    7.30    7.60
  -9  19   0   12.50    8.20
  -9 -19   0   -0.30    8.60
   9 -19   0    8.70    9.20
   9  19   1    3.40    9.00
  -9  19  -1   33.40   10.30
  -9 -19  -1   18.20    9.80
   9 -19   1    7.80    9.00
   9  19   2   -3.60    9.10
  -9 -19  -2   11.70    9.50
   9 -19   2   -4.20    9.10
   9  19   3   -8.40    9.50
   9 -19   3   45.00   11.30
  -9 -19  -3    6.00    9.60
   9  19   4   10.00   10.20
   9 -19   4   -2.60    9.20
   9  19   5   12.90   10.90
   9 -19   5   -9.60    8.70
   9  19   6   -5.10   10.20
   9 -19   6   -4.50    9.60
  -9  20  10    1.80    7.60
  -9  20   9    2.00    8.00
  -9  20   8    9.90    8.80
  -9  20   7    6.70    8.20
  -9 -20   7   14.90    6.90
  -9  20   6   -2.60    8.00
  -9 -20   6    8.40    7.20
  -9  20   5   -4.00    8.00
  -9 -20   5   -2.80    6.60
  -9  20   4   18.50    8.30
  -9 -20   4   39.30    8.90
  -9  20   3   12.40    9.40
  -9 -20   3    4.80    8.00
  -9  20   2   31.80   10.10
  -9 -20   2   15.30    8.60
  -9  20   1    1.50    7.80
   9 -20  -1    3.50    9.60
  -9 -20   1   10.30    8.80
  -9  20   0   17.40    9.00
  -9 -20   0   30.10   10.10
   9 -20   0    9.20    9.60
   9  20   1    5.80   11.00
  -9  20  -1    1.60    9.10
  -9 -20  -1   -5.00    8.60
   9 -20   1   -8.00    7.80
   9  20   2   22.20   10.10
   9 -20   2    7.20    9.60
  -9 -20  -2    5.50    9.80
   9  20   3   -3.60    8.50
  -9 -20  -3   26.00   10.60
   9 -20   3   -2.40    9.50
   9  20   4   -0.40   10.40
   9 -20   4   -6.30    8.90
   9  20   5    9.50   10.90
   9 -20   5  -13.70    8.70
  -9  21   9    0.20    8.30
  -9  21   8    6.80    8.40
  -9  21   7   16.80    9.30
  -9 -21   7   12.30    6.90
  -9  21   6    4.20    8.50
  -9 -21   6    2.60    6.90
  -9  21   5   -0.20    8.80
  -9 -21   5   -3.50    7.10
  -9  21   4   -7.20    8.50
  -9 -21   4    8.10    7.80
  -9  21   3   -1.60    8.80
  -9 -21   3    1.00    8.00
  -9  21   2   -2.00    8.00
  -9 -21   2   -2.80    7.90
  -9  21   1   10.70    9.40
   9 -21  -1  -17.90    8.70
  -9 -21   1   24.70    9.50
  -9  21   0    3.50    9.20
  -9 -21   0   -7.50    8.30
   9 -21   0   18.30    9.90
  -9  21  -1    3.30    9.10
  -9 -21  -1   -7.10    7.80
   9 -21   1    2.00    8.50
   9  21   2    4.50    9.80
   9 -21   2   -7.90    8.80
  -9 -21  -2   19.80    9.80
   9  21   3    4.70   10.30
   9 -21   3  -12.30    8.80
  -9 -21  -3    2.80   10.30
   9  21   4   -4.90    9.20
   9 -21   4    4.30   10.00
   9  21   5   -4.60   10.10
   9 -21   5  -18.80    8.60
  -9  22   9    6.40    8.70
  -9  22   8    2.00    8.20
  -9  22   7    4.40    8.70
  -9 -22   7   12.90    7.10
  -9  22   6   -4.90    8.80
  -9 -22   6    6.60    7.50
  -9  22   5    6.20    9.20
  -9 -22   5   22.20    8.40
  -9  22   4   -0.30    8.90
  -9 -22   4    4.00    7.70
  -9  22   3    3.40    9.30
  -9 -22   3   -1.70    7.70
  -9  22   2   27.00    9.90
  -9 -22   2   14.20    9.20
  -9  22   1   20.80   10.30
   9 -22  -1   19.50   10.30
  -9 -22   1    8.00    8.30
  -9  22   0    5.20    9.50
  -9 -22   0   13.60   10.00
   9 -22   0    0.30   10.00
  -9  22  -1  -17.20    9.40
  -9 -22  -1   11.30    9.80
   9 -22   1   -5.60    9.10
   9  22   2   -1.70    9.80
   9 -22   2   -4.30    8.30
  -9 -22  -2   -3.80   10.00
   9  22   3  -24.30    9.30
   9 -22   3  -17.20    7.50
  -9 -22  -3   16.10   10.70
   9  22   4   -2.80   10.60
   9 -22   4   -4.20    8.90
   9  22   5   16.70   11.50
   9 -22   5  -16.20    9.20
  -9  23   9   -4.60    8.50
  -9  23   8  -14.00    8.00
  -9  23   7   15.90    9.30
  -9 -23   7   -2.00    6.70
  -9  23   6   14.20    9.70
  -9 -23   6    8.20    7.50
  -9  23   5    9.50    9.60
  -9 -23   5    5.30    7.80
  -9  23   4   18.20    9.80
  -9 -23   4   13.90    8.60
  -9  23   3   -2.30    9.10
  -9 -23   3   11.80    8.50
  -9  23   2   -1.50    8.30
  -9 -23   2    5.80    8.20
  -9  23   1   15.00    9.40
  -9 -23   1   -2.50    8.80
   9 -23  -1    9.90    9.30
  -9  23   0   35.20   10.20
   9 -23   0   37.40   11.90
  -9 -23   0   44.90   10.00
   9 -23   1   11.60   10.60
  -9 -23  -1   -6.10    9.20
   9  23   2  -19.10    9.50
   9 -23   2    0.90    9.90
  -9 -23  -2   -1.30   10.00
   9  23   3    5.40   11.00
  -9 -23  -3   13.70    9.90
   9 -23   3   -4.00    9.90
   9  23   4    1.20    9.50
   9 -23   4  -13.20    9.50
  -9  24   8    8.80    8.80
  -9  24   7    3.50    9.30
  -9 -24   7    3.10    7.00
  -9  24   6    3.30    9.20
  -9 -24   6   -4.00    7.10
  -9  24   5    0.80    9.30
  -9 -24   5   18.80    8.80
  -9  24   4    4.60    9.40
  -9 -24   4    9.50    8.50
  -9  24   3    2.00    9.20
  -9 -24   3   -6.70    8.00
  -9  24   2    5.10   10.20
  -9 -24   2    3.90    8.70
  -9  24   1    2.10    9.90
  -9 -24   1    2.40    9.10
   9 -24  -1   -1.30   11.10
  -9  24   0    6.70   10.40
  -9 -24   0    7.50    9.40
   9 -24   0    0.30    9.10
   9 -24   1   36.10   12.00
  -9 -24  -1   44.30   11.00
   9  24   2    4.40   10.10
  -9 -24  -2    7.90   10.00
   9 -24   2    5.70   10.90
   9  24   3    8.60   11.30
  -9 -24  -3   18.20   11.40
   9 -24   3  -11.20    9.90
   9  24   4  -22.90    9.70
   9 -24   4   11.70   10.70
  -9  25   8    1.70    9.10
  -9  25   7   -4.50    9.30
  -9 -25   7   15.00    7.80
  -9  25   6   18.80    9.90
  -9 -25   6    6.80    8.00
  -9  25   5   -4.00    9.50
  -9 -25   5    2.70    8.00
  -9  25   4  -18.80    8.50
  -9 -25   4   12.70    8.70
  -9  25   3   26.80   11.50
  -9 -25   3   40.00   10.10
  -9  25   2    2.80   10.10
  -9 -25   2   14.20    9.50
  -9  25   1   20.40    9.90
   9 -25  -1   10.60   10.30
  -9 -25   1    7.10    9.20
  -9  25   0  -14.30    8.60
   9 -25   0  -20.70   10.00
  -9 -25   0   19.50   10.30
   9 -25   1    1.90    9.80
  -9 -25  -1   11.40    9.90
   9  25   2   -7.30   10.80
   9 -25   2    3.20   10.60
  -9 -25  -2    2.60    9.70
   9  25   3   -3.90   10.20
  -9 -25  -3    0.70   10.80
   9 -25   3    6.50   11.20
  -9  26   7   11.60    9.50
  -9 -26   7  -12.70    6.80
  -9  26   6    3.00    9.80
  -9 -26   6   -5.40    7.70
  -9  26   5   13.80   10.00
  -9 -26   5    6.60    8.50
  -9  26   4   16.00   10.40
  -9 -26   4   -9.40    8.10
  -9  26   3   -3.20   10.10
  -9 -26   3   -2.80    8.30
  -9  26   2   11.40    9.70
  -9 -26   2    2.80    9.30
  -9  26   1   17.10   11.40
   9 -26  -1   10.40   11.50
  -9 -26   1   13.90    9.90
  -9  26   0    7.90   11.10
  -9 -26   0   -2.60    9.40
   9 -26   0   14.10   11.40
  -9 -26  -1    7.70   10.40
   9 -26   1  -12.10   10.60
   9 -26   2    9.50   11.20
  -9 -26  -2   18.00   11.00
   9  26   3   -6.30   10.70
  -9 -26  -3   17.00   11.00
   9 -26   3   -7.40   10.20
  -9  27   6    4.40    9.80
  -9 -27   6    9.50    8.20
  -9  27   5   -8.60    9.00
  -9 -27   5   -3.10    8.20
  -9  27   4   26.90   11.10
  -9 -27   4   27.00    9.80
  -9  27   3   -3.40   10.60
  -9 -27   3   -1.80    8.30
  -9  27   2   23.90   11.40
  -9 -27   2   10.40    9.70
  -9  27   1  -12.00    9.60
   9 -27  -1  -13.20    8.90
  -9 -27   1  -13.70    9.30
  -9  27   0   -2.00    9.10
  -9 -27   0   -6.20    9.10
   9 -27   0   26.40   12.40
   9 -27   1   -2.00   10.80
  -9 -27  -1   -6.30    9.80
   9 -27   2  -24.60   10.20
  -9 -27  -2    4.60   10.60
  -9  28   6    5.70   10.50
  -9 -28   6    3.30    8.40
  -9  28   5  -20.80    9.30
  -9 -28   5   17.40    9.40
  -9  28   4   -1.30   10.60
  -9 -28   4    5.70    9.00
  -9  28   3   30.20   11.80
  -9 -28   3    5.60    9.30
  -9  28   2    0.20   10.40
  -9 -28   2  -16.50    8.60
  -9  28   1   19.00   10.60
  -9 -28   1   27.30   10.70
   9 -28  -1   19.00   12.50
  -9  28   0   14.10   13.50
  -9 -28   0   -3.90   10.30
   9 -28   0   -1.20   11.10
  -9 -28  -1   -6.70    9.60
   9 -28   1   -8.00   11.20
  -9  29   5  -13.50    9.80
  -9 -29   5   -2.20    8.50
  -9  29   4    9.80   11.10
  -9 -29   4    2.50    9.20
  -9  29   3    7.70   11.60
  -9 -29   3   -3.50    9.00
  -9  29   2    3.70   11.40
  -9 -29   2   -8.90    9.30
  -9  29   1   10.70   11.10
  -9 -29   1   11.80   10.70
   9 -29  -1  -10.40   11.70
   9 -29   0    3.80   11.90
  -9 -29   0   14.60   10.40
  -9 -30   3   -9.10    8.90
  -9  30   2   17.90   12.10
  -9 -30   2    3.90    9.80
 -10   0  12   -7.70   10.50
 -10   0  11   10.30   10.60
 -10   0   8   78.69    7.00
 -10   0   7   -7.80    5.10
 -10   0   6   24.70    6.70
 -10   0   5   -7.50    5.60
 -10   0   4    0.10    6.70
 -10   0   3    6.50    6.60
 -10   0   2   86.59    9.80
 -10   0   2   94.99    9.70
 -10   0   1   -4.80    7.50
  10   0  -1    9.70    7.60
 -10   0   1   -7.80    6.40
 -10   0   0   29.90    8.50
  10   0   0    4.80    8.80
 -10   0   0   20.10    8.60
 -10   0  -1    6.90    8.00
 -10   0  -1   -8.10    7.10
  10   0   1  -13.50    8.40
  10   0   2   43.10   10.70
 -10   0  -2   32.30    9.70
  10   0   3   -2.00    9.20
 -10   0  -3    9.30    9.40
  10   0   4   19.00   10.10
  10   0   5   -0.20    8.80
  10   0   6   10.30    9.70
  10   0   7  -12.00    9.00
 -10   1  12   -7.40   10.50
 -10  -1  12   22.00   11.60
 -10   1  11    1.50   10.30
 -10  -1  11    6.00   15.90
 -10   1   8   20.90    5.40
 -10  -1   8   10.80    5.00
 -10   1   7    5.50    5.50
 -10  -1   7    7.80    5.40
 -10   1   6   28.10    6.80
 -10  -1   6   14.60    6.20
 -10   1   5   15.60    6.80
 -10  -1   5   17.10    6.50
 -10   1   4   31.00    7.40
 -10  -1   4   29.50    8.00
 -10   1   3    1.90    6.80
 -10  -1   3    9.50    6.60
 -10   1   2  114.49   11.10
 -10   1   2  115.89   10.10
 -10  -1   2  103.69   10.00
 -10  -1   2  125.39   11.60
  10   1  -1    8.30    8.70
 -10   1   1   -2.60    7.70
 -10   1   1   -4.70    6.50
 -10  -1   1    2.70    6.90
  10  -1  -1   -1.20    7.50
 -10  -1   1  -14.40    6.50
 -10   1   0   12.40    8.10
 -10   1   0   12.10    7.80
  10   1   0  -20.20    8.10
  10  -1   0   11.10    8.40
 -10  -1   0    5.50    7.80
 -10  -1   0    6.50    7.50
 -10   1  -1   12.50    8.90
 -10   1  -1   21.40    8.90
  10   1   1   10.20    8.40
 -10  -1  -1   31.40    9.50
  10  -1   1   -6.50    7.60
 -10  -1  -1   13.40    8.40
  10   1   2   49.70   10.70
 -10   1  -2   62.99   11.20
 -10  -1  -2   35.70    9.20
  10  -1   2   12.70    9.50
 -10   1  -3   11.30   10.90
  10   1   3    7.40    9.50
  10  -1   3   -3.00    9.10
 -10  -1  -3   11.50    9.40
  10   1   4   17.40    9.90
  10  -1   4    5.70    9.20
  10   1   5   15.40    9.10
  10  -1   5   23.10   10.50
  10   1   6   14.60   10.60
  10  -1   6    3.20    9.70
  10   1   7    2.90    9.80
  10  -1   7  -11.00    9.10
 -10   2  12    5.00   11.70
 -10  -2  12   -6.00   10.00
 -10   2  11   11.90   10.90
 -10   2  10   11.90   16.30
 -10   2   8    0.70    5.10
 -10   2   7   71.29    7.70
 -10  -2   7   67.49    7.30
 -10   2   6   16.60    6.60
 -10  -2   6    8.30    5.70
 -10   2   5    2.70    6.30
 -10  -2   5    2.30    6.20
 -10   2   4    9.50    6.60
 -10  -2   4   -3.10    6.20
 -10   2   3   70.29    9.00
 -10  -2   3   49.40    8.50
 -10  -2   3   79.49   10.70
 -10   2   2    4.20    7.80
 -10   2   2    2.90    6.50
 -10  -2   2   17.30    7.20
 -10  -2   2   13.50    7.90
 -10   2   1    6.70    6.90
  10   2  -1   13.50   11.60
 -10   2   1   18.40    7.50
 -10  -2   1   19.70    7.70
 -10  -2   1    9.50    8.10
  10  -2  -1   10.80    8.80
 -10   2   0    7.80    8.10
  10   2   0   -1.70    7.60
 -10   2   0   -7.70    6.90
 -10  -2   0    6.60    7.70
 -10  -2   0    2.40    7.60
  10  -2   0   17.10    9.60
 -10   2  -1    2.10    7.90
 -10   2  -1   16.70    9.10
  10   2   1   13.20    9.10
  10  -2   1   16.20    9.40
 -10  -2  -1   11.90    8.20
 -10  -2  -1   22.70    9.20
 -10   2  -2    7.70    8.90
  10   2   2    1.60    8.10
 -10  -2  -2    2.70    7.70
  10  -2   2   -2.80    8.40
  10   2   3   33.00   10.70
  10  -2   3   13.00    8.80
 -10  -2  -3    0.40    8.70
  10   2   4  -18.80    8.90
  10  -2   4   -2.20    9.10
  10   2   5   16.00    9.80
  10  -2   5    3.70    9.50
  10   2   6   -2.90    9.50
  10  -2   6   -8.60    9.00
  10   2   7   -6.20    9.00
  10  -2   7   10.60   10.20
 -10   3  12  -11.30   11.00
 -10  -3  12    9.60   13.00
 -10   3  11  -16.30    9.70
 -10   3  10    1.60   10.10
 -10   3   8   28.70    5.90
 -10   3   7   13.90    6.20
 -10  -3   7   16.70    5.60
 -10   3   6   21.50    6.70
 -10  -3   6   20.50    6.20
 -10   3   5   -5.10    6.40
 -10  -3   5   -0.10    6.10
 -10   3   4   22.50    7.10
 -10  -3   4    3.90    6.60
 -10   3   3   33.20    7.40
 -10  -3   3   22.50    7.10
 -10  -3   3   35.50    8.30
 -10   3   2   13.10    7.90
 -10   3   2   -0.60    6.40
 -10  -3   2    3.50    7.30
 -10  -3   2    7.00    7.00
 -10   3   1   23.30    7.90
 -10   3   1   15.90    8.70
  10  -3  -1   15.60    9.20
 -10  -3   1   21.70    7.60
 -10  -3   1   24.80    7.90
  10   3   0   19.90    9.30
 -10   3   0    4.60    8.20
 -10   3   0   10.10    7.80
  10  -3   0   -3.50    8.40
 -10  -3   0    8.60    8.40
 -10  -3   0    1.60    7.50
 -10   3  -1   -1.80    7.40
  10   3   1    8.50    8.90
 -10  -3  -1   15.50    8.80
 -10  -3  -1   17.70    8.80
  10  -3   1   30.90    9.20
 -10   3  -2    4.50    7.90
  10   3   2   18.70    8.50
  10  -3   2   14.50    9.70
 -10  -3  -2    3.80    7.80
  10   3   3   17.80    9.80
 -10  -3  -3    9.10    8.20
  10  -3   3   -2.40    9.00
  10   3   4    7.20   10.00
  10  -3   4    5.40    9.80
  10   3   5   16.50   10.30
  10  -3   5   -3.00    9.20
  10   3   6    2.10    9.60
  10  -3   6    9.20   10.30
  10   3   7    6.80    9.90
  10  -3   7   -2.70   10.00
 -10   4  12    1.30   11.70
 -10   4  11   18.50   11.70
 -10   4  10   29.30   10.80
 -10   4   8   27.20    6.10
 -10   4   7   29.50    6.70
 -10  -4   7   28.20    5.90
 -10   4   6    4.70    6.30
 -10  -4   6    1.40    5.80
 -10   4   5   17.40    7.10
 -10  -4   5   24.00    6.90
 -10   4   4   31.40    7.80
 -10  -4   4   29.70    7.70
 -10   4   3   -1.40    6.10
 -10  -4   3   -4.80    6.60
 -10  -4   3   10.70    7.20
 -10   4   2   24.80    8.40
 -10  -4   2   14.60    7.50
 -10  -4   2   15.60    7.50
 -10   4   1   45.30    8.10
 -10   4   1   37.70    9.50
 -10  -4   1   32.60    8.70
 -10  -4   1   51.09    9.70
  10  -4  -1   31.60   10.10
 -10   4   0   32.90    9.00
  10   4   0   51.19   10.50
 -10  -4   0   28.30    8.80
  10  -4   0   27.80    9.10
 -10  -4   0   45.10    9.70
 -10   4  -1   17.30    9.40
  10   4   1    9.00    8.80
 -10  -4  -1    5.50    8.50
 -10  -4  -1   -1.20    8.20
  10  -4   1   -0.80    9.50
 -10   4  -2   -9.10    8.60
  10   4   2   -0.10    7.70
  10  -4   2   -3.30    8.20
 -10  -4  -2   -6.40    8.20
  10   4   3   16.40    9.80
  10  -4   3    2.60    9.70
 -10  -4  -3   -0.90    8.40
  10   4   4   -2.80    7.90
  10  -4   4   -6.10    9.20
  10   4   5    5.90    9.50
  10  -4   5  -10.50    8.60
  10   4   6    4.60   10.50
  10  -4   6    2.80   10.20
  10   4   7   -2.60    9.70
  10  -4   7   10.50   10.00
  10  -4   7    4.20   10.30
 -10   5  12   -8.80   11.50
 -10   5  11    2.80   10.90
 -10   5  10    8.70    9.90
 -10   5   8    4.10    5.40
 -10   5   7   -9.30    5.60
 -10  -5   7    0.90    5.00
 -10   5   6   16.70    6.90
 -10  -5   6   20.30    6.70
 -10   5   5    4.90    6.70
 -10  -5   5   29.40    7.10
 -10   5   4   -1.20    7.00
 -10  -5   4   10.30    7.00
 -10   5   3  132.09   11.20
 -10  -5   3  124.49   10.90
 -10  -5   3  148.89   11.90
 -10   5   2    4.30    7.70
 -10  -5   2   -0.60    7.00
 -10  -5   2    9.80    7.80
 -10   5   1   11.10    7.80
 -10  -5   1    2.70    7.50
  10  -5  -1   17.30    9.20
 -10  -5   1    2.80    7.20
  10   5   0   48.00   10.20
 -10   5   0   46.70    9.70
 -10  -5   0   42.70    9.10
  10  -5   0   48.20   10.70
 -10  -5   0   36.70    9.50
 -10   5  -1   44.40    9.60
  10   5   1   46.70   10.20
  10  -5   1   51.19   10.20
 -10  -5  -1   32.70   13.00
 -10  -5  -1   49.50   10.40
 -10   5  -2   22.60    9.80
  10   5   2   29.40    9.50
  10  -5   2   26.40   10.60
 -10  -5  -2   21.80    9.50
  10   5   3   13.80    9.40
  10  -5   3    9.80    9.40
 -10  -5  -3   -2.90    8.90
  10   5   4   -5.20    8.60
  10  -5   4    5.90    8.50
  10   5   5    8.20    9.80
  10  -5   5    0.70    9.10
  10   5   6   30.90   11.40
  10  -5   6   43.80   11.50
  10  -5   6   33.10   11.20
  10   5   7   10.70   10.00
  10  -5   7   15.70   10.30
 -10   6  12   -8.70   11.70
 -10   6  11    0.60   11.30
 -10   6  10   12.40   10.90
 -10   6   9   18.70   10.00
 -10   6   8    5.20    5.60
 -10   6   7   18.40    6.70
 -10  -6   7   24.70    5.60
 -10   6   6   32.60    7.40
 -10  -6   6   34.30    6.80
 -10   6   5   -7.00    6.20
 -10  -6   5    4.70    6.40
 -10   6   4   -1.00    6.50
 -10  -6   4   -1.20    6.60
 -10   6   3   -6.10    6.90
 -10  -6   3    2.40    6.60
 -10  -6   3    9.90    7.10
 -10   6   2   74.09    9.40
 -10  -6   2   74.99    9.80
 -10  -6   2   56.69    9.60
 -10   6   1   36.70    8.50
  10  -6  -1   68.99   11.10
 -10  -6   1   63.79    9.60
 -10  -6   1   53.89    9.00
 -10   6   0    5.00    7.20
  10   6   0    2.60    8.20
  10  -6   0   31.20   10.10
 -10  -6   0   21.00    8.90
 -10  -6   0    4.80    7.70
 -10   6  -1   54.99   10.60
  10   6   1   42.50   10.20
  10  -6   1   55.19   11.30
 -10  -6  -1   47.80   10.60
 -10   6  -2   11.00    8.50
  10   6   2    1.10    9.40
 -10  -6  -2    1.60    7.60
  10  -6   2    6.70    8.50
  10   6   3   15.00    9.60
 -10  -6  -3    6.70    8.30
  10  -6   3    3.70    9.20
  10   6   4   -5.40    8.80
  10  -6   4   28.00   10.30
  10  -6   4   22.60   10.10
  10   6   5   -0.60    8.70
  10  -6   5  -10.70    8.30
  10  -6   5   10.80    9.80
  10   6   6   18.30   10.10
  10  -6   6   -3.90    9.20
  10  -6   6    8.40   10.20
  10   6   7   -0.30   10.10
  10  -6   7   13.20   10.40
 -10   7  12  -13.30   11.80
 -10   7  11   -3.80   11.10
 -10   7  10   10.20   10.40
 -10   7   8   16.90    6.00
 -10   7   7    5.90    6.10
 -10  -7   7    1.00    5.10
 -10   7   6   11.50    7.00
 -10  -7   6    9.20    6.20
 -10   7   5    3.30    7.00
 -10  -7   5   -0.20    6.10
 -10   7   4   80.49    9.70
 -10  -7   4   79.19    9.50
 -10   7   3    6.90    7.70
 -10  -7   3   14.70    7.70
 -10  -7   3   -1.40    6.90
 -10   7   2   -3.50    7.30
 -10  -7   2    2.50    7.40
 -10  -7   2    9.40    6.90
 -10   7   1   61.89   10.10
  10  -7  -1   58.99   10.10
 -10  -7   1   63.59   10.10
  10  -7  -1   66.39   10.30
 -10  -7   1   74.69    9.70
 -10   7   0   64.59   10.70
  10   7   0   61.09   11.00
  10  -7   0   35.60    9.40
  10  -7   0   53.89   10.20
 -10  -7   0   54.29   10.50
 -10  -7   0   61.59   10.50
  10   7   1   -3.40    8.90
 -10   7  -1   -1.00    7.00
  10  -7   1    1.50    9.10
 -10  -7  -1    6.90    7.80
  10  -7   1    5.80    9.10
 -10   7  -2   15.10    9.10
  10   7   2   -3.70    8.60
 -10  -7  -2    8.70    9.30
  10  -7   2    3.50    9.50
  10  -7   2   18.00    9.90
  10   7   3  -10.10    8.50
  10  -7   3   -2.70    9.10
  10  -7   3    5.80   10.00
 -10  -7  -3    0.90    9.20
  10   7   4   13.90    9.70
  10  -7   4    4.60    9.70
  10  -7   4   13.30   10.00
  10   7   5   19.10   10.30
  10  -7   5    3.90    9.50
  10   7   6   11.30   10.30
  10  -7   6   11.40   10.50
  10   7   7    9.00   10.20
  10  -7   7   16.20   10.80
 -10   8  12    2.10   12.10
 -10   8  11   22.60   12.00
 -10   8   9   28.70    7.10
 -10   8   8    7.60    5.80
 -10   8   7    3.30    6.40
 -10  -8   7    1.70    5.30
 -10   8   6   13.20    7.20
 -10  -8   6   10.70    6.20
 -10   8   5    7.30    7.20
 -10  -8   5   17.40    6.90
 -10   8   4   17.90    8.00
 -10  -8   4    5.20    6.80
 -10   8   3   -0.20    7.30
 -10  -8   3   14.20    7.20
 -10  -8   3   21.90    7.80
 -10   8   2    6.90    8.30
 -10  -8   2   15.70    7.90
 -10  -8   2    8.30    7.40
 -10   8   1    5.60    8.00
 -10  -8   1    5.20    7.90
  10  -8  -1    5.90    8.90
 -10  -8   1   -5.70    7.30
 -10   8   0   54.79   10.10
  10   8   0   55.39   10.80
 -10  -8   0   64.39   10.90
  10  -8   0   65.99   11.00
 -10  -8   0   49.90    9.90
  10  -8   0   69.29   11.40
  10   8   1   14.50    8.80
 -10   8  -1    8.60    8.80
  10  -8   1   -1.00    7.90
 -10  -8  -1   -6.80    8.50
  10  -8   1   12.90    8.70
 -10   8  -2  -11.90    7.20
  10   8   2    4.80    9.60
  10  -8   2   11.50    8.40
  10  -8   2  -23.80    7.00
 -10  -8  -2   15.30    8.20
  10   8   3   -2.00    9.10
  10  -8   3   12.00    9.10
  10  -8   3    5.60    9.50
 -10  -8  -3   -1.60    9.20
  10   8   4    3.80    8.20
  10  -8   4    7.10    9.60
  10   8   5   17.20   10.60
  10  -8   5   -2.00   10.00
  10   8   6   -6.50    9.90
  10  -8   6    5.60    9.80
  10   8   7    5.00    9.80
  10  -8   7    9.40   10.70
 -10   9   9    2.80    6.00
 -10   9   8   18.60    6.40
 -10   9   7    5.10    6.50
 -10  -9   7    1.30    5.30
 -10   9   6  -11.80    6.40
 -10  -9   6    4.60    5.90
 -10   9   5    8.80    7.40
 -10  -9   5   16.90    6.90
 -10   9   4   27.50    8.30
 -10  -9   4   19.00    7.60
 -10   9   3   49.40    9.60
 -10  -9   3   33.70    8.30
 -10  -9   3   44.00    9.00
 -10   9   2   31.30    8.40
 -10  -9   2    6.80    6.90
 -10  -9   2   16.30    8.20
 -10   9   1   -3.70    7.90
 -10  -9   1   10.80    8.40
 -10  -9   1   -4.90    7.60
  10  -9  -1   11.00    9.40
 -10   9   0    9.80    8.60
  10   9   0    0.50    7.80
  10  -9   0    7.20    9.50
 -10  -9   0   21.80   14.40
 -10  -9   0    1.90    8.30
 -10   9  -1    2.00    7.50
  10   9   1  -19.90    8.60
  10  -9   1    2.50    9.60
 -10  -9  -1    0.50    7.30
  10   9   2   12.60    9.00
 -10   9  -2   -6.80    8.10
 -10  -9  -2    7.10    8.70
  10  -9   2   15.80   10.10
  10   9   3  -14.20    7.80
  10  -9   3   -3.20    8.90
 -10  -9  -3   15.00    9.80
  10   9   4    3.10    9.00
  10  -9   4  -10.40    8.90
  10   9   5   15.40   10.40
  10  -9   5   -2.40    9.70
  10   9   6   11.60   10.30
  10  -9   6  -20.30    8.80
  10   9   7  -14.10    8.40
  10  -9   7    0.40   10.50
 -10  10   9   -4.40    5.60
 -10  10   8   -1.10    6.20
 -10  10   7   24.00    7.20
 -10 -10   7   14.70    5.80
 -10  10   6   10.00    7.30
 -10 -10   6   14.10    6.40
 -10  10   5   -4.60    6.60
 -10 -10   5   -9.10    6.10
 -10  10   4   21.60    8.30
 -10 -10   4   12.20    7.50
 -10 -10   4   11.90    9.10
 -10  10   3   43.70    9.20
 -10 -10   3   39.20    8.70
 -10 -10   3   41.20    9.10
 -10  10   2   49.90   10.30
 -10 -10   2   58.99    9.60
 -10 -10   2   64.39   10.20
 -10  10   1   12.50    8.50
  10 -10  -1   20.40    9.60
 -10 -10   1    4.80    6.80
 -10 -10   1    3.50    8.50
 -10  10   0    7.30    8.40
  10  10   0   -7.90    8.80
 -10 -10   0   -6.10    7.20
  10 -10   0   27.10    9.00
  10  10   1   36.20    9.80
 -10  10  -1   11.90    9.20
 -10 -10  -1   16.80    8.90
  10 -10   1   17.00    9.00
  10  10   2  -18.70    9.00
 -10  10  -2    1.10    8.60
 -10 -10  -2    1.90    8.80
  10 -10   2   -2.80    9.00
  10  10   3    5.30    8.20
 -10 -10  -3  -16.80    8.20
  10 -10   3   -3.90    9.30
  10  10   4    2.80    9.70
  10 -10   4   -2.70    9.30
  10  10   5    4.00   10.00
  10 -10   5    6.40   10.00
  10  10   6    3.80   10.50
  10 -10   6   -7.20    9.70
  10  10   7   28.40   11.50
  10 -10   7   21.60   11.30
 -10  11   9   -9.70    5.90
 -10  11   8   10.60    6.90
 -10  11   7   20.40    7.70
 -10 -11   7   18.20    6.00
 -10  11   6   -0.20    6.60
 -10 -11   6    0.00    5.90
 -10  11   5   -2.00    7.30
 -10 -11   5    4.70    6.70
 -10  11   4   -6.90    7.30
 -10 -11   4    7.10    7.20
 -10 -11   4   10.30    8.00
 -10  11   3   36.80    9.40
 -10 -11   3   14.20    7.60
 -10 -11   3   16.70    8.10
 -10  11   2    1.00    7.20
 -10 -11   2   16.90    8.60
 -10 -11   2   20.00    8.00
 -10  11   1    1.20    8.60
  10 -11  -1    7.20    9.30
 -10 -11   1   -5.70    9.10
 -10 -11   1  -11.50    7.40
  10  11   0  -16.40    8.70
 -10  11   0   15.80    8.80
 -10 -11   0   -5.00    8.10
  10 -11   0   -8.40    9.10
  10  11   1   11.60    8.50
 -10  11  -1    1.00    8.60
 -10 -11  -1    0.20    8.20
  10 -11   1  -13.10    9.20
  10  11   2   -0.60    9.50
 -10  11  -2  -16.20    8.10
 -10 -11  -2   14.30    9.10
  10 -11   2   -6.40    8.00
  10  11   3   -1.50    8.30
  10 -11   3  -11.70    9.20
 -10 -11  -3    4.40    9.10
  10  11   4   -4.60    8.50
  10 -11   4  -13.20    9.60
  10  11   5    4.90   10.30
  10 -11   5  -16.90    9.60
  10  11   6   23.40   11.00
  10 -11   6   -1.80   10.00
 -10  12   9   10.60    6.90
 -10  12   8   -0.50    6.30
 -10  12   7   -6.70    6.60
 -10 -12   7   -0.60    5.40
 -10  12   6   -1.00    7.20
 -10 -12   6    7.90    6.30
 -10  12   5   22.30    8.50
 -10 -12   5   33.70    7.90
 -10  12   4   10.80    8.20
 -10 -12   4    7.90    7.90
 -10 -12   4  -13.10    6.40
 -10  12   3   16.10    8.20
 -10 -12   3   35.20    8.60
 -10 -12   3   20.50    8.60
 -10  12   2   59.59   10.50
 -10 -12   2   43.10   10.00
 -10 -12   2   49.00    9.40
 -10  12   1   16.50    8.20
 -10 -12   1   10.10    8.40
  10 -12  -1   15.60    9.60
 -10  12   0    3.00    7.60
 -10 -12   0    9.00    8.80
  10 -12   0    9.30    8.80
  10  12   1   26.40    9.30
 -10  12  -1   18.60    8.70
  10 -12   1   16.00   10.30
 -10 -12  -1    3.40    8.50
  10  12   2    8.90    9.50
 -10  12  -2  -13.90    7.30
 -10 -12  -2  -10.40    7.90
  10 -12   2   -3.70    9.80
  10  12   3   -3.30    8.20
  10 -12   3    6.30    8.70
 -10 -12  -3   23.00    9.50
  10  12   4   -1.10    9.40
  10 -12   4   -8.40    9.70
  10  12   5    2.00   10.10
  10 -12   5  -13.20    9.60
  10  12   6   -0.80    9.20
  10 -12   6   13.50   10.20
 -10  13   9   -2.00    6.60
 -10  13   8   11.40    7.10
 -10  13   7   -6.40    6.60
 -10 -13   7   -0.90    5.40
 -10  13   6   -2.40    7.10
 -10 -13   6    2.30    6.10
 -10  13   5    6.60    7.50
 -10 -13   5   -0.80    6.50
 -10  13   4   24.60    8.70
 -10 -13   4   24.80    9.00
 -10 -13   4   19.50    7.80
 -10  13   3    4.40    7.30
 -10 -13   3   -1.60    7.90
 -10 -13   3  -16.30    6.10
 -10  13   2    8.70    8.60
 -10 -13   2   -2.50    7.10
 -10  13   1    0.40    8.40
 -10 -13   1    5.20    8.50
  10 -13  -1   -6.50    9.10
 -10  13   0   29.60    9.90
  10 -13   0   27.30   10.70
 -10 -13   0   12.00    9.00
  10  13   1   -3.50    8.20
 -10  13  -1    2.00    8.90
 -10 -13  -1   -3.30    7.20
  10 -13   1    4.30    8.50
  10  13   2  -16.60    7.80
 -10  13  -2    4.90   10.50
 -10 -13  -2    4.40    8.50
  10 -13   2    2.00    9.70
  10  13   3   28.40   10.80
  10 -13   3   29.30   10.60
 -10 -13  -3   18.30    8.80
  10  13   4   19.20   10.80
  10 -13   4    1.40   10.00
  10  13   5    8.30   10.30
  10 -13   5   -1.50    9.80
  10  13   6  -15.90    9.40
  10 -13   6    7.90   10.10
 -10  14   9    7.50    7.10
 -10  14   8   12.10    7.30
 -10  14   7    3.30    7.30
 -10 -14   7   -2.00    5.50
 -10  14   6   22.90    8.40
 -10 -14   6   20.20    7.30
 -10  14   5    1.60    7.50
 -10 -14   5    8.90    7.10
 -10  14   4   -7.80    7.50
 -10 -14   4   11.00    8.50
 -10 -14   4  -10.00    6.50
 -10  14   3    9.00    8.10
 -10 -14   3    6.30    7.20
 -10  14   2   34.00    9.80
 -10 -14   2   43.40    9.10
 -10  14   1   31.80   10.10
  10 -14  -1   31.30    9.80
 -10 -14   1   27.40    9.30
 -10  14   0   28.40   10.40
  10 -14   0   35.10   10.80
 -10 -14   0   40.20    9.60
  10  14   1    5.40   10.10
 -10  14  -1   24.00    9.70
  10 -14   1   -7.30    9.00
 -10 -14  -1   -2.50    8.60
  10  14   2   -4.80    9.50
 -10 -14  -2    2.70    9.10
  10 -14   2    3.50    8.40
  10  14   3    8.90    9.70
  10 -14   3    9.80    9.90
 -10 -14  -3   -4.00    9.40
  10  14   4   22.60    9.70
  10 -14   4    8.00   10.10
  10  14   5   -4.00    9.90
  10 -14   5    1.70    9.90
  10  14   6   13.50   10.40
  10 -14   6  -12.30    9.50
 -10  15   9   12.20    7.50
 -10  15   8    1.60    7.70
 -10  15   7    0.80    7.50
 -10 -15   7   25.90    6.50
 -10  15   6    5.20    8.00
 -10 -15   6   -2.50    6.40
 -10  15   5    1.80    7.90
 -10 -15   5    1.90    6.50
 -10  15   4    0.10    8.00
 -10 -15   4    8.20    7.50
 -10  15   3   21.60    8.80
 -10 -15   3   16.30    7.90
 -10  15   2   27.30    9.70
 -10 -15   2   20.50    8.40
 -10  15   1   14.40    9.60
 -10 -15   1   19.90    9.00
  10 -15  -1   11.80   10.10
 -10  15   0   38.90   10.80
 -10 -15   0   10.50    9.20
  10 -15   0   10.50    9.00
  10  15   1   -2.20    9.00
 -10  15  -1    6.10    9.30
 -10 -15  -1    5.20    7.90
  10 -15   1   -2.50    9.40
  10  15   2    4.70    9.70
 -10 -15  -2    0.60    9.10
  10 -15   2    8.00    9.00
  10  15   3    1.80   10.40
 -10 -15  -3  -11.60    8.90
  10 -15   3   12.20   10.50
  10  15   4    6.00   10.70
  10 -15   4   -5.40    9.90
  10  15   5  -13.50    9.30
  10 -15   5    4.20   10.50
  10  15   6   -8.50    9.90
  10 -15   6   21.40   11.00
 -10  16  10   -2.90    7.50
 -10  16   9   -3.90    7.10
 -10  16   8    1.30    7.30
 -10  16   7   14.30    8.10
 -10 -16   7   -2.30    5.70
 -10  16   6   14.10    8.40
 -10 -16   6   21.40    7.50
 -10  16   5   34.10    9.40
 -10 -16   5   23.20    7.90
 -10  16   4    5.30    8.50
 -10 -16   4   -3.60    7.40
 -10  16   3   -6.90    7.20
 -10 -16   3   20.90    8.50
 -10  16   2   21.20    9.40
 -10 -16   2   16.60    9.00
 -10  16   1    5.10    9.20
 -10 -16   1    5.20    8.50
  10 -16  -1    9.00   10.00
 -10  16   0    9.00    9.20
 -10 -16   0    3.10    7.80
  10 -16   0    8.20    9.50
 -10  16  -1   16.50    9.70
  10  16   1   21.50   10.80
  10 -16   1   28.40   11.20
 -10 -16  -1    2.60    9.70
  10  16   2   12.30   10.80
 -10 -16  -2   16.80    8.60
  10 -16   2    7.70   10.20
  10  16   3   -5.90    9.00
  10 -16   3    5.80   10.50
 -10 -16  -3   15.50    9.70
  10  16   4    4.70   10.60
  10 -16   4   11.10   10.40
  10  16   5    1.80    9.70
  10 -16   5   -3.40    9.70
 -10  17  10    4.10    7.20
 -10  17   9    7.40    7.90
 -10  17   8   16.20    8.40
 -10  17   7    0.60    8.00
 -10 -17   7   -1.40    6.20
 -10  17   6   14.30    8.40
 -10 -17   6   10.30    6.90
 -10  17   5    9.50    8.10
 -10 -17   5    4.20    7.20
 -10  17   4   16.90    9.00
 -10 -17   4   20.80    8.50
 -10  17   3    9.30    9.00
 -10 -17   3    5.50    8.00
 -10  17   2    5.70    9.10
 -10 -17   2   -5.70    7.90
 -10  17   1   12.20    9.50
  10 -17  -1   13.70   10.80
 -10 -17   1   15.80    8.90
 -10  17   0   15.20    9.80
  10 -17   0   12.50   10.10
 -10 -17   0   -1.20    8.70
 -10  17  -1   -1.70    8.60
  10  17   1   -8.50    9.30
  10 -17   1   11.80   10.20
 -10 -17  -1  -12.80    8.90
  10  17   2    1.70   10.50
 -10 -17  -2   14.00    9.40
  10 -17   2   22.40   11.10
  10  17   3  -12.90    8.10
 -10 -17  -3   -5.50    9.00
  10 -17   3   18.70   10.90
  10  17   4   18.80   11.20
  10 -17   4    8.50   10.30
  10  17   5   11.40   10.20
  10 -17   5    5.70   10.30
 -10  18  10    4.20    7.40
 -10  18   9    7.70    7.80
 -10  18   8   12.60    8.30
 -10  18   7    3.00    8.30
 -10 -18   7    6.30    6.40
 -10  18   6   17.30    8.50
 -10 -18   6   12.30    6.90
 -10  18   5   19.00    8.70
 -10 -18   5    0.30    7.50
 -10  18   4   10.60    8.80
 -10 -18   4   -4.50    7.10
 -10  18   3    4.10    8.90
 -10 -18   3    1.90    7.50
 -10  18   2    6.50    9.50
 -10 -18   2  -12.40    7.40
 -10  18   1   10.50    9.80
  10 -18  -1   16.60   10.20
 -10 -18   1    5.80    8.90
 -10  18   0    0.80    9.00
  10 -18   0   27.10   11.20
 -10 -18   0   -4.70    9.00
 -10  18  -1   12.10   10.20
 -10 -18  -1    1.80    9.70
  10 -18   1    5.00   10.30
  10  18   2    5.40   10.30
  10 -18   2    1.30   10.30
 -10 -18  -2   -2.60    8.50
  10  18   3    1.10    9.10
 -10 -18  -3    4.10   10.30
  10 -18   3  -19.50    9.50
  10  18   4    1.90   10.60
  10 -18   4   13.40   11.00
  10  18   5    2.20   10.50
  10 -18   5   33.10   11.70
 -10  19   9   -3.40    7.40
 -10  19   8    9.10    8.70
 -10  19   7   15.20    8.80
 -10 -19   7   21.30    7.30
 -10  19   6    9.50    8.80
 -10 -19   6    7.20    7.30
 -10  19   5    5.90    8.90
 -10 -19   5   -6.00    6.90
 -10  19   4   -6.20    8.50
 -10 -19   4   12.00    8.30
 -10  19   3   39.00   10.60
 -10 -19   3   31.10    9.50
 -10  19   2    4.60    9.60
 -10 -19   2    4.20    8.80
 -10  19   1   30.00   10.80
 -10 -19   1   21.80    9.90
  10 -19  -1   23.70   10.90
 -10  19   0   -0.50    9.50
  10 -19   0   -3.30    9.70
 -10 -19   0    8.20    9.80
 -10  19  -1   20.50   10.40
 -10 -19  -1    5.90    9.90
  10 -19   1   -1.90    9.40
  10  19   2   -2.90   10.10
 -10 -19  -2   11.90   10.00
  10 -19   2    1.90   10.60
  10  19   3   -1.10    9.50
 -10 -19  -3   15.70   10.90
  10 -19   3  -13.20   10.10
  10  19   4   -1.40   10.60
  10 -19   4  -11.60   10.00
  10  19   5  -15.40   10.10
  10 -19   5    6.40   10.60
 -10  20   9   -8.90    7.50
 -10  20   8    9.10    8.60
 -10  20   7   19.40    8.90
 -10 -20   7    8.40    7.00
 -10  20   6   18.80    9.60
 -10 -20   6   22.10    8.10
 -10  20   5   17.10    9.50
 -10 -20   5   -4.60    7.30
 -10  20   4    9.70    9.40
 -10 -20   4   12.30    8.30
 -10  20   3    6.10    9.30
 -10 -20   3   17.90    8.90
 -10  20   2    3.00    8.50
 -10 -20   2   -1.00    8.60
 -10  20   1   17.90    9.70
  10 -20  -1    8.00   10.10
 -10 -20   1   17.20    9.50
 -10  20   0    3.40    9.80
  10 -20   0   13.00   10.00
 -10 -20   0   11.20    9.20
 -10  20  -1  -12.00    9.60
  10 -20   1   18.60   10.90
 -10 -20  -1   -8.60    8.70
  10  20   2   16.40   11.40
  10 -20   2    0.10   10.00
 -10 -20  -2   -1.80   10.00
  10  20   3   -6.60   10.50
 -10 -20  -3   20.30   10.80
  10 -20   3    5.90   10.90
  10  20   4   10.70   11.70
  10 -20   4  -13.50   10.20
 -10  21   9    8.30    8.40
 -10  21   8    4.80    8.80
 -10  21   7    8.50    8.90
 -10 -21   7    8.90    6.80
 -10  21   6    5.60    8.90
 -10 -21   6   17.70    7.90
 -10  21   5    4.30    8.60
 -10 -21   5   10.70    8.20
 -10  21   4    4.80    9.00
 -10 -21   4   25.00    9.20
 -10  21   3   -3.00    9.50
 -10 -21   3   -7.30    7.60
 -10  21   2   20.80   10.50
 -10 -21   2    6.50    9.10
 -10  21   1   18.20   10.00
  10 -21  -1   -5.90    9.60
 -10 -21   1   -0.60    8.10
 -10  21   0   11.90    9.00
 -10 -21   0   53.29   11.80
  10 -21   0   14.50    9.20
 -10  21  -1   16.00   12.40
  10 -21   1    3.60   10.40
 -10 -21  -1   16.80   10.20
  10  21   2    4.10    9.20
  10 -21   2  -15.00    9.10
 -10 -21  -2   -9.30    8.90
  10  21   3   -4.40   10.50
  10 -21   3   -4.80    9.40
 -10 -21  -3   -3.30   10.30
  10  21   4   -9.70    9.30
  10 -21   4   -6.60    9.10
 -10  22   8    4.30    8.70
 -10  22   7    2.80    9.00
 -10 -22   7    9.80    7.00
 -10  22   6    5.40    9.10
 -10 -22   6    8.40    7.80
 -10  22   5   12.00    9.10
 -10 -22   5   -9.10    7.90
 -10  22   4   -4.30    9.00
 -10 -22   4  -12.90    7.70
 -10  22   3    1.40    9.70
 -10 -22   3   -9.30    8.00
 -10  22   2    7.20    9.90
 -10 -22   2   -5.20    8.20
 -10  22   1   -0.40   10.00
  10 -22  -1   -0.40    8.90
 -10 -22   1   -0.40    9.60
 -10  22   0   10.40   10.40
  10 -22   0   12.60   10.50
 -10 -22   0    0.20    9.60
  10 -22   1   11.80   10.50
 -10 -22  -1    9.80   10.30
  10  22   2   22.40   11.70
 -10 -22  -2   -4.00   10.10
  10 -22   2  -10.70   10.00
  10  22   3  -15.90    9.80
  10 -22   3   -5.60    9.40
 -10 -22  -3   10.10   10.60
 -10  23   8   -2.90    9.10
 -10  23   7   -8.70    8.60
 -10 -23   7    2.20    7.30
 -10  23   6    7.20    9.30
 -10 -23   6   18.10    8.40
 -10  23   5    5.60    8.90
 -10 -23   5    1.10    8.00
 -10  23   4    7.30   10.00
 -10 -23   4    4.60    8.70
 -10  23   3    9.30    9.80
 -10 -23   3    4.10    8.50
 -10  23   2    5.30   10.10
 -10 -23   2    9.80    9.50
 -10  23   1    7.00    9.60
 -10 -23   1   -1.70    8.70
  10 -23  -1   -9.90    9.90
 -10  23   0   -2.20   10.00
  10 -23   0  -20.20    9.70
 -10 -23   0    0.10    9.90
  10 -23   1    6.70    9.40
 -10 -23  -1  -10.70   10.00
 -10 -23  -2    2.80   10.00
  10 -23   2    0.50   10.40
  10  23   3   15.50   11.20
 -10 -23  -3   -3.20   10.40
  10 -23   3    4.90   10.70
 -10  24   7   10.80    9.50
 -10 -24   7  -15.60    6.80
 -10  24   6   -2.10    9.10
 -10 -24   6    9.70    8.40
 -10  24   5   -2.10    8.80
 -10 -24   5   -2.00    8.30
 -10  24   4   -7.30    9.80
 -10 -24   4   -6.70    8.70
 -10  24   3   11.00   10.70
 -10 -24   3   26.00    9.80
 -10  24   2   -4.80    8.50
 -10 -24   2    1.80    9.60
 -10  24   1   -3.40   10.50
  10 -24  -1    1.80   10.90
 -10 -24   1    5.50    9.80
 -10  24   0  -21.10    8.90
 -10 -24   0    1.60    9.90
  10 -24   0    1.90    9.80
 -10 -24  -1    9.70   10.50
  10 -24   1    9.70   11.40
  10 -24   2    2.90   10.80
 -10 -24  -2    6.60    9.70
 -10  25   7    3.40    9.90
 -10 -25   7   12.90    8.00
 -10  25   6   -3.40    9.20
 -10 -25   6    3.30    8.10
 -10  25   5    0.70    9.40
 -10 -25   5   -0.40    8.40
 -10  25   4  -11.60    9.20
 -10 -25   4   -9.00    8.50
 -10  25   3    9.50   10.90
 -10 -25   3    9.10    9.30
 -10  25   2    3.80   11.00
 -10 -25   2    7.90    9.60
 -10  25   1    9.70   10.20
 -10 -25   1   17.10   10.80
  10 -25  -1    9.60   14.20
 -10  25   0   -4.10   10.90
  10 -25   0    7.50   11.90
 -10 -25   0   -1.30    9.00
 -10 -25  -1    6.80   10.80
  10 -25   1    9.20   11.50
  10 -25   2   -3.40   10.90
 -10 -25  -2    9.00   10.00
 -10  26   6    3.30   10.00
 -10 -26   6   -9.10    7.50
 -10  26   5   19.30   10.60
 -10 -26   5    7.70    9.00
 -10  26   4    7.90   10.40
 -10 -26   4   19.30    9.80
 -10  26   3   -1.80   10.20
 -10 -26   3    4.60    9.60
 -10  26   2    7.50   11.10
 -10 -26   2   -3.10    9.40
 -10  26   1   11.40   11.40
 -10 -26   1   -8.20    9.60
 -10  26   0    2.00   10.30
 -10 -26   0   -8.20    9.90
  10 -26   0    0.80   11.40
 -10 -26  -1    0.60   10.60
  10 -26   1  -17.30   10.20
 -10  27   5    6.70   10.40
 -10 -27   5    6.80    9.00
 -10  27   4   23.60   11.10
 -10 -27   4   11.40    9.90
 -10  27   3    6.60   10.70
 -10 -27   3   15.10   10.20
 -10  27   2  -14.50   10.00
 -10 -27   2   -3.50    9.00
 -10  27   1  -10.90   10.50
 -10 -27   1   -8.00    9.70
 -10  27   0    6.20   11.40
  10 -27   0   11.20   12.40
 -10 -27   0   23.40   11.30
 -10  28   3   -0.60   10.20
 -10 -28   3    8.50   10.00
 -10  28   2   10.20    9.90
 -10 -28   2   -4.10    9.80
 -11   0   8   -1.30    5.20
 -11   0   7    2.90    5.80
 -11   0   6  155.28   11.40
 -11   0   5    2.20    6.80
 -11   0   4   14.30    7.40
 -11   0   3   -8.40    7.50
 -11   0   2   88.79   11.80
 -11   0   1    5.20    8.60
 -11   0   1   10.80    7.90
 -11   0   0   31.20    9.00
 -11   0   0   24.30    9.10
  11   0   0   36.50   11.00
  11   0   1   18.10   10.40
 -11   0  -1    8.10    9.70
  11   0   2   -6.40    9.60
 -11   0  -2   13.70    9.00
  11   0   3    4.40    9.80
  11   0   4   16.50   10.70
  11   0   5    4.70   10.20
  11   0   6   -2.80    9.30
 -11   1   8   10.40    5.70
 -11  -1   8    1.00    5.40
 -11   1   7   26.20    6.70
 -11  -1   7   19.50    6.50
 -11   1   6   -6.60    6.00
 -11  -1   6   13.20    6.50
 -11   1   5   12.20    7.10
 -11  -1   5   19.40    7.10
 -11   1   4  154.78   12.20
 -11  -1   4  131.19   12.10
 -11   1   3   12.70    8.60
 -11  -1   3   30.10    8.50
 -11   1   2   -3.70    8.00
 -11  -1   2    7.50   12.70
 -11  -1   2   -7.10    6.60
 -11   1   1   -6.00    7.40
 -11   1   1   37.20    9.80
 -11  -1   1   15.20    9.00
 -11  -1   1    2.40    7.50
  11   1   0    3.20    9.00
 -11   1   0    1.30    7.80
 -11   1   0   -0.30    8.20
  11  -1   0   12.80    9.60
 -11  -1   0    8.70    8.90
 -11  -1   0    8.10    8.90
 -11   1  -1   -5.60    9.00
  11   1   1   13.20    9.80
 -11  -1  -1   -1.60    9.30
  11  -1   1   32.70   10.90
 -11   1  -2   18.30   10.10
  11   1   2   17.70    9.40
  11  -1   2   24.50   10.60
 -11  -1  -2    5.40    8.30
  11   1   3   -2.20    8.40
  11  -1   3   12.40   10.50
  11   1   4    8.00   10.20
  11  -1   4   14.10   10.00
  11   1   5    5.60   10.60
  11  -1   5    2.50   10.40
  11   1   6   18.00   11.00
  11  -1   6   19.00   11.00
 -11   2   8   27.90    6.40
 -11  -2   8   17.10    5.70
 -11   2   7   63.09    8.20
 -11  -2   7   71.59    8.20
 -11   2   6    3.50    6.70
 -11  -2   6   10.70    6.40
 -11   2   5   37.50    8.30
 -11  -2   5   58.19    8.80
 -11   2   4    0.90    7.20
 -11  -2   4   12.10    7.70
 -11   2   3   48.90    9.30
 -11  -2   3   43.30    8.80
 -11   2   2   -2.50    8.00
 -11  -2   2    1.10    7.20
 -11  -2   2   15.20    8.50
 -11   2   1   14.60    8.20
 -11   2   1   22.30    8.80
 -11  -2   1    4.70    8.60
 -11  -2   1   24.60    8.30
 -11   2   0   -1.90    8.20
 -11   2   0   -3.80    7.50
  11   2   0  -18.50    7.60
 -11  -2   0    4.00    8.90
  11  -2   0   20.50    9.10
  11   2   1   20.60   10.50
 -11   2  -1   16.00    9.80
  11  -2   1   11.60    9.90
 -11  -2  -1    7.80    9.60
  11   2   2   18.60    9.40
 -11   2  -2   13.90    9.70
  11  -2   2   -0.90    9.60
 -11  -2  -2    0.70    9.10
  11   2   3   18.00    9.90
  11  -2   3   11.50   10.20
  11   2   4   -5.00    9.20
  11  -2   4   14.80   10.20
  11   2   5    3.30   10.00
  11  -2   5    1.00    9.80
  11   2   6    9.10    9.90
  11  -2   6   -3.70    9.10
 -11   3   8   18.70    6.30
 -11  -3   8   19.00    5.60
 -11   3   7   -1.00    6.00
 -11  -3   7    6.10    6.00
 -11   3   6    9.90    6.80
 -11  -3   6   12.70    6.40
 -11   3   5   25.40    8.00
 -11  -3   5   22.80    8.10
 -11   3   4   17.10    7.60
 -11  -3   4   24.10    8.20
 -11   3   3    5.80    7.80
 -11  -3   3    8.50    7.90
 -11   3   2    0.40    8.00
 -11  -3   2    3.50    7.90
 -11  -3   2   -4.50    7.00
 -11   3   1   33.60   10.00
 -11   3   1   31.40    8.40
 -11  -3   1   43.10    9.50
 -11  -3   1   13.80    8.10
 -11   3   0   -9.80    7.60
  11   3   0  -10.10    7.80
 -11   3   0   10.00    9.30
  11  -3   0   15.70    8.70
 -11  -3   0   16.70    8.60
  11   3   1   15.90   10.10
 -11   3  -1   28.00   10.60
  11  -3   1   20.80    9.40
 -11  -3  -1   24.60    9.70
  11   3   2   14.50   10.50
 -11   3  -2   25.70   10.40
  11  -3   2   31.70   10.80
 -11  -3  -2    7.10    9.40
  11   3   3   25.00   10.90
 -11  -3  -3   33.10   13.00
  11  -3   3    7.20   10.50
  11   3   4   -1.00   10.00
  11  -3   4    4.10   10.00
  11   3   5    5.10   10.50
  11  -3   5    8.80   10.30
  11   3   6    2.10   10.60
  11  -3   6    4.70   10.60
 -11   4   8    9.50    5.90
 -11  -4   8   -3.40    5.00
 -11   4   7    7.70    6.60
 -11  -4   7   -4.80    5.40
 -11   4   6   46.90    8.70
 -11  -4   6   60.89    8.40
 -11   4   5   12.00    7.50
 -11  -4   5    6.90    7.40
 -11   4   4   12.20    7.50
 -11  -4   4    8.20    7.90
 -11   4   3   -8.90    7.00
 -11  -4   3    5.40    7.70
 -11   4   2   40.60    8.60
 -11  -4   2   50.59   10.20
 -11  -4   2   31.30    8.90
 -11   4   1    9.40    7.50
 -11   4   1    2.60    8.60
 -11  -4   1   -1.20    7.50
 -11  -4   1   -2.70    7.70
 -11   4   0   24.50   10.40
  11   4   0   11.80    9.20
 -11   4   0   32.80    9.10
 -11  -4   0   40.20    9.60
  11  -4   0  -11.20    9.30
 -11   4  -1   -7.20    9.30
  11   4   1   23.30    9.10
  11  -4   1    5.50    9.70
 -11  -4  -1   18.70    9.50
 -11   4  -2  -17.90    8.80
  11   4   2   -0.70    9.50
 -11  -4  -2    4.30    9.00
  11  -4   2   10.80    9.90
  11   4   3    9.40    9.00
  11  -4   3    6.30   10.10
 -11  -4  -3   13.20    9.00
  11   4   4    2.10   10.20
  11  -4   4   -5.20   10.20
  11   4   5   17.60    9.80
  11  -4   5   -1.10   10.30
  11   4   6  -19.30    9.50
  11  -4   6   -8.10   10.00
  11  -4   6    5.30   11.00
 -11   5   8  -10.20    5.50
 -11  -5   8    3.50    6.30
 -11   5   7   14.70    7.10
 -11  -5   7   -0.50    5.50
 -11   5   6   -0.40    6.40
 -11  -5   6   -8.30    6.30
 -11   5   5   51.59    9.10
 -11  -5   5   49.80    8.70
 -11   5   4   19.70    8.20
 -11  -5   4   16.70    8.10
 -11   5   3   62.19   10.00
 -11  -5   3   45.50    9.20
 -11   5   2   29.00    9.20
 -11  -5   2   18.90    8.20
 -11  -5   2   19.40    8.70
 -11   5   1   -0.60    7.10
 -11  -5   1   -7.60    7.90
 -11  -5   1   26.20    8.70
  11   5   0   10.20    9.60
 -11   5   0    8.60    8.00
 -11   5   0    5.90    8.90
 -11  -5   0   10.40    9.30
  11  -5   0   24.10   10.40
 -11   5  -1   -4.80    9.00
  11   5   1   13.60    9.80
  11  -5   1    7.50   10.30
 -11  -5  -1   -6.50    8.80
  11   5   2   11.40    9.20
 -11   5  -2   30.70   10.60
 -11  -5  -2    4.20    9.50
  11  -5   2   18.00    9.30
  11   5   3   -5.80    9.00
 -11  -5  -3   -1.30    9.30
  11  -5   3   -5.80    9.90
  11   5   4    2.10    9.60
  11  -5   4    0.50   10.40
  11   5   5    4.50   10.20
  11  -5   5   32.50   11.80
  11  -5   5    6.30   10.70
  11   5   6   -9.60   10.10
  11  -5   6    8.40   10.20
  11  -5   6  -10.00    9.60
 -11   6   8   11.50    6.60
 -11   6   7   -2.70    6.20
 -11  -6   7    2.30    5.50
 -11   6   6   -8.60    6.40
 -11  -6   6    2.10    6.50
 -11   6   5    7.40    7.30
 -11  -6   5   -1.60    6.90
 -11   6   4    4.70    7.70
 -11  -6   4   -0.50    6.90
 -11   6   3   27.80    9.20
 -11  -6   3   26.50    8.50
 -11   6   2    9.40    8.00
 -11  -6   2    2.70    7.70
 -11  -6   2    8.60    7.80
 -11   6   1  -10.30    8.10
 -11  -6   1   -7.80    7.30
 -11  -6   1   12.80    9.10
 -11   6   0    1.20    7.80
  11   6   0   15.70   10.00
  11  -6   0    7.30    8.90
 -11  -6   0   14.80    9.10
  11   6   1   35.10   11.00
 -11   6  -1   20.90    9.60
 -11  -6  -1   30.70    9.60
  11  -6   1   25.20   11.30
 -11   6  -2   -6.90    9.00
  11   6   2   -0.80    9.60
 -11  -6  -2    4.10    9.50
  11  -6   2    5.10    8.90
  11   6   3    9.90    9.60
  11  -6   3   -2.40    9.80
  11  -6   3    2.10   10.10
 -11  -6  -3   -4.90    9.20
  11   6   4    4.90   10.30
  11  -6   4  -11.90    9.20
  11  -6   4    7.40   10.80
  11   6   5   -3.20   10.20
  11  -6   5    6.00   10.00
  11  -6   5    2.90   10.10
  11   6   6    0.50   10.60
  11  -6   6   -3.40    9.90
 -11   7   9   12.90    7.30
 -11   7   8    7.10    6.60
 -11   7   7   21.10    7.50
 -11  -7   7   10.90    6.00
 -11   7   6    1.70    7.10
 -11  -7   6   20.80    7.20
 -11   7   5    2.40    7.30
 -11  -7   5    7.00    7.10
 -11   7   4   14.80    8.10
 -11  -7   4   25.40    8.20
 -11   7   3    4.00    7.10
 -11  -7   3   -0.40    7.40
 -11   7   2    6.20    7.50
 -11  -7   2    8.10    8.20
 -11  -7   2   -5.50    7.70
 -11   7   1   62.29   10.80
 -11  -7   1   35.50    9.60
 -11   7   0    5.40    7.90
 -11  -7   0    5.80    9.00
  11  -7   0   27.80   10.70
  11  -7   0   22.00   10.70
 -11   7  -1    0.30    7.90
  11   7   1  -15.00    8.60
 -11  -7  -1    7.40    9.20
  11  -7   1   14.80    9.30
  11  -7   1   14.60   10.10
 -11   7  -2   -1.70    9.30
  11   7   2   -8.20    9.00
 -11  -7  -2   10.50    8.50
  11  -7   2    6.10    9.70
  11  -7   2    9.90    9.40
  11   7   3    6.40    8.40
  11  -7   3    2.90   10.10
 -11  -7  -3    5.20    9.70
  11  -7   3   19.60   10.90
  11   7   4    8.70   10.00
  11  -7   4   10.50   10.50
  11  -7   4   16.10   10.50
  11   7   5   21.80   11.20
  11  -7   5   -7.10    9.50
  11   7   6   10.50   11.10
  11  -7   6   15.70   11.50
 -11   8   9    7.20    6.00
 -11   8   8  -11.20    5.80
 -11   8   7    1.20    6.80
 -11  -8   7    3.50    6.00
 -11   8   6   11.90    7.70
 -11  -8   6   11.70    7.00
 -11   8   5    9.50    7.70
 -11  -8   5    2.60    7.10
 -11   8   4   -7.10    6.90
 -11  -8   4    0.10    7.40
 -11   8   3   11.60    8.30
 -11  -8   3    5.40    7.60
 -11  -8   3    2.80   12.00
 -11   8   2   19.30    9.30
 -11  -8   2   20.20    9.00
 -11  -8   2   25.60    8.70
 -11   8   1    0.10    8.30
 -11  -8   1    9.10    8.90
 -11   8   0   -6.50    8.30
  11  -8   0    4.80    9.80
 -11  -8   0   -6.90    8.50
 -11   8  -1   -4.30    7.50
  11   8   1    2.10    8.20
 -11  -8  -1   -5.50    9.00
  11  -8   1   15.20    9.20
  11  -8   1  -21.90    7.70
 -11   8  -2   -2.30    9.00
  11   8   2  -20.00    7.30
  11  -8   2   -6.50    9.30
 -11  -8  -2    7.90    8.30
  11   8   3   -2.20    9.40
 -11  -8  -3    9.00    9.80
  11  -8   3    3.80   10.20
  11   8   4    3.10    9.90
  11  -8   4   -0.10   10.10
  11   8   5    1.20   10.30
  11  -8   5   10.70   10.80
  11   8   6   -3.30   10.00
  11  -8   6    6.90   10.90
 -11   9   9   -3.30    5.80
 -11   9   8  -12.80    6.20
 -11   9   7   -3.30    6.70
 -11  -9   7    8.70    6.20
 -11   9   6   13.60    7.80
 -11  -9   6   21.80    7.20
 -11   9   5    6.90    7.70
 -11  -9   5   21.00    7.60
 -11   9   4    0.90    7.80
 -11  -9   4   -7.00    6.90
 -11   9   3   -5.70    8.00
 -11  -9   3    2.10    8.20
 -11  -9   3   12.20    8.20
 -11   9   2   -6.50    8.50
 -11  -9   2    2.40    9.10
 -11  -9   2   -7.90    7.70
 -11   9   1   -0.50    7.70
 -11  -9   1  -12.70    7.60
 -11   9   0   22.50    9.80
 -11  -9   0    0.30    9.10
  11  -9   0   -9.30    8.30
  11   9   1    1.80    9.70
 -11   9  -1    2.10    7.90
  11  -9   1   10.60   10.70
 -11  -9  -1   -1.10    9.00
  11   9   2   16.80    9.50
 -11   9  -2   21.00   10.20
  11  -9   2    2.50   10.40
 -11  -9  -2    1.00    8.70
  11   9   3   -4.10    9.10
 -11  -9  -3  -15.30    9.40
  11  -9   3   -7.00    9.80
  11   9   4   15.30   10.80
  11  -9   4   -2.70   10.00
  11   9   5   -1.60   10.40
  11  -9   5   12.30   11.00
  11   9   6    1.70   10.40
  11  -9   6   -1.50   10.20
 -11  10   9    1.90    6.50
 -11  10   8    4.10    6.70
 -11  10   7    2.00    6.90
 -11 -10   7    0.00    5.80
 -11  10   6    6.00    7.70
 -11 -10   6   -6.00    6.20
 -11  10   5  -10.60    7.30
 -11 -10   5   14.30    7.70
 -11  10   4   10.40    8.10
 -11 -10   4    0.20    7.70
 -11  10   3    5.00    8.30
 -11 -10   3   20.40    8.40
 -11 -10   3   13.90    8.40
 -11  10   2    5.70    8.50
 -11 -10   2   13.20    8.40
 -11  10   1    1.70    8.60
 -11 -10   1   -1.30    8.40
 -11  10   0   -3.00    8.90
 -11 -10   0   21.70   10.10
  11 -10   0    7.50    9.80
  11  10   1   -4.30    9.90
 -11  10  -1    6.80    9.20
 -11 -10  -1    9.40    9.70
  11 -10   1   -9.40    9.80
 -11  10  -2   23.40   10.40
  11  10   2   11.90    9.40
  11 -10   2    1.20   10.40
 -11 -10  -2    8.50    8.60
  11  10   3  -15.10    8.80
 -11 -10  -3  -10.70    9.50
  11 -10   3   11.70   11.20
  11  10   4   29.30   11.60
  11 -10   4    4.30   10.40
  11  10   5   -8.50    9.70
  11 -10   5  -21.40   10.00
 -11  11   9  -18.20    6.20
 -11  11   8    9.70    7.10
 -11  11   7   26.20    8.30
 -11 -11   7   24.70    7.00
 -11  11   6    8.20    7.60
 -11 -11   6    0.80    6.50
 -11  11   5   -2.00    7.50
 -11 -11   5  -10.90    6.80
 -11  11   4   10.40    8.30
 -11 -11   4    2.30    7.60
 -11  11   3  -11.90    7.40
 -11 -11   3   -4.40    7.10
 -11  11   2   -7.50    7.30
 -11 -11   2   -3.10    7.80
 -11  11   1   -2.30    8.80
 -11 -11   1    7.20    8.80
 -11  11   0  -12.70    8.70
  11 -11   0   -0.70   10.10
 -11 -11   0    5.10    9.40
 -11  11  -1   11.90    9.60
  11  11   1   26.40   11.00
  11 -11   1   13.50   10.80
 -11 -11  -1    4.40    9.10
 -11  11  -2   -9.20    9.30
  11  11   2   17.60    9.80
  11 -11   2   15.40   10.50
 -11 -11  -2   14.40    9.70
  11  11   3   11.00    9.50
  11 -11   3   13.10   11.30
 -11 -11  -3    4.60    9.80
  11  11   4    7.30   10.50
  11 -11   4   12.30   10.10
  11  11   5   13.20   10.50
  11 -11   5   -2.00   10.90
 -11  12   9   10.30    7.10
 -11  12   8    8.00    7.10
 -11  12   7   10.80    7.70
 -11 -12   7    9.80    6.60
 -11  12   6    1.30    7.50
 -11 -12   6    6.20    6.80
 -11  12   5   -0.90    7.40
 -11 -12   5    0.30    7.30
 -11  12   4    1.30    7.80
 -11 -12   4   -9.60    6.90
 -11  12   3   -6.90    7.10
 -11 -12   3   -3.10    7.70
 -11  12   2    2.80    7.90
 -11 -12   2   -1.00    8.30
 -11  12   1   26.80   10.10
 -11 -12   1   18.30    9.60
 -11  12   0   -7.80    9.00
  11 -12   0    4.80   10.20
 -11 -12   0    3.60    9.10
  11  12   1    7.10   10.00
 -11  12  -1  -14.60    8.80
  11 -12   1    0.70   10.40
 -11 -12  -1   -3.40    8.60
  11  12   2   19.30   11.00
  11 -12   2    2.70   10.40
 -11 -12  -2    2.20    9.70
  11  12   3    4.00   10.90
  11 -12   3    4.60   10.60
 -11 -12  -3   -7.50    9.30
  11  12   4    0.40    9.80
  11 -12   4   -5.70   10.00
  11  12   5   -7.20   10.10
  11 -12   5    8.20   11.30
 -11  13   9   -6.50    6.80
 -11  13   8   -5.10    7.20
 -11  13   7    4.80    7.70
 -11 -13   7    2.90    6.50
 -11  13   6   15.80    8.20
 -11 -13   6    3.00    6.90
 -11  13   5    2.90    8.00
 -11 -13   5    6.40    7.50
 -11  13   4    6.50    8.00
 -11 -13   4   11.70    8.20
 -11  13   3   18.70    8.20
 -11 -13   3   19.40    8.60
 -11  13   2  -15.30    7.90
 -11 -13   2   11.00    8.30
 -11  13   1   33.00   10.80
 -11 -13   1   16.10    9.30
 -11  13   0    7.40    9.10
  11 -13   0   -4.30    9.70
 -11 -13   0   -0.60    8.20
 -11  13  -1   11.60    9.70
  11  13   1   12.10    9.30
 -11 -13  -1   -0.10    7.90
  11 -13   1  -11.70    9.00
  11  13   2   19.10   11.00
  11 -13   2   -8.90   10.20
 -11 -13  -2    5.90    8.60
  11  13   3  -12.80    9.70
 -11 -13  -3   -2.00    9.40
  11 -13   3    4.30   10.40
  11  13   4  -13.20   10.30
  11 -13   4   15.10   10.80
  11  13   5   10.70   10.80
  11 -13   5  -12.40    9.50
 -11  14   9    1.90    7.00
 -11  14   8   -6.00    7.20
 -11  14   7  -14.00    7.30
 -11 -14   7    0.00    6.20
 -11  14   6    9.10    8.50
 -11 -14   6   -1.90    6.90
 -11  14   5   -3.30    8.10
 -11 -14   5  -16.30    6.70
 -11  14   4   -7.70    7.70
 -11 -14   4    2.80    7.40
 -11  14   3    5.50    8.80
 -11 -14   3   23.30    8.90
 -11  14   2   -1.70    7.90
 -11 -14   2    2.20    8.20
 -11  14   1    6.90    9.80
 -11 -14   1   25.70    9.20
 -11  14   0    8.30    9.50
 -11 -14   0   12.00    9.40
  11 -14   0    0.10    8.90
 -11  14  -1   12.60    9.70
  11  14   1    1.00   12.40
 -11 -14  -1    3.00    9.40
  11 -14   1    7.90   10.30
  11  14   2   12.60   10.80
  11 -14   2    6.00   10.50
 -11 -14  -2   -5.90    9.50
  11  14   3    3.00   10.70
 -11 -14  -3   -3.30    9.90
  11 -14   3    3.10   10.30
  11  14   4   10.30   11.40
  11 -14   4   -1.60   10.30
  11  14   5  -12.00   10.00
  11 -14   5  -12.50    9.50
 -11  15   9   15.80    8.10
 -11  15   8    4.70    7.70
 -11  15   7    6.60    8.00
 -11 -15   7    6.90    6.70
 -11  15   6   -1.50    8.10
 -11 -15   6    7.20    7.30
 -11  15   5    0.20    8.00
 -11 -15   5   -7.90    7.00
 -11  15   4   -1.60    8.50
 -11 -15   4   -2.10    7.50
 -11  15   3   -3.40    8.90
 -11 -15   3    4.00    7.90
 -11  15   2    3.70    8.10
 -11 -15   2    1.60    8.10
 -11  15   1    9.00    9.60
 -11 -15   1   11.40    9.40
 -11  15   0    0.30    9.60
 -11 -15   0    9.20    9.30
  11 -15   0   -3.30    8.80
 -11  15  -1    5.40    9.60
 -11 -15  -1    7.80    9.70
  11 -15   1    4.90   10.10
  11  15   2    2.10   10.50
  11 -15   2    4.00   10.80
 -11 -15  -2   -1.70    9.80
  11  15   3   -5.90    9.80
  11 -15   3  -25.50    9.10
 -11 -15  -3   14.60   10.60
  11  15   4   16.50   10.60
  11 -15   4   15.00   11.50
 -11  16   9    6.00    7.90
 -11  16   8   -3.90    7.60
 -11  16   7    1.80    8.20
 -11 -16   7   11.00    7.30
 -11  16   6    2.50    8.30
 -11 -16   6    2.70    7.40
 -11  16   5    7.40    8.80
 -11 -16   5   11.40    8.00
 -11  16   4   -1.70    8.60
 -11 -16   4   -6.80    6.70
 -11  16   3    3.40    9.30
 -11 -16   3    1.30    7.60
 -11  16   2   -3.20    8.90
 -11 -16   2    0.30    8.70
 -11  16   1   -2.50    9.50
 -11 -16   1    2.60    8.80
 -11  16   0   -9.10    9.20
  11 -16   0    9.00    9.70
 -11 -16   0    2.90    9.90
 -11  16  -1   18.60    9.50
  11 -16   1  -20.00    9.70
 -11 -16  -1    2.50    8.60
  11  16   2  -13.20   10.30
  11 -16   2   -8.80   10.70
 -11 -16  -2   12.70   10.70
  11  16   3    2.70    9.70
 -11 -16  -3   23.60   10.90
  11 -16   3   18.20   10.80
  11  16   4   -9.90    9.80
  11 -16   4  -18.50    9.90
 -11  17   9    7.70    8.30
 -11  17   8    2.10    8.20
 -11  17   7   -3.40    8.00
 -11 -17   7    0.90    6.90
 -11  17   6    1.80    8.60
 -11 -17   6    6.50    7.50
 -11  17   5  -13.70    7.90
 -11 -17   5    6.40    7.60
 -11  17   4  -13.00    7.70
 -11 -17   4   -7.00    7.70
 -11  17   3    9.50    9.70
 -11 -17   3    9.00    8.60
 -11  17   2    8.90    9.90
 -11 -17   2   -0.80    8.00
 -11  17   1    2.30    8.80
 -11 -17   1   10.20    9.70
 -11  17   0  -11.80    9.50
 -11 -17   0   -5.50    9.30
  11 -17   0    8.40    9.50
 -11  17  -1   -0.20    9.60
 -11 -17  -1    2.10    8.70
  11 -17   1   -9.50   10.10
  11  17   2   -5.70   10.70
  11 -17   2    5.50   11.20
 -11 -17  -2    2.70   10.20
  11  17   3   -9.20   10.30
 -11 -17  -3   18.90   11.20
  11 -17   3  -15.30    9.50
  11  17   4    8.70   11.00
  11 -17   4    3.30   10.80
 -11  18   9    2.60    8.10
 -11  18   8    1.60    8.50
 -11  18   7   13.60    8.80
 -11 -18   7    9.80    7.30
 -11  18   6   22.10    9.20
 -11 -18   6   -5.20    7.20
 -11  18   5   -4.20    8.10
 -11 -18   5    9.00    8.10
 -11  18   4  -14.50    8.70
 -11 -18   4  -15.80    7.30
 -11  18   3   -9.20    8.70
 -11 -18   3    2.60    8.20
 -11  18   2   -0.80    9.90
 -11 -18   2   -6.00    8.90
 -11  18   1    1.30   10.00
 -11 -18   1   -1.60    9.40
 -11  18   0   -7.60    9.90
  11 -18   0   -1.30   10.40
 -11 -18   0   -2.20   10.00
 -11  18  -1    7.40   10.30
  11 -18   1   -3.20   10.80
 -11 -18  -1    6.40    9.00
  11  18   2   15.30   11.90
 -11 -18  -2   -0.10   10.30
  11 -18   2   18.90   11.50
  11  18   3   -7.20    9.80
 -11 -18  -3   15.00   11.40
  11 -18   3    5.90   10.70
  11  18   4   14.20   10.70
  11 -18   4   -5.10   10.30
 -11  19   9   -7.60    7.60
 -11  19   8   14.50    8.80
 -11  19   7   -2.40    8.50
 -11 -19   7   -3.00    6.90
 -11  19   6    3.50    8.70
 -11 -19   6    9.30    7.60
 -11  19   5   10.80    9.20
 -11 -19   5    7.70    8.30
 -11  19   4    5.20    9.30
 -11 -19   4   11.90    9.10
 -11  19   3   -0.20    9.30
 -11 -19   3   -1.30    8.20
 -11  19   2   11.10    9.20
 -11 -19   2   -5.20    8.60
 -11  19   1    0.20   10.30
 -11 -19   1   -4.00    9.10
 -11  19   0   -0.50    8.90
  11 -19   0   -7.30   10.50
 -11 -19   0   -3.90    9.70
 -11  19  -1   11.00   10.70
  11 -19   1   22.00   12.30
 -11 -19  -1   -4.70    9.70
  11  19   2   -0.50   11.10
  11 -19   2   17.50   10.70
 -11 -19  -2    7.20   10.60
  11  19   3   12.20   11.50
  11 -19   3  -27.40   10.00
 -11 -19  -3    5.20   10.90
 -11  20   8    1.80    8.60
 -11  20   7   -2.60    8.30
 -11 -20   7    1.40    7.20
 -11  20   6   -4.80    8.30
 -11 -20   6   -9.50    7.20
 -11  20   5   -5.70    8.70
 -11 -20   5    2.90    8.10
 -11  20   4    7.80    9.90
 -11 -20   4   -5.10    8.10
 -11  20   3   14.20    9.80
 -11 -20   3    4.00    8.60
 -11  20   2   11.20   10.80
 -11 -20   2   25.30    9.90
 -11  20   1   -2.20    9.80
 -11 -20   1    5.00    9.30
 -11  20   0    8.50   10.10
 -11 -20   0    1.30    9.60
  11 -20   0  -21.00   10.00
 -11 -20  -1    7.10   10.90
  11 -20   1    5.90   10.90
  11  20   2  -16.10   15.00
  11 -20   2  -10.80   10.20
 -11 -20  -2  -13.00    8.60
  11  20   3   -8.00   10.90
  11 -20   3    6.30   11.00
 -11 -20  -3    0.70    9.30
 -11  21   8  -16.80    8.30
 -11  21   7    2.60    9.10
 -11 -21   7    6.30    7.40
 -11  21   6    6.00    9.70
 -11 -21   6   13.40    8.20
 -11  21   5    0.10    9.20
 -11 -21   5   -2.50    8.00
 -11  21   4   -9.00    9.30
 -11 -21   4   -4.90    8.70
 -11  21   3    5.20   10.60
 -11 -21   3    5.70    9.00
 -11  21   2   -5.00    9.60
 -11 -21   2    1.30    9.20
 -11  21   1   -1.00   10.00
 -11 -21   1   -3.70    9.10
 -11  21   0    4.10   10.10
 -11 -21   0   -0.20    9.60
  11 -21   0   -4.00    9.00
  11 -21   1   10.80   10.60
 -11 -21  -1  -11.10    9.50
 -11 -21  -2    6.30   10.80
  11 -21   2    9.40   11.20
 -11  22   7   -0.70    9.10
 -11 -22   7   10.00    7.90
 -11  22   6    3.90    9.80
 -11 -22   6    2.40    8.00
 -11  22   5   -0.40    9.50
 -11 -22   5   17.00    9.40
 -11  22   4   14.30    9.80
 -11 -22   4  -10.70    8.20
 -11  22   3   12.00   10.90
 -11 -22   3   11.90    9.20
 -11  22   2    0.40   10.50
 -11 -22   2    9.30   10.10
 -11  22   1    0.40   10.50
 -11 -22   1    1.90    9.80
 -11  22   0    8.10   10.40
 -11 -22   0   -7.00   10.00
  11 -22   0  -19.00    9.80
 -11 -22  -1  -13.10   10.10
  11 -22   1   10.00   11.50
 -11 -22  -2   14.50   10.40
  11 -22   2   16.40   11.20
 -11  23   6    0.20    9.30
 -11 -23   6    7.30    8.00
 -11  23   5  -11.90    8.50
 -11 -23   5   10.50    8.90
 -11  23   4    5.60    9.90
 -11 -23   4   15.90    9.20
 -11  23   3   -6.70    9.60
 -11 -23   3  -13.90    8.40
 -11  23   2   13.90    9.80
 -11 -23   2   12.20    9.60
 -11  23   1    4.40   11.00
 -11 -23   1   -2.70    9.30
 -11  23   0  -10.40   10.60
 -11 -23   0  -17.50    9.60
  11 -23   0    6.20   11.10
 -11 -23  -1   -4.00   10.30
  11 -23   1   -5.80   10.10
 -11  24   6  -15.00    8.90
 -11 -24   6    1.20    8.40
 -11  24   5  -13.40    9.30
 -11 -24   5    1.60    9.00
 -11  24   4   11.20   10.40
 -11 -24   4   -2.20    9.10
 -11  24   3   18.40   11.40
 -11 -24   3   13.20   10.10
 -11  24   2    7.60   11.10
 -11 -24   2   -1.90    9.30
 -11  24   1    0.10   11.00
 -11 -24   1   -5.30    9.60
 -11  24   0    1.60   10.50
 -11 -24   0   -9.80    8.80
  11 -24   0    5.10   10.70
 -11  25   5   -7.80    9.50
 -11 -25   5   -6.40    8.40
 -11  25   4   -7.70   10.00
 -11 -25   4   15.80   10.00
 -11  25   3    3.60   11.20
 -11 -25   3    5.60    9.80
 -11  25   2   -7.30   10.20
 -11 -25   2  -10.10    9.10
 -11  25   1    7.10   11.90
 -11 -25   1   27.90   11.20
 -12   0   8   66.99    8.20
 -12   0   7   -4.40    6.40
 -12   0   6   14.50    7.70
 -12   0   5   -0.60    7.20
 -12   0   4    7.90    7.90
 -12   0   3  -10.30    7.80
 -12   0   2   -5.90    7.60
 -12   0   1   12.80    9.70
  12   0   0   32.60   13.80
 -12   0   0   38.50   10.70
  12   0   1   -5.00    8.70
 -12   0  -1   -7.50    9.20
  12   0   2   41.50   11.10
 -12   0  -2   17.10   11.00
  12   0   3    6.20    9.30
  12   0   4   12.80   11.50
  12   0   5  -13.50    9.40
 -12   1   8    8.80    6.60
 -12  -1   8    9.20    6.20
 -12   1   7    9.60    7.10
 -12  -1   7    4.60    6.80
 -12   1   6    9.50    7.50
 -12  -1   6    7.10    7.40
 -12   1   5   25.50    8.30
 -12  -1   5   20.30    8.00
 -12   1   4   13.70    8.00
 -12  -1   4   -5.70    7.60
 -12   1   3   -6.00    7.30
 -12  -1   3    2.60    8.50
 -12   1   2   19.70    9.00
 -12  -1   2   18.00    9.10
 -12   1   1    2.60    9.20
 -12  -1   1    3.90    9.40
 -12   1   0   -2.60    8.40
  12  -1   0   -1.10   10.10
 -12  -1   0    6.70   10.10
 -12   1  -1    3.60    9.90
  12   1   1   12.50   10.50
 -12  -1  -1  -12.30    9.10
  12  -1   1  -17.40    9.50
 -12   1  -2   -6.00    8.40
  12   1   2   10.00   11.40
  12  -1   2    7.50   10.80
 -12  -1  -2   13.10    9.40
  12   1   3   16.00   11.20
  12  -1   3    3.90   10.70
  12   1   4   16.90   11.20
  12  -1   4   -2.70    9.50
  12   1   5   22.30   12.20
  12  -1   5   23.20   11.70
 -12   2   8    4.80    6.40
 -12  -2   8    4.30    6.00
 -12   2   7   18.00    7.40
 -12  -2   7   34.10    7.80
 -12   2   6    4.90    7.20
 -12  -2   6    7.40    7.00
 -12   2   5   14.60    7.70
 -12  -2   5   18.70    7.80
 -12   2   4   21.80    8.60
 -12  -2   4   32.80    9.20
 -12   2   3    0.40    7.30
 -12  -2   3    8.30    8.40
 -12   2   2    3.60    7.90
 -12  -2   2   -7.00    8.20
 -12   2   1    3.00    9.60
 -12  -2   1    5.10    8.50
 -12   2   0  -15.40    9.30
 -12  -2   0  -10.70    8.90
  12  -2   0   19.60   11.20
  12   2   1   13.70   10.90
 -12   2  -1   15.60   10.20
 -12  -2  -1    1.70    9.70
  12  -2   1   10.10   10.60
 -12   2  -2   -0.50   10.30
  12   2   2    1.80    9.40
 -12  -2  -2    1.80   10.20
  12  -2   2   -3.20   10.60
  12   2   3   16.90   10.20
  12  -2   3   17.40   10.30
  12   2   4    8.50   10.70
  12  -2   4   -6.00   10.90
  12   2   5   10.00   11.50
  12  -2   5   -1.10   10.60
 -12   3   8   -0.80    6.20
 -12  -3   8    5.70    6.10
 -12   3   7   12.60    7.30
 -12  -3   7   11.00    6.90
 -12   3   6   48.30    9.10
 -12  -3   6   41.20    8.50
 -12   3   5   -5.60    7.30
 -12  -3   5    4.80    7.40
 -12   3   4    2.80    7.90
 -12  -3   4   11.70    8.10
 -12   3   3    5.30    8.00
 -12  -3   3   13.00    8.50
 -12   3   2   14.40    8.10
 -12  -3   2   10.60    9.20
 -12   3   1   14.30    9.10
 -12  -3   1   13.30    9.70
 -12   3   0  -22.00    8.70
 -12  -3   0   11.10    9.70
  12  -3   0    1.40   10.40
 -12   3  -1    5.20    9.40
  12   3   1   -6.20    9.10
 -12  -3  -1    5.50    9.40
  12  -3   1   -3.00   10.20
  12   3   2   12.20   11.10
 -12   3  -2   -3.80   10.40
 -12  -3  -2    0.40    9.80
  12  -3   2    0.60    9.50
  12   3   3   -7.40   10.30
  12  -3   3    3.60   11.00
  12   3   4    8.50   11.50
  12  -3   4   -1.50    9.70
  12   3   5   21.00   11.80
  12  -3   5    1.70   10.70
 -12   4   8   31.20    7.50
 -12  -4   8   45.50    7.10
 -12   4   7   12.90    7.20
 -12  -4   7   19.40    7.00
 -12   4   6    1.80    7.30
 -12  -4   6    8.10    7.00
 -12   4   5    7.50    8.00
 -12  -4   5    9.10    7.80
 -12   4   4   10.20    8.10
 -12  -4   4   18.00    8.10
 -12   4   3   -0.50    7.60
 -12  -4   3    4.70    8.10
 -12   4   2    4.90    7.90
 -12  -4   2    2.90    9.00
 -12   4   1   -1.30    8.50
 -12  -4   1  -22.60    8.10
 -12   4   0   15.70    9.80
  12  -4   0   -1.50   10.20
 -12  -4   0   18.70    9.70
 -12   4  -1   21.30   10.80
  12   4   1   23.50   11.60
  12  -4   1   16.60   10.80
 -12  -4  -1   37.40   10.90
 -12   4  -2    2.30    9.20
  12   4   2   11.70   10.20
  12  -4   2   20.20   11.00
 -12  -4  -2   24.70   10.50
  12   4   3  -13.70   10.40
  12  -4   3  -12.60   10.10
  12   4   4    2.50   10.90
  12  -4   4   -2.00   11.00
  12   4   5    9.10   11.00
  12  -4   5   -1.20   10.80
  12  -4   5   22.40   11.80
 -12   5   8    6.60    6.70
 -12  -5   8    2.60    5.80
 -12   5   7   33.60    8.40
 -12  -5   7   25.40    7.00
 -12   5   6   14.70    7.70
 -12  -5   6   18.20    7.60
 -12   5   5    2.50    7.70
 -12  -5   5   16.50    8.20
 -12   5   4  -10.20    7.90
 -12  -5   4  -11.10    7.10
 -12   5   3   -6.40    7.90
 -12  -5   3    8.80    8.30
 -12   5   2   15.90    8.20
 -12  -5   2    3.20    8.30
 -12   5   1   13.30    8.40
 -12  -5   1   14.40    8.70
 -12   5   0    0.20    9.10
  12  -5   0   24.50   11.20
 -12  -5   0   11.00    9.60
 -12   5  -1   52.29   11.90
  12   5   1   13.90   10.50
  12  -5   1   13.30    9.80
 -12  -5  -1   48.70   11.80
  12   5   2  -10.70    9.60
 -12   5  -2    2.80   10.00
  12  -5   2   14.30   11.50
 -12  -5  -2   15.10   11.00
  12   5   3   23.90   11.50
  12  -5   3    1.60    9.50
  12   5   4   -1.70   10.50
  12  -5   4   12.70   11.70
  12  -5   4    2.70   10.90
  12   5   5   -0.10   10.10
  12  -5   5    2.70   11.00
  12  -5   5   -6.20   10.10
 -12   6   9   20.10   11.00
 -12   6   8   11.80    6.90
 -12  -6   8    8.30    6.10
 -12   6   7   11.00    7.50
 -12  -6   7    4.10    6.60
 -12   6   6   42.10    9.10
 -12  -6   6   42.50    8.80
 -12   6   5    2.00    7.70
 -12  -6   5   -9.90    7.00
 -12   6   4    7.20    8.20
 -12  -6   4   -0.80    7.50
 -12   6   3   -2.30    8.50
 -12  -6   3   -0.60    8.10
 -12   6   2   13.20    8.40
 -12  -6   2    6.60    8.70
 -12   6   1   19.00    8.50
 -12  -6   1   -0.10    9.20
 -12   6   0   17.40    9.90
 -12  -6   0   20.60    9.10
  12  -6   0   25.60   11.20
  12  -6   0   16.60   10.70
 -12   6  -1   -1.90    9.50
  12   6   1    5.70    9.80
  12  -6   1  -16.20    8.60
 -12  -6  -1    0.90    9.40
  12  -6   1   21.60    9.90
 -12   6  -2   -5.50    9.50
  12   6   2  -14.60    9.60
  12  -6   2    8.90   11.10
 -12  -6  -2   -4.50    9.80
  12  -6   2   -2.50   10.20
  12   6   3   11.50   10.90
  12  -6   3   -2.10   10.70
  12  -6   3    6.40   10.30
  12   6   4   23.90   11.80
  12  -6   4   13.30   10.70
  12  -6   4   22.70   11.60
  12   6   5   14.20   11.20
  12  -6   5   21.20   11.70
 -12   7   9    4.30    6.30
 -12   7   8   24.80    7.80
 -12  -7   8   16.50    7.00
 -12   7   7   14.70    7.70
 -12  -7   7   17.70    6.90
 -12   7   6   -1.50    7.30
 -12  -7   6  -23.40    6.20
 -12   7   5   10.80    8.50
 -12  -7   5    6.30    8.10
 -12   7   4   -1.70    8.20
 -12  -7   4   13.90    8.50
 -12   7   3    5.40    9.00
 -12  -7   3   -1.80    8.20
 -12   7   2   13.60    8.90
 -12  -7   2    6.90    8.50
 -12   7   1   33.40    9.60
 -12  -7   1   15.70    9.60
 -12   7   0   19.90    9.00
  12  -7   0   -5.30   10.20
 -12  -7   0   -1.30    9.10
  12  -7   0    4.90   10.10
 -12   7  -1   34.00   10.20
  12   7   1   57.29   12.20
 -12  -7  -1    3.00    9.60
  12  -7   1    7.10    9.70
  12  -7   1   17.50   10.60
  12   7   2   13.30   11.00
 -12   7  -2   12.80    9.70
 -12  -7  -2  -19.40    9.80
  12  -7   2    9.40   11.10
  12  -7   2   -7.90   10.30
  12   7   3    3.70    9.40
  12  -7   3   25.50   11.80
  12  -7   3   -9.50   10.20
  12   7   4   12.40   11.40
  12  -7   4   13.40   11.30
  12   7   5    1.10   11.10
  12  -7   5    3.20   11.40
 -12   8   9    2.00    6.20
 -12   8   8   16.40    7.50
 -12  -8   8    5.40    7.40
 -12   8   7   23.10    8.50
 -12  -8   7   32.70    7.80
 -12   8   6    3.00    8.10
 -12  -8   6   23.40    8.10
 -12   8   5   -2.20    8.00
 -12  -8   5    3.80    7.90
 -12   8   4    6.10    7.90
 -12  -8   4   -2.70    7.60
 -12   8   3   18.70    9.30
 -12  -8   3   35.00    9.60
 -12   8   2   -1.70    8.60
 -12  -8   2    5.90    8.80
 -12   8   1   10.60    8.70
 -12  -8   1   14.50    8.40
 -12   8   0   10.50    8.60
 -12  -8   0    3.50    9.60
  12  -8   0    5.20   10.70
 -12   8  -1   16.00    9.20
  12   8   1   -2.30   10.30
  12  -8   1   18.20   10.90
 -12  -8  -1   26.50   10.40
  12   8   2    4.30   10.60
 -12   8  -2   -4.90    9.30
  12  -8   2   10.00   11.10
 -12  -8  -2  -13.00    9.90
  12   8   3   -3.60   10.00
  12  -8   3   -3.20   11.10
  12   8   4   -5.80   10.30
  12  -8   4    8.30   11.50
 -12   9   9   11.20    6.80
 -12   9   8    1.50    7.00
 -12   9   7   -2.20    7.40
 -12  -9   7   -5.80    6.50
 -12   9   6    7.10    8.10
 -12  -9   6   -0.10    7.10
 -12   9   5   27.90    8.90
 -12  -9   5    8.30    7.70
 -12   9   4   15.30    9.00
 -12  -9   4   22.60    8.90
 -12   9   3  -14.80    8.50
 -12  -9   3    2.60    8.30
 -12   9   2    7.00    8.40
 -12  -9   2   -9.50    7.90
 -12   9   1   -0.30    9.00
 -12  -9   1    1.30    8.90
 -12   9   0    5.30    9.60
 -12  -9   0    3.60    9.70
  12  -9   0   -9.80    9.80
  12   9   1   25.60   11.60
 -12   9  -1   -0.60   10.20
  12  -9   1   -0.80   10.70
 -12  -9  -1   -1.80    9.80
 -12   9  -2   16.30   12.50
  12   9   2    7.90   11.00
 -12  -9  -2   23.30   11.10
  12  -9   2   23.80   10.50
  12   9   3    7.30   10.70
  12  -9   3  -18.00   10.00
  12   9   4   -8.20   10.40
  12  -9   4   -1.40   10.40
 -12  10   9    9.30    7.10
 -12  10   8   -2.70    7.20
 -12  10   7    3.40    7.70
 -12 -10   7    4.60    6.60
 -12  10   6   20.40    8.90
 -12 -10   6   17.00    8.10
 -12  10   5    5.10    8.40
 -12 -10   5   -1.80    7.70
 -12  10   4   -2.70    8.80
 -12 -10   4   11.40    8.20
 -12  10   3    7.40    9.30
 -12 -10   3  -11.90    7.60
 -12  10   2   17.20    9.00
 -12 -10   2   12.60    9.10
 -12  10   1   -9.20    9.00
 -12 -10   1   -1.10    8.50
 -12  10   0   18.90   11.00
  12 -10   0   -0.20   10.50
 -12 -10   0   -4.00    9.60
  12  10   1   11.40   13.00
 -12  10  -1   -7.00    9.70
 -12 -10  -1    0.60   10.40
  12 -10   1  -11.50   10.60
  12  10   2  -16.40    9.50
 -12 -10  -2    7.00    9.40
  12 -10   2    3.50   10.80
  12  10   3   -4.90   10.60
  12 -10   3    3.80   11.40
  12  10   4    3.20    9.60
  12 -10   4    3.70   11.40
 -12  11   9    4.30    7.00
 -12  11   8   -0.20    7.40
 -12  11   7   12.90    8.20
 -12 -11   7   10.80    7.10
 -12  11   6    0.60    7.70
 -12 -11   6   11.70    7.70
 -12  11   5   11.60    9.00
 -12 -11   5    3.90    8.00
 -12  11   4   -1.30    8.50
 -12 -11   4   -8.00    7.10
 -12  11   3  -12.00    8.40
 -12 -11   3   -0.10    7.80
 -12  11   2   14.90    9.40
 -12 -11   2    2.50    8.60
 -12  11   1   14.20   10.40
 -12 -11   1    1.60    9.00
 -12  11   0    7.40   10.70
  12 -11   0   -3.70   10.30
 -12 -11   0    6.20    9.70
 -12  11  -1   -4.10    9.60
 -12 -11  -1    4.30   10.20
  12 -11   1    4.00   11.30
  12  11   2   -1.40    8.90
 -12 -11  -2    6.00   10.80
  12 -11   2    0.20   11.20
  12  11   3    1.20   10.00
  12 -11   3   -2.70   11.40
 -12 -11  -3  -21.50   11.80
  12  11   4   17.50   12.10
  12 -11   4  -20.90   10.40
 -12  12   9   -6.70    6.70
 -12  12   8   14.10    8.20
 -12  12   7    2.40    7.80
 -12 -12   7  -10.50    6.50
 -12  12   6    4.30    8.30
 -12 -12   6    9.70    7.70
 -12  12   5    5.30    8.90
 -12 -12   5    9.40    8.00
 -12  12   4   -3.90    8.60
 -12 -12   4    0.00    8.30
 -12  12   3   17.60    9.30
 -12 -12   3   25.50    9.60
 -12  12   2   -3.30    9.50
 -12 -12   2   -6.30    8.30
 -12  12   1    5.40    9.90
 -12 -12   1   12.10    9.30
 -12  12   0   18.50   10.70
 -12 -12   0   15.00    9.90
  12 -12   0    9.60   10.10
 -12  12  -1   16.00   10.70
 -12 -12  -1   -4.80    9.70
  12 -12   1   -0.70   10.90
  12  12   2   10.90   11.40
  12 -12   2    5.60   11.80
 -12 -12  -2   -9.40    8.80
  12  12   3    9.30   11.40
 -12 -12  -3  -15.30   12.50
  12 -12   3   23.30   12.20
  12  12   4  -10.40    9.30
  12 -12   4    1.80   10.80
 -12  13   9   -8.40    7.30
 -12  13   8    1.60    7.60
 -12  13   7   -2.90    7.90
 -12 -13   7   12.40    7.30
 -12  13   6   -0.20    8.10
 -12 -13   6   11.50    8.00
 -12  13   5   20.60    9.50
 -12 -13   5    7.40    8.20
 -12  13   4   28.80   10.20
 -12 -13   4    9.50    8.50
 -12  13   3   12.50    9.30
 -12 -13   3    7.00    8.70
 -12  13   2   -8.50    9.10
 -12 -13   2    4.00    8.70
 -12  13   1    4.80   10.10
 -12 -13   1   -3.50    9.20
 -12  13   0    8.20   10.20
  12 -13   0   12.90    9.70
 -12 -13   0   -6.00    9.50
 -12  13  -1   18.20    9.80
  12 -13   1    8.30   10.90
 -12 -13  -1    3.00   10.20
  12  13   2    9.00   10.50
  12 -13   2   26.10   12.20
 -12 -13  -2   -7.50   10.30
  12  13   3  -11.70    9.30
  12 -13   3    3.40   10.70
 -12 -13  -3   10.90   12.90
  12  13   4   24.90   12.30
  12 -13   4    6.50   11.60
 -12  14   9    6.80    7.50
 -12  14   8    7.30    8.00
 -12  14   7    0.00    8.30
 -12 -14   7  -12.30    6.30
 -12  14   6    6.20    8.80
 -12 -14   6   -3.20    7.40
 -12  14   5   16.00    9.60
 -12 -14   5   -6.20    7.90
 -12  14   4    9.30    9.40
 -12 -14   4    0.90    8.50
 -12  14   3   21.30   10.00
 -12 -14   3   -0.40    9.00
 -12  14   2   31.70   10.80
 -12 -14   2   19.40   10.00
 -12  14   1    9.80    9.80
 -12 -14   1   -3.50    8.70
 -12  14   0  -11.80    8.40
 -12 -14   0   -1.60    9.50
  12 -14   0    7.60   10.70
 -12  14  -1   29.70   11.90
  12 -14   1   -7.40    8.90
 -12 -14  -1   20.60   10.90
  12  14   2    3.00   11.50
  12 -14   2  -16.10    8.90
 -12 -14  -2  -10.50   10.00
  12  14   3    6.10   11.30
  12 -14   3  -12.80   10.10
 -12 -14  -3    7.50   11.60
 -12  15   9    9.50    8.00
 -12  15   8   -4.40    7.90
 -12  15   7    7.20    8.60
 -12 -15   7  -11.40    6.60
 -12  15   6    6.30    9.00
 -12 -15   6    7.80    7.90
 -12  15   5   16.60    9.60
 -12 -15   5   37.20    9.60
 -12  15   4   34.00   11.00
 -12 -15   4   13.80    9.30
 -12  15   3    2.00    9.80
 -12 -15   3    4.20    9.10
 -12  15   2    4.20    8.80
 -12 -15   2   -3.20    8.80
 -12  15   1   24.40   10.70
 -12 -15   1   26.20   10.50
 -12  15   0   -2.50   10.10
  12 -15   0   20.30   11.90
 -12 -15   0   16.60    9.80
 -12  15  -1  -10.40   10.10
 -12 -15  -1  -15.10    8.60
  12 -15   1   -7.50   10.30
  12  15   2    0.20   11.50
  12 -15   2   -3.90   10.60
 -12 -15  -2   17.50   10.90
  12  15   3    4.20   12.10
  12 -15   3    7.40   11.50
 -12 -15  -3   -2.50   11.80
 -12  16   8   10.50    8.60
 -12  16   7    8.70    8.80
 -12 -16   7    8.30    7.40
 -12  16   6    8.50    9.10
 -12 -16   6    6.60    8.00
 -12  16   5   -3.50    9.00
 -12 -16   5   16.00    9.20
 -12  16   4   32.00   10.50
 -12 -16   4    7.60    8.90
 -12  16   3   12.80    9.90
 -12 -16   3   11.60    9.10
 -12  16   2    1.20   10.20
 -12 -16   2    0.80    8.90
 -12  16   1    2.50   10.50
 -12 -16   1   10.40    9.20
 -12  16   0    0.70   10.80
 -12 -16   0    1.60    9.60
  12 -16   0   29.30   12.60
 -12  16  -1   -2.00    9.40
  12 -16   1  -28.70   10.40
 -12 -16  -1   14.70    9.10
  12  16   2   28.50   12.80
  12 -16   2  -11.80   11.30
 -12 -16  -2   10.40   10.10
  12  16   3    2.20   12.00
 -12 -16  -3    8.10   12.00
  12 -16   3  -27.10   10.00
 -12  17   8   -2.80    8.00
 -12  17   7   18.70    9.40
 -12 -17   7   -0.40    7.10
 -12  17   6   13.10    9.30
 -12 -17   6    6.70    8.40
 -12  17   5   -2.10    8.90
 -12 -17   5   -8.40    7.80
 -12  17   4   17.50   10.40
 -12 -17   4    4.70    9.20
 -12  17   3    7.90   10.40
 -12 -17   3   -2.20    8.40
 -12  17   2   -6.60    9.90
 -12 -17   2  -20.30    8.20
 -12  17   1  -12.70    9.40
 -12 -17   1    3.70    8.30
 -12  17   0   11.80    9.90
  12 -17   0   14.60   12.00
 -12 -17   0   10.00   10.20
 -12  17  -1    9.80   11.20
 -12 -17  -1    2.00    9.00
  12 -17   1   21.80   12.50
 -12 -17  -2   -1.50   10.00
  12 -17   2    7.00   11.50
 -12  18   8   -4.20    8.30
 -12  18   7    5.60    8.70
 -12 -18   7   -0.40    7.30
 -12  18   6   30.40   10.40
 -12 -18   6   26.50    9.10
 -12  18   5   12.50   10.10
 -12 -18   5    7.00    8.60
 -12  18   4    5.60    9.60
 -12 -18   4   -8.80    7.70
 -12  18   3    2.80    9.60
 -12 -18   3   -4.00    8.60
 -12  18   2   -2.10    8.90
 -12 -18   2    3.10    9.10
 -12  18   1    4.40   10.40
 -12 -18   1   13.50    8.90
 -12  18   0   -0.50   11.20
  12 -18   0   19.30   11.00
 -12 -18   0    5.50   10.60
 -12  18  -1  -12.40   10.40
  12 -18   1   12.30   10.60
 -12 -18  -1    5.40   10.30
 -12 -18  -2    4.30   10.70
  12 -18   2  -12.10   10.20
 -12  19   7   15.80    9.70
 -12 -19   7   -7.50    7.40
 -12  19   6   -0.20    8.90
 -12 -19   6   -8.20    8.10
 -12  19   5   11.30    9.70
 -12 -19   5    2.20    8.80
 -12  19   4    2.10    9.70
 -12 -19   4    4.40    8.70
 -12  19   3   12.10   11.10
 -12 -19   3   13.10    9.40
 -12  19   2  -14.30   10.00
 -12 -19   2    6.60    9.60
 -12  19   1    0.90   11.00
 -12 -19   1   -7.90    8.90
 -12  19   0   13.20   11.30
 -12 -19   0    1.30    9.60
  12 -19   0    0.50   11.50
  12 -19   1   10.60   11.90
 -12 -19  -1   26.10   11.80
 -12  20   7   -5.90    9.10
 -12 -20   7  -15.00    6.80
 -12  20   6    8.50    9.20
 -12 -20   6    6.10    8.40
 -12  20   5   -3.30    9.10
 -12 -20   5    3.40    8.40
 -12  20   4   -6.10    9.30
 -12 -20   4   16.60    9.10
 -12  20   3    0.70    9.90
 -12 -20   3    7.40    9.60
 -12  20   2   16.30    9.90
 -12 -20   2   11.80   10.30
 -12  20   1   -8.60    9.40
 -12 -20   1    9.60   10.10
 -12  20   0  -19.50    9.70
  12 -20   0   14.10   12.10
 -12 -20   0    2.20   10.10
  12 -20   1    7.10   11.70
 -12 -20  -1   -0.50   10.30
 -12  21   6   -1.70    9.80
 -12 -21   6    5.50    8.50
 -12  21   5   -9.40    9.30
 -12 -21   5   -3.40    8.20
 -12  21   4   12.20   10.40
 -12 -21   4    5.10    9.30
 -12  21   3   15.50   11.40
 -12 -21   3    1.20    9.20
 -12  21   2   -0.80   11.10
 -12 -21   2    4.80   10.10
 -12  21   1    4.30   11.20
 -12 -21   1    4.80   10.50
 -12  21   0    1.60   11.30
 -12 -21   0    7.40   11.00
  12 -21   0    1.10   10.60
 -12  22   5  -10.50    9.10
 -12 -22   5    4.60    8.60
 -12  22   4    9.50   10.90
 -12 -22   4    6.40    9.40
 -12  22   3    9.00   11.10
 -12 -22   3   15.70   10.30
 -12  22   2  -21.00    9.50
 -12 -22   2    6.20   10.10
 -12  22   1   -9.20   10.40
 -12 -22   1   23.10   11.20
 -12  23   4   -1.80   10.50
 -12 -23   4   16.70    9.80
 -12  23   3   -6.40    9.80
 -12 -23   3   16.30   10.40
 -12  23   2    5.10   11.10
 -12 -23   2   14.60   10.70
 -13   0   8    6.10    6.80
 -13   0   7    1.30    7.20
 -13   0   6   14.20    8.10
 -13   0   5   -4.10    7.50
 -13   0   4    2.00    7.70
 -13   0   3    3.40    8.70
 -13   0   2    7.00    9.80
 -13   0   1  -11.00    9.70
 -13   0   0   16.00   11.10
 -13   0  -1    7.20   10.70
  13   0   1    5.40   11.00
 -13   0  -2    5.10    9.40
  13   0   2   -0.20   11.20
  13   0   3  -17.30   10.40
  13   0   4   20.30   11.70
 -13   1   8    6.40    6.90
 -13  -1   8   -3.60    6.30
 -13   1   7    2.50    7.50
 -13  -1   7    3.70    7.60
 -13   1   6    0.30    7.80
 -13  -1   6   -6.00    7.40
 -13   1   5   -2.40    8.00
 -13  -1   5   -3.30    7.70
 -13   1   4    3.70    8.50
 -13  -1   4   -3.40    8.20
 -13   1   3    0.30    8.50
 -13  -1   3    0.70    9.60
 -13   1   2   17.60   10.60
 -13  -1   2   -0.70    9.60
 -13   1   1    0.10   10.00
 -13  -1   1    1.90    9.40
 -13   1   0   -0.10    9.10
 -13  -1   0   12.30    9.50
 -13   1  -1   14.90   11.70
  13   1   1    2.50   11.00
 -13  -1  -1    3.90    9.20
  13  -1   1   14.20   11.90
  13   1   2   23.10   11.10
 -13   1  -2   32.80   12.40
  13  -1   2   26.20   12.00
 -13  -1  -2   15.30   11.30
  13   1   3    6.60   10.20
  13  -1   3   13.70   12.10
  13   1   4   13.40   12.20
  13  -1   4    9.20   11.20
 -13   2   8   21.00    7.70
 -13  -2   8   16.80    7.10
 -13   2   7    2.40    7.20
 -13  -2   7    5.50    7.60
 -13   2   6    1.00    8.00
 -13  -2   6   -9.60    6.90
 -13   2   5    3.70    8.50
 -13  -2   5    8.30    7.90
 -13   2   4    9.90    8.60
 -13  -2   4  -17.00    7.60
 -13   2   3   35.90   10.40
 -13  -2   3    9.30    9.60
 -13   2   2    4.30    8.90
 -13  -2   2   18.50   10.30
 -13   2   1    5.80   10.00
 -13  -2   1    5.20   10.20
 -13   2   0   17.70   11.20
 -13  -2   0   12.00   10.50
 -13   2  -1  -10.90    9.90
  13   2   1   37.30   12.70
  13  -2   1   12.20   11.70
 -13  -2  -1   23.20   11.60
 -13   2  -2   10.00   12.00
  13   2   2   -9.20   10.20
  13  -2   2   14.40   11.60
 -13  -2  -2   -6.90   10.40
  13   2   3   -6.30   10.70
  13  -2   3    3.00   10.80
 -13   3   8   -1.10    6.80
 -13  -3   8    0.70    6.40
 -13   3   7    7.90    7.80
 -13  -3   7    0.50    7.20
 -13   3   6    4.90    8.00
 -13  -3   6    7.10    7.80
 -13   3   5    3.90    8.60
 -13  -3   5  -17.90    6.60
 -13   3   4    7.90    8.80
 -13  -3   4   11.40    9.00
 -13   3   3    1.40    9.10
 -13  -3   3   -3.80    8.60
 -13   3   2    1.40    8.90
 -13  -3   2    7.60    9.50
 -13   3   1   17.20   10.60
 -13  -3   1   32.70   11.20
 -13   3   0   -0.20    8.70
 -13  -3   0   16.40   11.10
  13   3   1    4.80   10.80
 -13   3  -1    1.60   10.10
  13  -3   1   10.00   11.30
 -13  -3  -1   19.20   11.30
 -13   3  -2    6.10    9.70
  13   3   2  -17.50   10.90
  13  -3   2    9.30   11.60
 -13  -3  -2    7.10   11.30
  13   3   3   19.90   12.00
  13  -3   3   -4.50   11.20
 -13   4   8    7.90    7.40
 -13  -4   8   -3.10    6.20
 -13   4   7   -0.90    7.60
 -13  -4   7  -13.80    6.70
 -13   4   6    4.50    8.20
 -13  -4   6   15.90    7.90
 -13   4   5    4.50    8.50
 -13  -4   5   -2.80    8.20
 -13   4   4   20.90    9.20
 -13  -4   4   28.40    9.80
 -13   4   3   13.40    8.90
 -13  -4   3    7.90    9.40
 -13   4   2    9.20   10.20
 -13  -4   2   13.10   10.30
 -13   4   1   -9.50    7.90
 -13  -4   1   15.30    9.70
 -13   4   0   29.00   11.40
 -13  -4   0   27.60   11.20
 -13   4  -1    0.80    9.30
  13   4   1  -14.20    9.10
 -13  -4  -1   -1.40   10.70
  13  -4   1   -0.70   11.20
 -13   4  -2   -4.20   10.00
  13   4   2  -10.30   10.80
  13  -4   2  -12.00   10.70
 -13  -4  -2   -2.00   11.00
  13   4   3   -1.80   11.30
  13  -4   3  -11.60   11.50
 -13   5   8    3.80    7.20
 -13  -5   8    0.20    6.30
 -13   5   7   10.20    7.90
 -13  -5   7   -2.00    6.90
 -13   5   6   -2.90    8.10
 -13  -5   6   -1.70    7.30
 -13   5   5   17.30    9.10
 -13  -5   5    7.00    8.80
 -13   5   4  -15.00    8.30
 -13  -5   4  -16.80    7.80
 -13   5   3    5.20    8.60
 -13  -5   3   -3.80    8.50
 -13   5   2   21.30    9.90
 -13  -5   2   29.90   11.00
 -13   5   1    5.50    9.90
 -13  -5   1   10.30    9.90
 -13   5   0   -3.00    9.60
 -13  -5   0    8.10    9.20
 -13   5  -1  -16.00    9.70
  13  -5   1  -10.60    9.40
  13  -5   1   15.70   10.40
 -13  -5  -1  -19.00    9.60
  13   5   2   15.30   12.10
 -13   5  -2   25.60   11.00
  13  -5   2   21.80   12.30
 -13  -5  -2    0.50   11.00
  13  -5   2   18.80   11.90
  13   5   3   -0.80   11.20
  13  -5   3    3.80   11.30
  13  -5   3   -8.00   10.90
 -13   6   9    6.80    7.40
 -13   6   8   27.40    8.50
 -13  -6   8   16.00    7.00
 -13   6   7   -3.40    7.50
 -13  -6   7   -7.80    6.90
 -13   6   6   -1.60    8.00
 -13  -6   6    2.70    7.80
 -13   6   5   -7.30    7.60
 -13  -6   5    7.90    8.30
 -13   6   4    6.60    9.20
 -13  -6   4   -1.60    8.30
 -13   6   3   12.60    9.60
 -13  -6   3   19.60    9.50
 -13   6   2    8.40    9.20
 -13  -6   2   -8.50    7.70
 -13   6   1   -8.00    9.20
 -13  -6   1    4.60    9.90
 -13   6   0   19.30   10.60
 -13  -6   0   -8.20    8.50
 -13   6  -1  -10.00   10.20
  13  -6   1   15.80   11.50
  13  -6   1    4.10   11.20
 -13  -6  -1   21.60   11.50
  13   6   2   -7.40   10.90
 -13   6  -2   -1.70   11.10
  13  -6   2    2.00   11.30
  13  -6   2   15.00   11.80
 -13  -6  -2    9.70   11.20
  13   6   3    5.50   11.40
  13  -6   3   10.20   11.50
  13  -6   3  -23.70   10.80
 -13   7   9   -2.40    6.70
 -13   7   8  -10.70    6.70
 -13  -7   8    7.10    6.70
 -13   7   7    6.90    8.10
 -13  -7   7    5.10    7.20
 -13   7   6   -3.50    8.00
 -13  -7   6   -0.70    8.00
 -13   7   5  -13.10    8.20
 -13  -7   5    0.90    8.30
 -13   7   4    0.60    8.70
 -13  -7   4   -9.90    8.10
 -13   7   3    4.60    9.10
 -13  -7   3   15.00    9.50
 -13   7   2   -3.80    9.70
 -13  -7   2    0.90    9.10
 -13   7   1   14.80    9.60
 -13  -7   1   10.70   10.40
 -13   7   0  -14.20   10.10
 -13  -7   0   13.40    9.40
 -13   7  -1   10.50   10.60
 -13  -7  -1  -15.80    9.50
  13  -7   1   12.40   11.40
  13   7   2    6.10   11.70
 -13   7  -2   13.40   17.30
  13  -7   2  -11.10   10.00
 -13  -7  -2    5.10   10.80
  13   7   3  -14.60    9.40
  13  -7   3   15.80   11.90
 -13   8   9    9.40    7.30
 -13   8   8    9.30    7.60
 -13  -8   8    3.90    6.50
 -13   8   7   10.50    8.30
 -13  -8   7   -7.70    6.50
 -13   8   6    1.10    8.50
 -13  -8   6    4.10    8.10
 -13   8   5    1.20    8.70
 -13  -8   5   -0.70    8.10
 -13   8   4   -5.20    8.70
 -13  -8   4    2.90    9.00
 -13   8   3    2.40    9.50
 -13  -8   3   11.60    9.10
 -13   8   2   -2.00    9.70
 -13  -8   2    2.00    9.30
 -13   8   1    1.20   10.00
 -13  -8   1   -8.60    9.30
 -13   8   0    9.60    9.40
 -13  -8   0   20.10   10.00
 -13   8  -1   11.00   10.70
  13  -8   1   -9.70    9.50
 -13  -8  -1   -1.20   10.30
  13   8   2   14.80   11.40
 -13  -8  -2   -5.40    9.20
  13  -8   2   -9.60   11.60
  13   8   3   10.80   11.70
  13  -8   3    9.80   12.00
 -13   9   9    6.60    7.20
 -13   9   8   -2.50    7.40
 -13  -9   8   -2.60    6.20
 -13   9   7    5.20    8.10
 -13  -9   7    5.80    7.20
 -13   9   6   -9.40    7.80
 -13  -9   6   -5.00    7.40
 -13   9   5   25.10   10.00
 -13  -9   5   46.00   10.20
 -13   9   4   -1.00    9.00
 -13  -9   4    7.10    8.90
 -13   9   3    4.10    9.20
 -13  -9   3   29.30   10.20
 -13   9   2   -0.30    9.10
 -13  -9   2   18.00   10.40
 -13   9   1   -4.30   10.20
 -13  -9   1  -15.00    9.30
 -13   9   0   10.30   11.30
 -13  -9   0   -1.10   10.20
 -13   9  -1   14.00   11.00
  13  -9   1   -2.10   11.60
 -13  -9  -1   -1.40    9.90
  13   9   2   -6.40    9.10
 -13  -9  -2    9.00   11.40
  13  -9   2   -8.70    9.80
  13   9   3    3.10   11.60
  13  -9   3   15.60   12.70
 -13  10   9  -13.00    6.90
 -13  10   8   -7.60    7.40
 -13 -10   8   -0.30    8.40
 -13  10   7   18.20    8.80
 -13 -10   7   18.60    8.20
 -13  10   6   -0.70    8.60
 -13 -10   6   -1.90    7.90
 -13  10   5   18.70    9.70
 -13 -10   5    2.10    8.40
 -13  10   4   22.50   10.10
 -13 -10   4   22.40    9.70
 -13  10   3    5.40    9.90
 -13 -10   3   25.20    9.50
 -13  10   2    1.80    9.70
 -13 -10   2  -20.60    8.20
 -13  10   1   -8.50    9.00
 -13 -10   1  -16.10    9.50
 -13  10   0  -13.50   10.10
 -13 -10   0   -0.50   10.20
 -13  10  -1   -3.70   10.80
 -13 -10  -1    4.10   10.80
  13 -10   1    5.30   12.00
  13  10   2    4.50   11.20
  13 -10   2   -4.50   12.00
 -13 -10  -2    2.30   10.60
  13  10   3  -19.70    8.90
  13 -10   3  -18.90   10.90
 -13  11   9   25.00    8.40
 -13  11   8   11.20    8.10
 -13  11   7   -0.70    8.10
 -13 -11   7  -12.20    7.00
 -13  11   6    7.30    9.00
 -13 -11   6   -4.20    7.80
 -13  11   5   -9.30    8.60
 -13 -11   5   -7.20    8.30
 -13  11   4    8.20    9.80
 -13 -11   4    1.00    8.60
 -13  11   3   -4.30    9.30
 -13 -11   3   13.00    9.60
 -13  11   2  -11.70    9.70
 -13 -11   2    4.40    9.20
 -13  11   1  -18.70    9.80
 -13 -11   1  -13.30    8.80
 -13  11   0    9.70   10.70
 -13 -11   0    1.50    9.70
 -13  11  -1    6.60   10.50
 -13 -11  -1   -2.40   10.50
  13 -11   1   10.60   11.00
  13  11   2  -11.70   10.40
 -13 -11  -2   -8.10   10.50
  13 -11   2   -8.00   11.00
 -13  12   8  -19.80    7.40
 -13  12   7   -1.00    8.40
 -13 -12   7    7.20    7.90
 -13  12   6   17.30    9.80
 -13 -12   6   14.20    8.50
 -13  12   5   -6.70    8.80
 -13 -12   5   -7.60    8.00
 -13  12   4    8.10    9.20
 -13 -12   4   12.60    9.10
 -13  12   3   10.30    9.70
 -13 -12   3    5.60    9.20
 -13  12   2    2.90    9.80
 -13 -12   2   -4.30    9.10
 -13  12   1    6.30   10.70
 -13 -12   1   -2.00    9.90
 -13  12   0    0.30   11.00
 -13 -12   0   -6.60   10.30
 -13  12  -1    9.30   11.20
 -13 -12  -1   -3.00   10.80
  13 -12   1    0.40   11.70
  13  12   2   -8.50   11.10
 -13 -12  -2   -8.70    9.30
  13 -12   2  -15.50   10.60
 -13  13   8   -5.30    7.70
 -13  13   7   -8.60    8.20
 -13 -13   7   -5.90    7.30
 -13  13   6   17.20    9.90
 -13 -13   6   10.80    8.30
 -13  13   5    2.40    9.40
 -13 -13   5    4.50    8.60
 -13  13   4    0.90    9.70
 -13 -13   4    9.10    9.20
 -13  13   3  -11.90    9.70
 -13 -13   3    6.10    9.30
 -13  13   2  -11.70    9.80
 -13 -13   2    2.10    9.70
 -13  13   1  -22.30    8.70
 -13 -13   1    6.20   10.00
 -13  13   0   13.20   10.00
 -13 -13   0   -5.20    8.90
 -13  13  -1  -10.30    9.90
  13 -13   1  -12.10   10.90
 -13 -13  -1    0.50    9.60
  13  13   2    5.30   17.50
 -13 -13  -2   -9.70   10.30
  13 -13   2  -12.60   10.80
 -13  14   8    0.70    8.20
 -13  14   7   -3.30    8.10
 -13 -14   7   -6.80    7.60
 -13  14   6    5.30    9.30
 -13 -14   6    4.80    8.70
 -13  14   5    7.50    9.80
 -13 -14   5   -6.70    8.40
 -13  14   4   -2.60    9.40
 -13 -14   4   19.60    9.50
 -13  14   3   11.00    9.90
 -13 -14   3   -2.80    8.90
 -13  14   2    3.10   10.80
 -13 -14   2  -20.70    8.40
 -13  14   1  -10.30   10.30
 -13 -14   1    3.30   10.70
 -13  14   0    4.10   11.30
 -13 -14   0   -5.30   10.30
 -13  14  -1   -0.50   11.80
 -13 -14  -1    5.40   10.80
  13 -14   1    4.80   11.30
 -13  15   7   -3.60    8.30
 -13 -15   7    0.70    8.00
 -13  15   6   -0.10    9.30
 -13 -15   6   14.70    8.60
 -13  15   5    8.70    9.70
 -13 -15   5    1.70    8.50
 -13  15   4    3.60   10.20
 -13 -15   4  -11.80    8.50
 -13  15   3    1.10   10.10
 -13 -15   3    8.80    9.40
 -13  15   2    4.70   10.30
 -13 -15   2  -24.30    8.50
 -13  15   1    7.80   10.80
 -13 -15   1   14.70   10.30
 -13  15   0    3.40   10.80
 -13 -15   0    1.60   10.70
 -13  15  -1   -3.20   10.80
  13 -15   1   15.50   12.60
 -13 -15  -1    9.50   11.30
 -13  16   7   11.70    9.40
 -13 -16   7   27.00    8.40
 -13  16   6   17.00   10.30
 -13 -16   6   -0.90    7.90
 -13  16   5    8.50    9.70
 -13 -16   5   24.10   10.00
 -13  16   4    7.90    9.80
 -13 -16   4   -5.10    8.80
 -13  16   3   15.80   10.70
 -13 -16   3   -4.80    9.40
 -13  16   2   -1.70   10.90
 -13 -16   2   -6.30    9.50
 -13  16   1    3.40   11.10
 -13 -16   1  -18.50    8.70
 -13  16   0    4.60   11.50
 -13 -16   0    1.90   11.00
 -13  16  -1   -1.10   11.40
  13 -16   1   10.20   11.10
 -13 -16  -1   13.40   11.50
 -13  17   6   15.10   10.10
 -13 -17   6   13.70    8.70
 -13  17   5    0.70    9.60
 -13 -17   5   -4.30    8.50
 -13  17   4   -3.20    9.70
 -13 -17   4  -19.10    8.30
 -13  17   3   -7.50   10.50
 -13 -17   3   -9.80    8.70
 -13  17   2    7.70   10.70
 -13 -17   2   -2.60    9.80
 -13  17   1  -14.60   10.30
 -13 -17   1   10.20   10.20
 -13  17   0   -6.70   10.60
 -13 -17   0   11.90   11.70
 -13  18   6   17.00   10.00
 -13 -18   6   -3.30    8.60
 -13  18   5   15.20   10.60
 -13 -18   5   -0.40    9.00
 -13  18   4   19.10   11.20
 -13 -18   4    0.20    9.70
 -13  18   3   11.10   10.40
 -13 -18   3   -5.20    9.20
 -13  18   2    8.70   11.60
 -13 -18   2    7.00   10.50
 -13  18   1    0.40   11.30
 -13 -18   1    2.60    9.70
 -13  19   5   -3.90   10.30
 -13 -19   5    1.00    9.30
 -13  19   4   26.60   11.00
 -13 -19   4  -11.00    9.00
 -13  19   3   12.60   11.40
 -13 -19   3  -10.80    8.70
 -13  19   2   13.90   11.70
 -13 -19   2   14.20   10.20
 -13  19   1    8.70   10.50
 -13 -19   1   -5.50    9.60
 -14   0   8   36.80    8.50
 -14   0   7    4.80    8.10
 -14   0   6   -6.20    8.60
 -14   0   5  -10.40    8.10
 -14   0   4    6.80    9.10
 -14   0   3   -6.70    9.10
 -14   0   2    4.40   10.30
 -14   0   1   -7.40   10.30
 -14   0   0    9.80   11.20
 -14   0  -1    1.10   11.30
 -14   0  -2  -37.20   10.20
  14   0   2   -5.60   11.00
 -14   1   8   -0.50    7.30
 -14  -1   8    5.90    7.60
 -14   1   7    6.90    8.40
 -14  -1   7    6.20    8.30
 -14   1   6    4.00    8.80
 -14  -1   6   -8.10    7.70
 -14   1   5    6.80    9.40
 -14  -1   5    6.80    8.60
 -14   1   4    4.40    8.90
 -14  -1   4    1.80    8.50
 -14   1   3   12.80    9.60
 -14  -1   3    8.90    9.90
 -14   1   2    7.40    9.80
 -14  -1   2  -34.90    8.70
 -14   1   1   12.50   10.50
 -14  -1   1  -21.50   10.10
 -14   1   0    5.60   10.80
 -14  -1   0    2.30   11.00
 -14   1  -1   -0.80   10.20
 -14  -1  -1   -2.80   11.30
  14   1   2   -0.40   11.60
 -14   1  -2    2.70   12.10
 -14  -1  -2  -10.80   11.20
  14  -1   2    2.30   10.80
 -14   2   8  -12.70    7.10
 -14  -2   8  -14.00    6.90
 -14   2   7    0.30    7.90
 -14  -2   7   -3.50    8.00
 -14   2   6  -10.00    8.20
 -14  -2   6   -8.00    8.00
 -14   2   5    4.40    8.80
 -14  -2   5   13.50    9.00
 -14   2   4    2.60    9.10
 -14  -2   4    3.40    9.20
 -14   2   3    5.30    9.80
 -14  -2   3   10.20   10.30
 -14   2   2   -2.30    9.80
 -14  -2   2    4.60   10.00
 -14   2   1   15.10   11.30
 -14  -2   1   -7.10   10.60
 -14   2   0    9.40   10.80
 -14  -2   0    3.40   11.10
 -14   2  -1    3.50   10.90
 -14  -2  -1    5.10   11.70
 -14   2  -2  -13.60   10.10
  14   2   2    0.10   12.20
  14  -2   2  -18.20   11.00
 -14  -2  -2  -16.00   10.60
 -14   3   8    6.40    7.80
 -14  -3   8    7.80    7.50
 -14   3   7   -0.70    8.00
 -14  -3   7    0.30    8.00
 -14   3   6   10.00    9.00
 -14  -3   6    9.00    8.20
 -14   3   5    5.50    9.00
 -14  -3   5   21.60    9.10
 -14   3   4   19.70    9.80
 -14  -3   4   -9.50    9.00
 -14   3   3   -2.30    8.60
 -14  -3   3  -13.00    9.20
 -14   3   2   -9.50    8.90
 -14  -3   2   -5.20    9.30
 -14   3   1    1.40   10.20
 -14  -3   1   14.60   10.90
 -14   3   0   -9.70   10.00
 -14  -3   0   -5.50   10.70
 -14   3  -1   -6.20   10.80
 -14  -3  -1   10.90   11.60
 -14   3  -2   -4.10   10.00
  14   3   2   -0.60   11.80
 -14  -3  -2    0.10   11.10
  14  -3   2   -6.10   12.40
 -14   4   8   29.70    8.60
 -14  -4   8    0.00    7.10
 -14   4   7   24.90    9.00
 -14  -4   7   12.90    8.40
 -14   4   6    3.40    8.80
 -14  -4   6  -11.10    7.70
 -14   4   5   -5.20    8.90
 -14  -4   5   12.10    8.70
 -14   4   4   24.90   10.20
 -14  -4   4    1.30    9.80
 -14   4   3   22.60   10.70
 -14  -4   3   32.10   11.20
 -14   4   2    9.70   10.10
 -14  -4   2   -3.10    9.80
 -14   4   1  -12.90    9.80
 -14  -4   1   -4.70   10.00
 -14   4   0    8.70    9.80
 -14  -4   0  -23.60   10.20
 -14   4  -1   -5.00   10.70
  14  -4   1   12.20   14.20
 -14  -4  -1    8.70   11.70
  14   4   2   10.80   12.70
 -14   4  -2    5.70   17.30
  14  -4   2    3.20   12.00
 -14  -4  -2    1.20   10.40
  14  -4   2  -24.90   11.00
 -14   5   8   27.30    8.60
 -14  -5   8   -4.60    7.10
 -14   5   7   36.50    9.80
 -14  -5   7   12.60    8.00
 -14   5   6   17.00    9.20
 -14  -5   6    4.00    8.00
 -14   5   5    1.20    8.80
 -14  -5   5    0.30    9.10
 -14   5   4    9.60    9.90
 -14  -5   4    1.40    9.70
 -14   5   3   11.80    9.90
 -14  -5   3   -8.90    8.70
 -14   5   2   14.40   10.30
 -14  -5   2   -2.40   10.20
 -14   5   1    2.10   10.40
 -14  -5   1    7.20   10.60
 -14   5   0  -17.40    9.70
 -14  -5   0   13.10   11.60
 -14   5  -1   15.90   10.70
 -14  -5  -1    9.40   11.00
  14  -5   1   14.00   12.40
  14  -5   1  -10.00   11.80
 -14   6   8   12.20    8.10
 -14  -6   8   -8.80    7.20
 -14   6   7    7.90    8.90
 -14  -6   7   23.50    8.20
 -14   6   6    2.70    9.00
 -14  -6   6  -15.30    7.50
 -14   6   5    4.80    9.10
 -14  -6   5   -7.80    8.90
 -14   6   4   13.60   10.10
 -14  -6   4   31.60   10.60
 -14   6   3    8.30   10.30
 -14  -6   3    9.40   10.10
 -14   6   2   20.50   11.20
 -14  -6   2   11.60   10.70
 -14   6   1   -2.10    9.20
 -14  -6   1    6.10   10.60
 -14   6   0   -9.60   10.00
 -14  -6   0   14.00   11.80
 -14   6  -1    9.90   11.10
  14  -6   1   -4.90   12.60
 -14  -6  -1  -16.80   10.80
  14  -6   1   11.00   12.30
 -14   7   8   -3.20    7.90
 -14  -7   8   13.40    7.90
 -14   7   7    3.40    8.40
 -14  -7   7   -7.60    7.40
 -14   7   6   13.20    9.30
 -14  -7   6    2.50    8.40
 -14   7   5   26.90   10.20
 -14  -7   5   -3.30    8.60
 -14   7   4   10.30    9.60
 -14  -7   4   17.00    9.90
 -14   7   3   19.80   10.70
 -14  -7   3   -0.60    9.30
 -14   7   2   -1.90   10.40
 -14  -7   2   -7.00    9.60
 -14   7   1   16.30   11.90
 -14  -7   1   19.70   11.20
 -14   7   0   -4.70   10.40
 -14  -7   0    8.10   10.00
 -14   7  -1    0.50   11.30
 -14  -7  -1  -12.40   10.90
  14  -7   1   30.60   11.80
 -14   8   8   -8.80    7.70
 -14  -8   8    0.90    7.10
 -14   8   7    4.50    8.70
 -14  -8   7    1.70    7.50
 -14   8   6    3.50    8.90
 -14  -8   6    2.50    9.10
 -14   8   5  -18.20    8.80
 -14  -8   5   -1.70    8.70
 -14   8   4   10.20    9.80
 -14  -8   4    4.50    9.40
 -14   8   3   39.70   12.10
 -14  -8   3    5.10    9.70
 -14   8   2    4.60   10.40
 -14  -8   2    6.40   10.10
 -14   8   1   13.50   11.00
 -14  -8   1   12.70   10.50
 -14   8   0   10.60   11.70
 -14  -8   0   -4.90   10.70
 -14   8  -1    4.50   11.00
 -14  -8  -1    0.90   10.70
  14  -8   1    0.50   12.30
 -14   9   7   29.00    9.70
 -14  -9   7   18.80    8.30
 -14   9   6    4.40    9.40
 -14  -9   6   -2.10    8.50
 -14   9   5   -7.60    9.10
 -14  -9   5   -5.30    8.50
 -14   9   4   30.30   11.10
 -14  -9   4   18.30   10.00
 -14   9   3   -7.50    9.20
 -14  -9   3   -7.20    9.00
 -14   9   2    7.60   10.80
 -14  -9   2    6.10    9.40
 -14   9   1   -9.80   10.90
 -14  -9   1  -22.70    8.40
 -14   9   0   -2.60   10.90
 -14  -9   0   -3.00   10.90
 -14   9  -1    5.50   11.80
  14  -9   1   -6.30   11.40
 -14  -9  -1    9.70   12.00
 -14  10   7   -4.60    8.50
 -14 -10   7   -2.10    7.90
 -14  10   6    8.30    9.60
 -14 -10   6    5.30    8.90
 -14  10   5   -4.20    9.10
 -14 -10   5   -1.90    9.10
 -14  10   4   17.20   10.10
 -14 -10   4   30.50   10.60
 -14  10   3  -16.20    9.90
 -14 -10   3    9.00    9.80
 -14  10   2   -1.70   10.30
 -14 -10   2    2.90    9.50
 -14  10   1   11.10   11.60
 -14 -10   1   -4.60    9.90
 -14  10   0    6.00   12.00
 -14 -10   0   13.20   11.00
 -14  11   7   -2.20    8.60
 -14 -11   7   10.10    8.60
 -14  11   6   -1.60    8.80
 -14 -11   6    0.80    8.40
 -14  11   5   15.40   10.30
 -14 -11   5    9.50    9.40
 -14  11   4   -9.90    9.10
 -14 -11   4   -7.30    9.30
 -14  11   3    6.50    9.50
 -14 -11   3   10.40   10.20
 -14  11   2    6.70   11.20
 -14 -11   2    5.80   10.10
 -14  11   1   37.80   12.00
 -14 -11   1    7.60   10.70
 -14  11   0   -6.00   11.20
 -14 -11   0    4.00   10.90
 -14  12   6    9.30    9.10
 -14 -12   6    0.10    8.30
 -14  12   5    1.90    9.50
 -14 -12   5    6.60    9.20
 -14  12   4   -5.90    9.60
 -14 -12   4  -11.90    8.90
 -14  12   3   -3.50   10.00
 -14 -12   3   -1.30    9.40
 -14  12   2    3.70    9.90
 -14 -12   2   -8.90    9.70
 -14  12   1   -1.50   11.20
 -14 -12   1   -1.60   10.70
 -14  12   0   13.40   11.20
 -14 -12   0   16.70   11.80
 -14  13   6  -15.10    8.60
 -14 -13   6   10.00    9.00
 -14  13   5   -7.80    9.10
 -14 -13   5   -9.90    8.70
 -14  13   4  -11.40    9.70
 -14 -13   4    9.20    9.90
 -14  13   3   11.10   10.20
 -14 -13   3    8.10   10.10
 -14  13   2   12.30   11.70
 -14 -13   2   29.70   12.00
 -14  13   1    3.80   10.50
 -14 -13   1   13.50   10.80
 -14  14   5  -11.60    9.20
 -14 -14   5    1.50    9.10
 -14  14   4   21.90   11.00
 -14 -14   4   -9.20    9.50
 -14  14   3   12.20   10.80
 -14 -14   3   20.20   10.80
 -14  14   2    3.10   10.20
 -14 -14   2    0.40   10.50
 -14  14   1    5.90   11.60
 -14 -14   1  -12.90   10.20
 -14  15   4    7.50   10.30
 -14 -15   4   11.40    9.90
 -14  15   3   12.90   11.60
 -14 -15   3    9.30   10.10
 -14  15   2   22.00   12.20
 -14 -15   2   12.00   10.60
 -15   0   6    2.50    9.30
 -15   0   5    3.10    9.50
 -15   0   4   18.40   10.10
 -15   0   3   10.70   10.70
 -15   0   2  -17.00    9.00
 -15   0   1   -3.50   10.40
 -15   1   6    5.60    9.20
 -15  -1   6   -1.00    8.90
 -15   1   5    8.50   10.10
 -15  -1   5    5.00    9.20
 -15   1   4   11.80   10.40
 -15  -1   4    9.60   10.10
 -15   1   3    9.90   10.30
 -15  -1   3   11.90   10.30
 -15   1   2   11.20   10.30
 -15  -1   2   -8.60    9.80
 -15   1   1   14.40   11.30
 -15  -1   1   -2.50   11.00
 -15   2   6    1.60    9.30
 -15  -2   6    1.50    9.00
 -15   2   5    5.40   10.10
 -15  -2   5    1.20    8.80
 -15   2   4   16.00   10.00
 -15  -2   4   10.30    9.80
 -15   2   3    4.10    9.40
 -15  -2   3    5.60   10.00
 -15   2   2   19.00   10.80
 -15  -2   2  -15.00   10.40
 -15   2   1   21.10   12.10
 -15  -2   1   13.60   11.90
 -15   3   6   -6.90    8.90
 -15  -3   6  -15.50    7.90
 -15   3   5   25.50   10.30
 -15  -3   5   -5.80    9.10
 -15   3   4   -1.50    9.80
 -15  -3   4   -6.20    9.20
 -15   3   3   13.70   10.70
 -15  -3   3    3.80    9.90
 -15   3   2   11.00   10.70
 -15  -3   2   -5.40   10.90
 -15   3   1   -8.40   10.80
 -15  -3   1  -10.70   10.70
 -15   4   6   13.90   10.10
 -15  -4   6   12.80    9.20
 -15   4   5    7.20    9.80
 -15  -4   5   -4.30    8.30
 -15   4   4    3.00   10.40
 -15  -4   4    3.50    9.60
 -15   4   3    0.90   10.50
 -15  -4   3   10.50   10.50
 -15   4   2    6.30   11.00
 -15  -4   2  -14.80    9.80
 -15   4   1  -11.50   10.20
 -15  -4   1   -1.40   10.90
 -15   5   6   -9.20    8.90
 -15  -5   6    0.40    8.90
 -15   5   5   13.00   10.20
 -15  -5   5   16.30    9.90
 -15   5   4    1.70    9.90
 -15  -5   4    0.60   10.10
 -15   5   3  -13.80   10.00
 -15  -5   3   -4.00    9.60
 -15   5   2   -9.30   10.40
 -15  -5   2   -9.60    9.80
 -15   6   5   15.40   10.10
 -15  -6   5   11.50    9.70
 -15   6   4   -0.80    9.80
 -15  -6   4    0.50   10.00
 -15   6   3   -5.30   10.50
 -15  -6   3    8.00   10.70
 -15   6   2   10.10   11.10
 -15  -6   2   -3.40    9.80
 -15   7   5   -6.60    9.40
 -15  -7   5   19.00   10.20
 -15   7   4   -7.10    9.80
 -15  -7   4   -5.60   10.20
 -15   7   3  -13.60    9.80
 -15  -7   3    0.00   10.40
 -15   7   2   16.20   11.90
 -15  -7   2   11.90   11.70
 -15   8   4   22.70   11.10
 -15  -8   4   -5.10    9.90
 -15   8   3    4.80   11.10
 -15  -8   3    1.30   10.10
;
_shelx_hkl_checksum              88580
#END Tags that were not found in dictionaries
loop_
_space_group_symop_operation_xyz
'x, y, z'
'-x, y+1/2, -z+1/2'
'-x, -y, -z'
'x, -y-1/2, z-1/2'
loop_
_atom_site_label
_atom_site_type_symbol
_atom_site_fract_x
_atom_site_fract_y
_atom_site_fract_z
_atom_site_U_iso_or_equiv
_atom_site_adp_type
_atom_site_occupancy
_atom_site_site_symmetry_order
_atom_site_calc_flag
_atom_site_refinement_flags_posn
_atom_site_refinement_flags_adp
S1 S 0.46332(8) 0.36145(4) 0.08080(10) 0.0522(3) Uani 1 1 d . .
S2 S 0.92977(10) 0.39900(4) 0.13272(11) 0.0588(3) Uani 1 1 d . .
O1 O 0.3768(2) 0.32420(9) 0.1045(2) 0.0632(7) Uani 1 1 d . .
O2 O 0.4657(2) 0.37244(11) -0.0627(2) 0.0711(8) Uani 1 1 d . .
O3 O 1.0569(2) 0.38761(10) 0.2102(3) 0.0789(9) Uani 1 1 d . .
O4 O 0.8990(3) 0.40705(10) -0.0170(3) 0.0810(9) Uani 1 1 d . .
N1 N 0.8439(2) 0.35255(11) 0.1626(3) 0.0499(7) Uani 1 1 d . .
C1 C 1.1783(4) 0.28458(15) 0.8047(4) 0.0622(11) Uani 1 1 d . .
H1B H 1.2575 0.2791 0.8679 0.075 Uiso 1 1 calc R U
C2 C 1.1443(3) 0.25857(14) 0.6787(4) 0.0567(10) Uani 1 1 d . .
H2B H 1.1999 0.2352 0.6569 0.068 Uiso 1 1 calc R U
C3 C 1.0956(4) 0.31869(14) 0.8376(4) 0.0575(10) Uani 1 1 d . .
H3B H 1.1192 0.3363 0.9232 0.069 Uiso 1 1 calc R U
C4 C 0.9780(3) 0.32711(13) 0.7447(3) 0.0498(9) Uani 1 1 d . .
H4B H 0.9224 0.3501 0.7684 0.060 Uiso 1 1 calc R U
C5 C 1.0271(3) 0.26719(13) 0.5841(3) 0.0488(9) Uani 1 1 d . .
H5A H 1.0051 0.2498 0.4981 0.059 Uiso 1 1 calc R U
C6 C 0.9418(3) 0.30129(12) 0.6150(3) 0.0415(8) Uani 1 1 d . .
C7 C 0.8178(3) 0.31063(11) 0.5135(3) 0.0390(8) Uani 1 1 d . .
C8 C 0.7957(3) 0.31862(12) 0.3731(3) 0.0398(8) Uani 1 1 d . .
C9 C 0.8880(3) 0.31860(13) 0.2848(3) 0.0472(9) Uani 1 1 d . .
H9A H 0.9704 0.3298 0.3419 0.057 Uiso 1 1 calc R U
H9B H 0.8968 0.2843 0.2519 0.057 Uiso 1 1 calc R U
C10 C 0.7133(3) 0.34780(15) 0.0810(3) 0.0566(10) Uani 1 1 d . .
H10A H 0.7044 0.3176 0.0223 0.068 Uiso 1 1 calc R U
H10B H 0.6910 0.3769 0.0183 0.068 Uiso 1 1 calc R U
C11 C 0.6211(3) 0.34443(12) 0.1726(3) 0.0422(8) Uani 1 1 d . .
C12 C 0.6606(3) 0.32904(12) 0.3083(3) 0.0424(8) Uani 1 1 d . .
C13 C 0.5981(3) 0.32168(12) 0.4243(3) 0.0416(8) Uani 1 1 d . .
C14 C 0.4725(3) 0.32067(13) 0.4286(4) 0.0516(9) Uani 1 1 d . .
H14A H 0.4074 0.3274 0.3474 0.062 Uiso 1 1 calc R U
C15 C 0.4457(4) 0.30946(14) 0.5563(4) 0.0600(10) Uani 1 1 d . .
H15A H 0.3618 0.3085 0.5599 0.072 Uiso 1 1 calc R U
C16 C 0.5404(4) 0.29991(14) 0.6761(4) 0.0586(10) Uani 1 1 d . .
H16A H 0.5202 0.2930 0.7606 0.070 Uiso 1 1 calc R U
C17 C 0.6662(3) 0.30037(12) 0.6739(4) 0.0511(9) Uani 1 1 d . .
H17A H 0.7304 0.2935 0.7557 0.061 Uiso 1 1 calc R U
C18 C 0.6945(3) 0.31122(12) 0.5484(3) 0.0413(8) Uani 1 1 d . .
C19 C 0.4343(3) 0.41921(13) 0.1577(3) 0.0481(9) Uani 1 1 d . .
C20 C 0.3291(4) 0.42411(15) 0.2063(4) 0.0666(11) Uani 1 1 d . .
H20A H 0.2753 0.3965 0.2033 0.080 Uiso 1 1 calc R U
C21 C 0.5110(4) 0.46066(17) 0.1606(5) 0.0798(13) Uani 1 1 d . .
H21A H 0.5814 0.4580 0.1253 0.096 Uiso 1 1 calc R U
C22 C 0.4844(4) 0.50621(17) 0.2154(5) 0.0866(14) Uani 1 1 d . .
H22A H 0.5374 0.5340 0.2170 0.104 Uiso 1 1 calc R U
C23 C 0.3032(4) 0.47002(17) 0.2596(4) 0.0755(12) Uani 1 1 d . .
H23A H 0.2306 0.4731 0.2910 0.091 Uiso 1 1 calc R U
C24 C 0.3809(4) 0.51134(16) 0.2678(4) 0.0703(12) Uani 1 1 d . .
C25 C 0.3538(5) 0.56127(16) 0.3288(5) 0.1121(18) Uani 1 1 d . .
H25A H 0.4188 0.5854 0.3253 0.168 Uiso 1 1 calc R U
H25B H 0.2730 0.5739 0.2744 0.168 Uiso 1 1 calc R U
H25C H 0.3523 0.5564 0.4255 0.168 Uiso 1 1 calc R U
C26 C 0.8828(3) 0.45396(14) 0.2073(4) 0.0513(9) Uani 1 1 d . .
C27 C 0.8730(5) 0.45387(16) 0.3431(4) 0.0866(14) Uani 1 1 d . .
H27A H 0.8872 0.4239 0.3957 0.104 Uiso 1 1 calc R U
C28 C 0.8578(4) 0.49799(17) 0.1323(4) 0.0829(14) Uani 1 1 d . .
H28A H 0.8615 0.4989 0.0385 0.099 Uiso 1 1 calc R U
C29 C 0.8271(5) 0.54125(17) 0.1949(5) 0.0917(15) Uani 1 1 d . .
H29A H 0.8117 0.5711 0.1420 0.110 Uiso 1 1 calc R U
C30 C 0.8425(5) 0.49745(18) 0.4029(4) 0.0904(15) Uani 1 1 d . .
H30A H 0.8380 0.4966 0.4964 0.109 Uiso 1 1 calc R U
C31 C 0.8184(4) 0.54216(16) 0.3296(5) 0.0676(11) Uani 1 1 d . .
C32 C 0.7844(5) 0.58949(16) 0.3960(5) 0.0957(15) Uani 1 1 d . .
H32A H 0.7831 0.5824 0.4918 0.144 Uiso 1 1 calc R U
H32B H 0.8461 0.6154 0.3962 0.144 Uiso 1 1 calc R U
H32C H 0.7021 0.6010 0.3427 0.144 Uiso 1 1 calc R U
loop_
_atom_site_aniso_label
_atom_site_aniso_U_11
_atom_site_aniso_U_22
_atom_site_aniso_U_33
_atom_site_aniso_U_23
_atom_site_aniso_U_13
_atom_site_aniso_U_12
S1 0.0410(5) 0.0602(6) 0.0521(6) -0.0076(5) 0.0069(4) -0.0016(5)
S2 0.0576(7) 0.0644(7) 0.0662(7) -0.0018(5) 0.0368(5) -0.0059(6)
O1 0.0483(15) 0.0582(17) 0.0778(17) -0.0123(14) 0.0080(13) -0.0157(13)
O2 0.0653(17) 0.101(2) 0.0451(15) -0.0017(14) 0.0114(13) 0.0065(15)
O3 0.0447(17) 0.083(2) 0.118(2) -0.0006(17) 0.0367(16) -0.0052(15)
O4 0.117(2) 0.085(2) 0.0613(17) 0.0002(15) 0.0583(17) -0.0076(18)
N1 0.0403(17) 0.060(2) 0.0528(17) 0.0029(15) 0.0191(15) -0.0034(15)
C1 0.050(2) 0.071(3) 0.059(3) 0.011(2) 0.002(2) 0.001(2)
C2 0.046(2) 0.060(3) 0.065(2) 0.004(2) 0.016(2) 0.015(2)
C3 0.063(3) 0.059(3) 0.045(2) -0.0024(19) 0.006(2) -0.009(2)
C4 0.058(2) 0.046(2) 0.049(2) -0.0042(18) 0.020(2) 0.0019(19)
C5 0.047(2) 0.052(2) 0.049(2) -0.0046(18) 0.0152(19) 0.0066(19)
C6 0.044(2) 0.0349(19) 0.047(2) 0.0003(17) 0.0153(17) -0.0007(17)
C7 0.040(2) 0.0312(19) 0.048(2) -0.0044(16) 0.0157(17) 0.0020(16)
C8 0.0335(19) 0.039(2) 0.049(2) -0.0081(16) 0.0152(16) 0.0009(15)
C9 0.041(2) 0.050(2) 0.054(2) -0.0040(18) 0.0179(18) 0.0038(17)
C10 0.050(2) 0.074(3) 0.047(2) -0.0023(19) 0.0172(19) -0.001(2)
C11 0.037(2) 0.043(2) 0.047(2) -0.0098(17) 0.0120(17) -0.0036(16)
C12 0.044(2) 0.039(2) 0.048(2) -0.0093(17) 0.0186(18) -0.0036(17)
C13 0.041(2) 0.038(2) 0.051(2) -0.0065(16) 0.0207(18) -0.0035(16)
C14 0.046(2) 0.054(2) 0.059(2) -0.0010(19) 0.0210(19) -0.0036(19)
C15 0.047(2) 0.062(3) 0.080(3) -0.006(2) 0.034(2) -0.008(2)
C16 0.070(3) 0.053(3) 0.068(3) 0.000(2) 0.045(2) 0.000(2)
C17 0.061(3) 0.045(2) 0.053(2) 0.0017(18) 0.0254(19) 0.0066(19)
C18 0.044(2) 0.036(2) 0.049(2) -0.0044(16) 0.0216(18) 0.0017(16)
C19 0.039(2) 0.047(2) 0.057(2) 0.0017(18) 0.0121(18) -0.0039(18)
C20 0.062(3) 0.052(3) 0.094(3) -0.005(2) 0.036(2) -0.010(2)
C21 0.055(3) 0.061(3) 0.133(4) -0.007(3) 0.042(3) -0.009(2)
C22 0.069(3) 0.052(3) 0.143(4) -0.011(3) 0.036(3) -0.014(2)
C23 0.079(3) 0.065(3) 0.098(3) -0.004(3) 0.051(3) -0.001(3)
C24 0.073(3) 0.051(3) 0.090(3) -0.005(2) 0.029(3) 0.000(2)
C25 0.142(5) 0.056(3) 0.150(5) -0.018(3) 0.059(4) 0.007(3)
C26 0.057(2) 0.051(3) 0.050(2) -0.0008(19) 0.0219(18) -0.0082(19)
C27 0.149(4) 0.056(3) 0.068(3) 0.008(2) 0.052(3) 0.009(3)
C28 0.129(4) 0.064(3) 0.062(3) 0.006(3) 0.037(3) -0.004(3)
C29 0.143(5) 0.054(3) 0.080(3) 0.009(3) 0.033(3) 0.010(3)
C30 0.157(5) 0.062(3) 0.066(3) -0.008(3) 0.052(3) 0.001(3)
C31 0.080(3) 0.054(3) 0.068(3) -0.011(2) 0.019(2) -0.005(2)
C32 0.126(4) 0.066(3) 0.098(3) -0.015(3) 0.035(3) 0.005(3)
loop_
_atom_type_symbol
_atom_type_description
_atom_type_scat_dispersion_real
_atom_type_scat_dispersion_imag
_atom_type_scat_source
C C 0.0033 0.0016 'International Tables Vol C Tables 4.2.6.8 and 6.1.1.4'
H H 0.0000 0.0000 'International Tables Vol C Tables 4.2.6.8 and 6.1.1.4'
N N 0.0061 0.0033 'International Tables Vol C Tables 4.2.6.8 and 6.1.1.4'
O O 0.0106 0.0060 'International Tables Vol C Tables 4.2.6.8 and 6.1.1.4'
S S 0.1246 0.1234 'International Tables Vol C Tables 4.2.6.8 and 6.1.1.4'
loop_
_geom_angle_atom_site_label_1
_geom_angle_atom_site_label_2
_geom_angle_atom_site_label_3
_geom_angle
O1 S1 O2 118.98(16)
O1 S1 C19 108.55(16)
O2 S1 C19 107.25(17)
O1 S1 C11 110.09(15)
O2 S1 C11 105.79(15)
C19 S1 C11 105.34(15)
O3 S2 O4 120.15(17)
O3 S2 N1 106.12(16)
O4 S2 N1 108.11(16)
O3 S2 C26 107.78(17)
O4 S2 C26 106.88(17)
N1 S2 C26 107.19(15)
C10 N1 C9 117.3(3)
C10 N1 S2 120.2(2)
C9 N1 S2 121.9(2)
C2 C1 C3 120.1(4)
C2 C1 H1B 120.0
C3 C1 H1B 120.0
C1 C2 C5 119.8(3)
C1 C2 H2B 120.1
C5 C2 H2B 120.1
C1 C3 C4 120.5(3)
C1 C3 H3B 119.7
C4 C3 H3B 119.7
C3 C4 C6 120.3(3)
C3 C4 H4B 119.8
C6 C4 H4B 119.8
C2 C5 C6 121.2(3)
C2 C5 H5A 119.4
C6 C5 H5A 119.4
C5 C6 C4 118.1(3)
C5 C6 C7 120.9(3)
C4 C6 C7 121.0(3)
C8 C7 C6 126.5(3)
C8 C7 C18 108.1(3)
C6 C7 C18 125.4(3)
C7 C8 C12 110.6(3)
C7 C8 C9 128.8(3)
C12 C8 C9 120.6(3)
N1 C9 C8 110.2(3)
N1 C9 H9A 109.6
C8 C9 H9A 109.6
N1 C9 H9B 109.6
C8 C9 H9B 109.6
H9A C9 H9B 108.1
N1 C10 C11 113.2(3)
N1 C10 H10A 108.9
C11 C10 H10A 108.9
N1 C10 H10B 108.9
C11 C10 H10B 108.9
H10A C10 H10B 107.7
C12 C11 C10 120.8(3)
C12 C11 S1 125.8(3)
C10 C11 S1 113.4(2)
C11 C12 C8 120.1(3)
C11 C12 C13 134.5(3)
C8 C12 C13 105.3(3)
C14 C13 C18 119.3(3)
C14 C13 C12 133.6(3)
C18 C13 C12 106.9(3)
C13 C14 C15 118.9(3)
C13 C14 H14A 120.5
C15 C14 H14A 120.5
C16 C15 C14 121.1(3)
C16 C15 H15A 119.5
C14 C15 H15A 119.5
C15 C16 C17 120.9(3)
C15 C16 H16A 119.5
C17 C16 H16A 119.5
C18 C17 C16 118.8(3)
C18 C17 H17A 120.6
C16 C17 H17A 120.6
C17 C18 C13 120.9(3)
C17 C18 C7 130.1(3)
C13 C18 C7 108.8(3)
C20 C19 C21 119.2(4)
C20 C19 S1 119.8(3)
C21 C19 S1 120.9(3)
C19 C20 C23 119.7(4)
C19 C20 H20A 120.2
C23 C20 H20A 120.2
C19 C21 C22 120.4(4)
C19 C21 H21A 119.8
C22 C21 H21A 119.8
C24 C22 C21 121.0(4)
C24 C22 H22A 119.5
C21 C22 H22A 119.5
C24 C23 C20 122.0(4)
C24 C23 H23A 119.0
C20 C23 H23A 119.0
C23 C24 C22 117.6(4)
C23 C24 C25 122.0(4)
C22 C24 C25 120.4(4)
C24 C25 H25A 109.5
C24 C25 H25B 109.5
H25A C25 H25B 109.5
C24 C25 H25C 109.5
H25A C25 H25C 109.5
H25B C25 H25C 109.5
C28 C26 C27 118.1(4)
C28 C26 S2 121.0(3)
C27 C26 S2 120.9(3)
C26 C27 C30 120.6(4)
C26 C27 H27A 119.7
C30 C27 H27A 119.7
C26 C28 C29 120.1(4)
C26 C28 H28A 119.9
C29 C28 H28A 119.9
C31 C29 C28 122.7(4)
C31 C29 H29A 118.6
C28 C29 H29A 118.6
C31 C30 C27 122.1(4)
C31 C30 H30A 119.0
C27 C30 H30A 119.0
C29 C31 C30 116.4(4)
C29 C31 C32 122.1(4)
C30 C31 C32 121.5(4)
C31 C32 H32A 109.5
C31 C32 H32B 109.5
H32A C32 H32B 109.5
C31 C32 H32C 109.5
H32A C32 H32C 109.5
H32B C32 H32C 109.5
loop_
_geom_bond_atom_site_label_1
_geom_bond_atom_site_label_2
_geom_bond_distance
S1 O1 1.424(2)
S1 O2 1.441(2)
S1 C19 1.761(4)
S1 C11 1.776(3)
S2 O3 1.425(3)
S2 O4 1.428(2)
S2 N1 1.616(3)
S2 C26 1.757(4)
N1 C10 1.443(4)
N1 C9 1.465(4)
C1 C2 1.370(5)
C1 C3 1.373(5)
C1 H1B 0.9300
C2 C5 1.383(4)
C2 H2B 0.9300
C3 C4 1.379(4)
C3 H3B 0.9300
C4 C6 1.398(4)
C4 H4B 0.9300
C5 C6 1.386(4)
C5 H5A 0.9300
C6 C7 1.470(4)
C7 C8 1.346(4)
C7 C18 1.481(4)
C8 C12 1.469(4)
C8 C9 1.497(4)
C9 H9A 0.9700
C9 H9B 0.9700
C10 C11 1.524(4)
C10 H10A 0.9700
C10 H10B 0.9700
C11 C12 1.343(4)
C12 C13 1.489(4)
C13 C14 1.387(4)
C13 C18 1.404(4)
C14 C15 1.390(4)
C14 H14A 0.9300
C15 C16 1.363(5)
C15 H15A 0.9300
C16 C17 1.384(4)
C16 H16A 0.9300
C17 C18 1.376(4)
C17 H17A 0.9300
C19 C20 1.366(4)
C19 C21 1.371(5)
C20 C23 1.374(5)
C20 H20A 0.9300
C21 C22 1.375(5)
C21 H21A 0.9300
C22 C24 1.371(5)
C22 H22A 0.9300
C23 C24 1.369(5)
C23 H23A 0.9300
C24 C25 1.504(5)
C25 H25A 0.9600
C25 H25B 0.9600
C25 H25C 0.9600
C26 C28 1.358(5)
C26 C27 1.362(5)
C27 C30 1.368(5)
C27 H27A 0.9300
C28 C29 1.376(6)
C28 H28A 0.9300
C29 C31 1.347(5)
C29 H29A 0.9300
C30 C31 1.365(5)
C30 H30A 0.9300
C31 C32 1.497(5)
C32 H32A 0.9600
C32 H32B 0.9600
C32 H32C 0.9600
