#------------------------------------------------------------------------------
#$Date: 2017-06-05 03:48:23 +0300 (Mon, 05 Jun 2017) $
#$Revision: 197497 $
#$URL: file:///home/coder/svn-repositories/cod/cif/1/54/58/1545880.cif $
#------------------------------------------------------------------------------
#
# This file is available in the Crystallography Open Database (COD),
# http://www.crystallography.net/
#
# All data on this site have been placed in the public domain by the
# contributors.
#
data_1545880
loop_
_publ_author_name
'Xing, Jiaojiao'
'Lei, Yu'
'Gao, Yu-Ning'
'Shi, Min'
_publ_section_title
;
 PPh3-Catalyzed [3 + 2] Spiroannulation of 1C,3N-Bisnucleophiles Derived
 from Secondary \b-Ketoamides with \d-Acetoxy Allenoate: A Route to
 Functionalized Spiro N-Heterocyclic Derivatives.
;
_journal_issue                   9
_journal_name_full               'Organic letters'
_journal_page_first              2382
_journal_page_last               2385
_journal_paper_doi               10.1021/acs.orglett.7b00910
_journal_volume                  19
_journal_year                    2017
_chemical_formula_moiety         'C22 H27 N O6 S'
_chemical_formula_sum            'C22 H27 N O6 S'
_chemical_formula_weight         433.50
_chemical_name_systematic
;
 ?
;
_space_group_crystal_system      monoclinic
_space_group_IT_number           14
_space_group_name_Hall           '-P 2ybc'
_space_group_name_H-M_alt        'P 1 21/c 1'
_symmetry_space_group_name_Hall  '-P 2ybc'
_symmetry_space_group_name_H-M   'P 1 21/c 1'
_atom_sites_solution_hydrogens   geom
_atom_sites_solution_primary     heavy
_audit_creation_date             2015-05-21
_audit_creation_method
;
Olex2 1.2
(compiled 2015.01.26 svn.r3150 for OlexSys, GUI svn.r4998)
;
_cell_angle_alpha                90
_cell_angle_beta                 98.140(2)
_cell_angle_gamma                90
_cell_formula_units_Z            4
_cell_length_a                   15.5866(16)
_cell_length_b                   9.8958(10)
_cell_length_c                   14.2650(14)
_cell_measurement_reflns_used    3142
_cell_measurement_temperature    130
_cell_measurement_theta_max      28.527
_cell_measurement_theta_min      2.45
_cell_volume                     2178.1(4)
_computing_cell_refinement       'SAINT v7.68A (Bruker, 2009)'
_computing_data_reduction        'SAINT v7.68A (Bruker, 2009)'
_computing_molecular_graphics    'Olex2 (Dolomanov et al., 2009)'
_computing_publication_material  'Olex2 (Dolomanov et al., 2009)'
_computing_structure_refinement  'XL (Sheldrick, 2008)'
_computing_structure_solution    'XS (Sheldrick, 2008)'
_diffrn_ambient_temperature      130
_diffrn_measured_fraction_theta_full 1.000
_diffrn_measured_fraction_theta_max 0.996
_diffrn_measurement_device_type  'Bruker APEX-II CCD'
_diffrn_measurement_method       '\f and \w scans'
_diffrn_radiation_monochromator  graphite
_diffrn_radiation_type           MoK\a
_diffrn_radiation_wavelength     0.71073
_diffrn_reflns_av_R_equivalents  0.0514
_diffrn_reflns_av_unetI/netI     0.0562
_diffrn_reflns_Laue_measured_fraction_full 1.000
_diffrn_reflns_Laue_measured_fraction_max 0.996
_diffrn_reflns_limit_h_max       22
_diffrn_reflns_limit_h_min       -22
_diffrn_reflns_limit_k_max       14
_diffrn_reflns_limit_k_min       -14
_diffrn_reflns_limit_l_max       16
_diffrn_reflns_limit_l_min       -20
_diffrn_reflns_number            21654
_diffrn_reflns_point_group_measured_fraction_full 1.000
_diffrn_reflns_point_group_measured_fraction_max 0.996
_diffrn_reflns_theta_full        26.000
_diffrn_reflns_theta_max         30.661
_diffrn_reflns_theta_min         2.445
_diffrn_standards_number         0
_exptl_absorpt_coefficient_mu    0.187
_exptl_absorpt_correction_T_max  0.7461
_exptl_absorpt_correction_T_min  0.6711
_exptl_absorpt_correction_type   multi-scan
_exptl_absorpt_process_details
;
SADABS-2008/1 (Bruker,2008) was used for absorption correction.
wR2(int) was 0.0570 before and 0.0497 after correction.
The Ratio of minimum to maximum transmission is 0.8995.
The \l/2 correction factor is 0.0015.
;
_exptl_crystal_colour            colourless
_exptl_crystal_density_diffrn    1.322
_exptl_crystal_description       block
_exptl_crystal_F_000             920
_exptl_crystal_size_max          0.22
_exptl_crystal_size_mid          0.16
_exptl_crystal_size_min          0.1
_refine_diff_density_max         0.412
_refine_diff_density_min         -0.506
_refine_diff_density_rms         0.060
_refine_ls_extinction_method     none
_refine_ls_goodness_of_fit_ref   0.916
_refine_ls_hydrogen_treatment    constr
_refine_ls_matrix_type           full
_refine_ls_number_parameters     275
_refine_ls_number_reflns         6720
_refine_ls_number_restraints     0
_refine_ls_restrained_S_all      0.916
_refine_ls_R_factor_all          0.0754
_refine_ls_R_factor_gt           0.0474
_refine_ls_shift/su_max          0.001
_refine_ls_shift/su_mean         0.000
_refine_ls_structure_factor_coef Fsqd
_refine_ls_weighting_details
'w=1/[\s^2^(Fo^2^)+(0.1000P)^2^] where P=(Fo^2^+2Fc^2^)/3'
_refine_ls_weighting_scheme      calc
_refine_ls_wR_factor_gt          0.1317
_refine_ls_wR_factor_ref         0.1522
_reflns_Friedel_coverage         0.000
_reflns_number_gt                4740
_reflns_number_total             6720
_reflns_threshold_expression     'I > 2\s(I)'
_cod_data_source_file            ol7b00910_si_003.cif
_cod_data_source_block           dm15414
_cod_depositor_comments
'Adding full bibliography for 1545879--1545880.cif.'
_cod_database_code               1545880
_shelxl_version_number           2014-3
_shelx_space_group_comment
;
The symmetry employed for this shelxl refinement is uniquely defined
by the following loop, which should always be used as a source of
symmetry information in preference to the above space-group names.
They are only intended as comments.
;
_shelx_estimated_absorpt_t_max   0.982
_shelx_estimated_absorpt_t_min   0.960
_olex2_refinement_description
;
1. Fixed Uiso
 At 1.2 times of:
  All C(H) groups, All C(H,H) groups
 At 1.5 times of:
  All C(H,H,H) groups
2.a Ternary CH refined with riding coordinates:
 C10(H10)
2.b Secondary CH2 refined with riding coordinates:
 C3(H3A,H3B), C5(H5A,H5B), C9(H9A,H9B), C14(H14A,H14B)
2.c Aromatic/amide H refined with riding coordinates:
 C11(H11), C12(H12), C17(H17), C18(H18), C20(H20), C21(H21)
2.d Idealised Me refined as rotating group:
 C7(H7A,H7B,H7C), C8(H8A,H8B,H8C), C15(H15A,H15B,H15C), C22(H22A,H22B,H22C)
;
_shelx_res_file
;
TITL dm15414 in P21/c #14
REM reset to P21/c #14
CELL 0.71073 15.5866 9.8958 14.265 90 98.14 90
ZERR 4 0.0016 0.001 0.0014 0 0.002 0
LATT 1
SYMM -X,0.5+Y,0.5-Z
SFAC C H N O S
UNIT 88 108 4 24 4

L.S. 4 0 0
PLAN  20
SIZE 0.1 0.16 0.22
TEMP -143.15
BOND
wpdb -1
MORE -1
BOND $H
CONF
fmap 2 53
acta 52
REM <olex2.extras>
REM <HklSrc "%.\\dm15414.hkl">
REM </olex2.extras>

WGHT    0.100000
FVAR       0.11088
S1    5    0.301015    0.581156    0.449413    11.00000    0.01904    0.01828 =
         0.01662   -0.00102    0.00191    0.00060
O1    4    0.132740    0.540059    0.314673    11.00000    0.01844    0.02701 =
         0.03097    0.00591    0.00097   -0.00345
O2    4    0.176625    0.895843    0.294956    11.00000    0.03317    0.02601 =
         0.04276   -0.00411    0.00253    0.00104
O3    4    0.582784    0.500948    0.269087    11.00000    0.02306    0.02320 =
         0.05314   -0.00456    0.00790    0.00172
O4    4    0.642046    0.705683    0.299728    11.00000    0.01517    0.02550 =
         0.03008   -0.00212    0.00287    0.00036
O5    4    0.226998    0.606911    0.495744    11.00000    0.02651    0.02689 =
         0.02184   -0.00275    0.00812    0.00432
O6    4    0.380334    0.651357    0.478024    11.00000    0.02296    0.02206 =
         0.02436   -0.00187   -0.00352   -0.00394
N1    3    0.273823    0.618503    0.335070    11.00000    0.01563    0.02020 =
         0.01874    0.00292    0.00072   -0.00001
C1    1    0.189101    0.606028    0.287948    11.00000    0.01750    0.01849 =
         0.02042    0.00039    0.00041    0.00191
C2    1    0.183818    0.692540    0.198962    11.00000    0.01747    0.02361 =
         0.02072    0.00315    0.00065    0.00083
C3    1    0.119749    0.645513    0.114079    11.00000    0.02262    0.03869 =
         0.02355    0.00291   -0.00348    0.00146
AFIX  23
H3A   2    0.100385    0.552028    0.124201    11.00000   -1.20000
H3B   2    0.147348    0.647438    0.055711    11.00000   -1.20000
AFIX   0
C4    1    0.041179    0.744539    0.104955    11.00000    0.01840    0.04795 =
         0.03002    0.01224    0.00014    0.00349
C5    1    0.080717    0.876103    0.144871    11.00000    0.02467    0.03994 =
         0.03411    0.01516    0.00645    0.01115
AFIX  23
H5A   2    0.105851    0.927481    0.095778    11.00000   -1.20000
H5B   2    0.036668    0.932925    0.169562    11.00000   -1.20000
AFIX   0
C6    1    0.150225    0.833579    0.223532    11.00000    0.01762    0.02379 =
         0.03438    0.00779    0.00618   -0.00022
C7    1   -0.025832    0.696221    0.166864    11.00000    0.01915    0.06819 =
         0.04454    0.01974    0.00438   -0.00069
AFIX 137
H7A   2   -0.049694    0.609003    0.143354    11.00000   -1.50000
H7B   2   -0.072717    0.762690    0.164264    11.00000   -1.50000
H7C   2    0.002173    0.686149    0.232460    11.00000   -1.50000
AFIX   0
C8    1   -0.000062    0.758006    0.001467    11.00000    0.03190    0.07743 =
         0.03396    0.01479   -0.00590    0.00734
AFIX 137
H8A   2    0.043343    0.790888   -0.036486    11.00000   -1.50000
H8B   2   -0.048388    0.822122   -0.003017    11.00000   -1.50000
H8C   2   -0.021551    0.669632   -0.022375    11.00000   -1.50000
AFIX   0
C9    1    0.278753    0.701017    0.182965    11.00000    0.01802    0.03539 =
         0.02094    0.00692    0.00249    0.00488
AFIX  23
H9A   2    0.289719    0.786584    0.150716    11.00000   -1.20000
H9B   2    0.293506    0.624523    0.143463    11.00000   -1.20000
AFIX   0
C10   1    0.332776    0.695031    0.281421    11.00000    0.01531    0.02104 =
         0.02163    0.00355    0.00350    0.00051
AFIX  13
H10   2    0.342392    0.788184    0.308011    11.00000   -1.20000
AFIX   0
C11   1    0.417695    0.625722    0.279224    11.00000    0.01955    0.02262 =
         0.01881    0.00304    0.00284    0.00277
AFIX  43
H11   2    0.417850    0.530577    0.270377    11.00000   -1.20000
AFIX   0
C12   1    0.492466    0.690479    0.288996    11.00000    0.01849    0.02208 =
         0.02819   -0.00090    0.00379    0.00272
AFIX  43
H12   2    0.493105    0.785290    0.299525    11.00000   -1.20000
AFIX   0
C13   1    0.575089    0.619878    0.284041    11.00000    0.01677    0.02412 =
         0.02405    0.00107    0.00343    0.00027
C14   1    0.727009    0.646810    0.298904    11.00000    0.01634    0.03686 =
         0.02387    0.00430    0.00498    0.00445
AFIX  23
H14A  2    0.729043    0.597194    0.238994    11.00000   -1.20000
H14B  2    0.740658    0.582942    0.352352    11.00000   -1.20000
AFIX   0
C15   1    0.790967    0.761607    0.308066    11.00000    0.02110    0.05458 =
         0.02762    0.00385    0.00488   -0.00892
AFIX 137
H15A  2    0.778351    0.821722    0.253252    11.00000   -1.50000
H15B  2    0.849820    0.725535    0.310757    11.00000   -1.50000
H15C  2    0.786382    0.812325    0.366154    11.00000   -1.50000
AFIX   0
C16   1    0.320843    0.407369    0.451553    11.00000    0.01940    0.01811 =
         0.01453    0.00098    0.00066    0.00112
C17   1    0.404937    0.360388    0.453341    11.00000    0.01606    0.02312 =
         0.02739   -0.00029    0.00107   -0.00139
AFIX  43
H17   2    0.451644    0.421744    0.452131    11.00000   -1.20000
AFIX   0
C18   1    0.419442    0.222269    0.456923    11.00000    0.02082    0.02450 =
         0.02947   -0.00041    0.00138    0.00487
AFIX  43
H18   2    0.476827    0.189066    0.458599    11.00000   -1.20000
AFIX   0
C19   1    0.351663    0.131337    0.458114    11.00000    0.02938    0.02160 =
         0.01797    0.00040    0.00171    0.00240
C20   1    0.267750    0.181160    0.453947    11.00000    0.02574    0.02051 =
         0.02182    0.00076    0.00330   -0.00354
AFIX  43
H20   2    0.220745    0.119797    0.452848    11.00000   -1.20000
AFIX   0
C21   1    0.251692    0.318864    0.451375    11.00000    0.01741    0.02215 =
         0.02079    0.00075    0.00151    0.00001
AFIX  43
H21   2    0.194321    0.352208    0.449519    11.00000   -1.20000
AFIX   0
C22   1    0.368623   -0.018205    0.464655    11.00000    0.03963    0.01974 =
         0.03658    0.00117    0.00414    0.00506
AFIX 137
H22A  2    0.391637   -0.042039    0.530075    11.00000   -1.50000
H22B  2    0.410888   -0.042730    0.422817    11.00000   -1.50000
H22C  2    0.314396   -0.067297    0.445334    11.00000   -1.50000
AFIX   0
HKLF 4

REM  dm15414 in P21/c #14
REM R1 =  0.0474 for    4740 Fo > 4sig(Fo)  and  0.0754 for all    6720 data
REM    275 parameters refined using      0 restraints

END

WGHT      0.0525      0.3961

REM Highest difference peak  0.412,  deepest hole -0.506,  1-sigma level  0.060
Q1    1   0.1810  0.6549  0.2430  11.00000  0.05    0.41
Q2    1   0.3447  0.6188  0.4733  11.00000  0.05    0.37
Q3    1   0.0600  0.8043  0.1384  11.00000  0.05    0.35
Q4    1   0.2924  0.3612  0.4567  11.00000  0.05    0.33
Q5    1   0.1649  0.7525  0.2187  11.00000  0.05    0.33
Q6    1   0.3848  0.1792  0.4720  11.00000  0.05    0.31
Q7    1   0.2665  0.2536  0.4601  11.00000  0.05    0.30
Q8    1   0.3581  0.3801  0.4373  11.00000  0.05    0.29
Q9    1   0.4598  0.6445  0.3047  11.00000  0.05    0.28
Q10   1   0.3610  0.0619  0.4582  11.00000  0.05    0.28
Q11   1   0.7628  0.7024  0.3044  11.00000  0.05    0.28
Q12   1   0.2312  0.6252  0.3196  11.00000  0.05    0.28
Q13   1   0.3078  0.4848  0.4543  11.00000  0.05    0.27
Q14   1   0.3134  0.1486  0.4389  11.00000  0.05    0.27
Q15   1   0.3756  0.6607  0.2829  11.00000  0.05    0.26
Q16   1   0.0784  0.7027  0.1136  11.00000  0.05    0.26
Q17   1   0.2589  0.6379  0.4782  11.00000  0.05    0.26
Q18   1   0.4443  0.6714  0.2595  11.00000  0.05    0.26
Q19   1   0.4086  0.2933  0.4459  11.00000  0.05    0.26
Q20   1   0.1492  0.6686  0.1598  11.00000  0.05    0.25
;
_shelx_res_checksum              38854
_shelx_hkl_file
;
   0   0  -1   -0.02    0.01
   0   0  -1    0.01    0.02
   0   0  -2   21.06    0.58
   0   0  -2   21.03    0.65
   0   0  -2   21.29    0.63
   0   0   2   21.60    0.59
   0   0  -3    0.06    0.07
   0   0  -3   -0.04    0.06
   0   0   3   -0.03    0.03
   0   0  -4  448.03   11.67
   0   0   4  443.80   11.60
   0   0  -4  449.10   11.94
   0   0   5    0.02    0.03
   0   0  -5    0.11    0.08
   0   0  -5    0.12    0.09
   0   0   6   45.79    1.24
   0   0  -6   46.62    1.38
   0   0  -6   46.63    1.44
   0   0  -7   -0.03    0.10
   0   0  -7   -0.04    0.09
   0   0  -8  112.39    3.19
   0   0  -8  115.75    3.31
   0   0  -9    0.10    0.14
   0   0  -9    0.33    0.14
   0   0 -10    0.17    0.15
   0   0 -10    0.01    0.15
   0   0 -11    0.22    0.19
   0   0 -11    0.04    0.16
   0   0 -12   75.90    2.36
   0   0 -12   78.43    2.50
   0   0 -13    1.17    0.27
   0   0 -14    0.44    0.25
   0   0 -14    0.52    0.23
   0   0 -15   -0.27    0.19
   0   0 -15    0.36    0.23
   0   0 -16    0.15    0.24
   0   0 -16   -0.23    0.24
   0   0 -17   -0.16    0.22
   0   0 -17   -0.04    0.25
   0   0 -18   10.37    0.75
   0   0 -18    9.99    0.89
   0   0 -19    0.29    0.32
   0   0 -19    0.00    0.29
   0   0 -20    7.94    0.85
   0   1   0   -0.06    0.02
   0   1   0   -0.16    0.03
   0   1   1  136.94    3.57
   0   1  -1  138.17    3.56
   0   1  -1  136.00    3.63
   0  -1  -1  132.76    3.61
   0  -1  -1  134.38    3.57
   0   1   2   14.40    0.44
   0   1  -2   14.69    0.43
   0   1  -2   14.99    0.47
   0  -1  -2   14.28    0.46
   0  -1  -2   14.63    0.45
   0   1  -3    7.15    0.31
   0   1   3    6.83    0.25
   0   1  -3    7.29    0.24
   0   1  -3    6.55    0.27
   0  -1  -3    7.53    0.29
   0  -1  -3    6.97    0.29
   0   1  -4  212.89    5.66
   0   1   4  216.35    5.61
   0   1  -4  211.62    5.81
   0   1  -4  214.36    5.59
   0  -1  -4  212.39    5.67
   0  -1  -4  217.29    5.78
   0   1  -5  112.99    3.00
   0   1  -5  114.01    3.20
   0   1   5  112.93    3.02
   0   1  -5  114.04    3.09
   0  -1  -5  111.93    3.10
   0  -1  -5  116.70    3.17
   0   1  -6   56.61    1.74
   0   1  -6   57.46    1.55
   0   1  -6   58.93    1.67
   0   1   6   57.30    1.57
   0  -1  -6   57.03    1.68
   0  -1  -6   57.58    1.72
   0   1   7   20.28    0.62
   0   1  -7   20.72    0.60
   0   1  -7   21.39    0.79
   0   1  -7   20.03    0.73
   0  -1  -7   20.80    0.77
   0  -1  -7   21.54    0.75
   0   1  -8   32.08    1.16
   0   1  -8   34.42    1.10
   0   1   8   32.40    0.94
   0  -1  -8   34.05    1.11
   0  -1  -8   34.02    1.15
   0   1  -9   -0.01    0.12
   0   1  -9    0.10    0.14
   0   1   9    0.04    0.06
   0  -1  -9   -0.14    0.11
   0  -1  -9   -0.13    0.12
   0   1 -10    2.18    0.31
   0   1 -10    1.53    0.24
   0  -1 -10    1.93    0.28
   0  -1 -10    2.08    0.28
   0   1 -11    8.94    0.52
   0   1 -11    9.60    0.59
   0  -1 -11    9.06    0.52
   0  -1 -11   10.40    0.59
   0   1 -12    0.07    0.19
   0   1 -12    0.37    0.19
   0  -1 -12    0.21    0.20
   0  -1 -12    0.37    0.19
   0   1 -13    1.17    0.26
   0   1 -13    0.61    0.25
   0  -1 -13    0.87    0.26
   0  -1 -13    1.64    0.29
   0   1 -14    0.63    0.27
   0   1 -14    0.16    0.18
   0  -1 -14    0.70    0.26
   0  -1 -14    0.39    0.22
   0   1 -15    0.37    0.23
   0   1 -15    0.05    0.20
   0  -1 -15    0.32    0.22
   0  -1 -15    0.49    0.27
   0   1 -16    9.63    0.70
   0   1 -16    9.76    0.66
   0  -1 -16    8.89    0.69
   0  -1 -16    9.46    0.65
   0   1 -17    1.86    0.41
   0   1 -17    2.21    0.41
   0  -1 -17    1.49    0.35
   0  -1 -17    1.58    0.40
   0   1 -18    0.22    0.29
   0  -1 -18   -0.06    0.25
   0  -1 -18    0.20    0.28
   0   1 -19    4.33    0.62
   0  -1 -19    4.44    0.57
   0  -1 -19    4.06    0.61
   0   1 -20    1.91    0.48
   0  -1 -20    2.08    0.48
   0   2   0  155.37    4.02
   0   2   0  147.07    4.04
   0   2   1  263.69    7.13
   0   2  -1  278.18    7.13
   0   2  -1  272.72    7.24
   0   2  -2   10.89    0.39
   0   2   2   11.14    0.40
   0   2  -2   10.88    0.40
   0  -2  -2   10.95    0.40
   0  -2  -2   11.02    0.35
   0   2   3    3.88    0.22
   0   2  -3    4.71    0.24
   0   2  -3    4.70    0.22
   0  -2  -3    4.46    0.24
   0  -2  -3    4.42    0.20
   0   2  -4    0.14    0.07
   0   2  -4    0.13    0.08
   0   2   4    0.15    0.08
   0  -2  -4    0.22    0.08
   0  -2  -4    0.08    0.08
   0   2  -5   14.51    0.57
   0   2  -5   13.87    0.46
   0   2   5   13.96    0.48
   0  -2  -5   13.20    0.52
   0  -2  -5   13.22    0.50
   0   2  -6   12.02    0.56
   0   2   6   13.05    0.46
   0   2  -6   13.16    0.44
   0  -2  -6   13.85    0.53
   0  -2  -6   12.79    0.52
   0   2  -7   41.79    1.40
   0   2  -7   41.26    1.19
   0   2   7   42.78    1.23
   0  -2  -7   42.10    1.34
   0  -2  -7   43.79    1.34
   0   2   8    1.89    0.17
   0   2  -8    2.07    0.15
   0   2  -8    1.65    0.24
   0  -2  -8    1.40    0.21
   0  -2  -8    1.65    0.23
   0   2  -9    0.67    0.11
   0   2  -9    0.76    0.21
   0   2  -9    0.44    0.16
   0   2   9    0.71    0.12
   0  -2  -9    0.77    0.19
   0  -2  -9    0.75    0.20
   0   2 -10   18.37    0.82
   0   2 -10   17.47    0.74
   0   2  10   17.81    0.59
   0  -2 -10   17.25    0.75
   0  -2 -10   17.59    0.78
   0   2 -11    9.67    0.54
   0   2 -11    8.45    0.56
   0  -2 -11   10.03    0.55
   0  -2 -11    8.84    0.55
   0   2 -12    0.85    0.26
   0  -2 -12    0.95    0.25
   0  -2 -12    1.19    0.27
   0   2 -13    1.38    0.31
   0  -2 -13    1.13    0.27
   0  -2 -13    0.78    0.24
   0   2 -14    0.19    0.23
   0  -2 -14    0.20    0.22
   0  -2 -14   -0.07    0.18
   0   2 -15    0.40    0.25
   0  -2 -15    0.02    0.20
   0  -2 -15   -0.22    0.19
   0   2 -16    0.06    0.22
   0  -2 -16   -0.16    0.21
   0  -2 -16   -0.08    0.22
   0   2 -17    1.99    0.43
   0  -2 -17    2.34    0.41
   0  -2 -17    2.76    0.46
   0   2 -18    0.02    0.30
   0  -2 -18    0.04    0.26
   0  -2 -18    0.24    0.30
   0   2 -19    0.34    0.35
   0  -2 -19    0.59    0.34
   0  -2 -19    0.70    0.35
   0   2 -20   -0.22    0.31
   0  -2 -20    0.17    0.33
   0   3   0    0.01    0.05
   0   3   0   -0.14    0.09
   0   3   1   19.46    0.66
   0   3  -1   19.84    0.61
   0   3   1   18.98    0.56
   0   3  -1   18.12    0.64
   0   3  -2   48.21    1.40
   0   3  -2   47.53    1.39
   0   3   2   47.91    1.41
   0  -3  -2   47.84    1.41
   0   3  -3   13.21    0.49
   0   3   3   13.40    0.51
   0   3  -3   14.69    0.52
   0  -3  -3   13.30    0.44
   0  -3  -3   13.37    0.52
   0   3   4    0.62    0.13
   0   3  -4    0.52    0.12
   0   3  -4    0.79    0.13
   0  -3  -4    0.45    0.12
   0  -3  -4    0.52    0.10
   0   3  -5   33.88    1.00
   0   3   5   31.93    1.02
   0   3  -5   33.11    1.09
   0  -3  -5   31.03    1.05
   0  -3  -5   32.88    1.01
   0   3  -6   49.08    1.54
   0   3   6   47.87    1.43
   0   3  -6   47.00    1.40
   0  -3  -6   47.91    1.45
   0  -3  -6   49.07    1.49
   0   3  -7    0.93    0.14
   0   3  -7    1.01    0.19
   0   3   7    1.08    0.16
   0  -3  -7    1.03    0.19
   0  -3  -7    1.41    0.20
   0   3  -8    0.61    0.17
   0   3   8    0.65    0.14
   0   3  -8    0.59    0.13
   0  -3  -8    0.51    0.17
   0  -3  -8    0.58    0.16
   0   3  -9    9.57    0.55
   0   3  -9    8.67    0.38
   0   3   9    9.93    0.43
   0  -3  -9   10.31    0.51
   0  -3  -9    9.44    0.51
   0   3 -10   -0.19    0.10
   0   3 -10    0.26    0.18
   0   3  10    0.02    0.11
   0  -3 -10    0.11    0.16
   0  -3 -10   -0.05    0.13
   0   3 -11    4.25    0.46
   0  -3 -11    4.80    0.44
   0  -3 -11    4.38    0.44
   0   3 -12    0.05    0.17
   0  -3 -12   -0.09    0.17
   0  -3 -12    0.00    0.18
   0   3 -13    3.82    0.47
   0  -3 -13    3.50    0.42
   0  -3 -13    2.66    0.38
   0   3 -14    0.79    0.28
   0  -3 -14    0.97    0.28
   0  -3 -14    0.76    0.26
   0   3 -15    0.42    0.25
   0  -3 -15    0.57    0.26
   0  -3 -15    0.16    0.23
   0   3 -16    1.90    0.41
   0  -3 -16    2.31    0.41
   0  -3 -16    2.58    0.43
   0   3 -17    2.03    0.44
   0  -3 -17    2.35    0.42
   0  -3 -17    2.39    0.44
   0   3 -18   -0.15    0.27
   0  -3 -18    0.28    0.29
   0  -3 -18    0.08    0.28
   0   3 -19    1.13    0.40
   0  -3 -19    1.41    0.40
   0  -3 -19    0.92    0.36
   0   4   0  117.62    3.31
   0   4   0  121.74    3.26
   0   4   1   27.38    0.81
   0   4  -1   27.05    0.85
   0   4  -1   28.92    0.93
   0   4   1   27.36    0.92
   0   4  -2   14.16    0.56
   0   4  -2   13.87    0.52
   0   4   2   14.08    0.56
   0  -4  -2   14.52    0.57
   0   4  -3    8.35    0.38
   0   4   3    7.22    0.39
   0   4  -3    7.66    0.39
   0  -4  -3    7.63    0.39
   0  -4  -3    7.74    0.30
   0   4  -4    8.38    0.40
   0   4   4    7.99    0.40
   0   4  -4    7.45    0.38
   0  -4  -4    6.91    0.39
   0  -4  -4    7.83    0.32
   0   4  -5    0.63    0.15
   0   4   5    0.95    0.17
   0   4  -5    0.77    0.16
   0  -4  -5    0.35    0.11
   0  -4  -5    0.65    0.16
   0   4   6    0.89    0.19
   0   4  -6    1.27    0.19
   0   4  -6    1.35    0.20
   0  -4  -6    1.28    0.17
   0  -4  -6    0.94    0.20
   0   4  -7    1.25    0.19
   0   4   7    1.57    0.22
   0   4  -7    1.35    0.22
   0  -4  -7    1.12    0.21
   0  -4  -7    1.36    0.19
   0   4  -8    0.38    0.14
   0   4   8    0.66    0.17
   0   4  -8    0.59    0.19
   0  -4  -8    0.32    0.14
   0  -4  -8    0.70    0.20
   0   4  -9    4.27    0.42
   0   4   9    4.09    0.34
   0   4  -9    4.26    0.30
   0  -4  -9    4.04    0.40
   0  -4  -9    4.02    0.35
   0   4  10    6.73    0.41
   0   4 -10    6.46    0.36
   0   4 -10    5.47    0.51
   0  -4 -10    7.00    0.48
   0  -4 -10    6.61    0.44
   0   4  11   11.57    0.53
   0   4 -11   11.55    0.69
   0  -4 -11   12.17    0.67
   0  -4 -11   10.05    0.58
   0   4 -12    7.45    0.57
   0  -4 -12    6.55    0.48
   0  -4 -12    8.22    0.55
   0   4 -13    0.22    0.22
   0  -4 -13    0.57    0.24
   0  -4 -13    0.83    0.26
   0   4 -14    2.43    0.42
   0  -4 -14    3.25    0.44
   0  -4 -14    2.98    0.42
   0   4 -15    2.67    0.44
   0  -4 -15    3.20    0.47
   0  -4 -15    2.55    0.41
   0   4 -16    1.80    0.40
   0  -4 -16    1.09    0.34
   0  -4 -16    1.86    0.39
   0   4 -17    0.30    0.31
   0  -4 -17    0.79    0.34
   0  -4 -17    0.97    0.31
   0   4 -18    2.94    0.55
   0  -4 -18    4.47    0.58
   0   4 -19    0.09    0.33
   0  -4 -19    0.39    0.33
   0   5   0   -0.08    0.06
   0   5   0    0.09    0.12
   0   5  -1   73.21    2.08
   0   5  -1   74.05    2.17
   0   5   1   71.48    2.17
   0   5   1   74.44    2.04
   0   5   2   10.98    0.52
   0   5  -2   11.78    0.47
   0   5  -2   11.07    0.53
   0  -5  -2   12.07    0.54
   0   5  -3   15.52    0.63
   0   5   3   14.33    0.63
   0   5  -3   14.01    0.57
   0  -5  -3   14.70    0.63
   0   5   4    9.51    0.49
   0   5  -4    8.52    0.45
   0   5  -4    8.93    0.44
   0  -5  -4    8.71    0.48
   0  -5  -4    9.41    0.36
   0   5  -5    0.18    0.13
   0   5   5    0.24    0.16
   0   5  -5    0.30    0.16
   0  -5  -5    0.15    0.14
   0  -5  -5    0.33    0.10
   0   5  -6    5.46    0.37
   0   5   6    5.88    0.41
   0   5  -6    5.93    0.40
   0  -5  -6    5.47    0.39
   0  -5  -6    6.01    0.31
   0   5  -7    2.74    0.29
   0   5   7    3.35    0.34
   0   5  -7    2.80    0.33
   0  -5  -7    3.33    0.28
   0  -5  -7    3.12    0.35
   0   5   8    6.42    0.43
   0   5  -8    6.06    0.44
   0   5  -8    5.85    0.38
   0  -5  -8    6.70    0.47
   0  -5  -8    6.28    0.39
   0   5  -9   26.51    1.10
   0   5   9   28.11    1.02
   0   5  -9   25.96    0.95
   0  -5  -9   28.69    1.09
   0  -5  -9   26.69    0.98
   0   5  10    1.53    0.26
   0   5 -10    2.00    0.26
   0   5 -10    1.31    0.29
   0  -5 -10    1.88    0.28
   0  -5 -10    1.56    0.30
   0   5  11    1.86    0.27
   0   5 -11    1.27    0.31
   0  -5 -11    1.17    0.28
   0  -5 -11    1.46    0.26
   0   5 -12    1.57    0.32
   0  -5 -12    1.70    0.33
   0  -5 -12    2.00    0.31
   0   5 -13    0.50    0.25
   0  -5 -13    0.94    0.28
   0  -5 -13    0.78    0.25
   0   5 -14    6.84    0.68
   0  -5 -14    7.99    0.70
   0  -5 -14    8.74    0.60
   0   5 -15   -0.04    0.23
   0  -5 -15    0.28    0.24
   0   5 -16    3.54    0.53
   0  -5 -16    4.04    0.54
   0   5 -17    1.69    0.44
   0  -5 -17    1.61    0.41
   0   5 -18   -0.01    0.30
   0  -5 -18    0.14    0.30
   0   6   0    0.36    0.18
   0   6   0    0.26    0.09
   0   6   1    8.43    0.35
   0   6  -1    9.13    0.51
   0   6  -1    8.68    0.38
   0   6   1    9.17    0.51
   0   6   2   16.38    0.72
   0   6  -2   16.10    0.61
   0   6  -2   15.89    0.70
   0  -6  -2   15.38    0.69
   0   6  -3    1.89    0.22
   0   6  -3    1.97    0.27
   0   6   3    1.93    0.29
   0  -6  -3    2.03    0.29
   0   6  -4    2.88    0.28
   0   6   4    2.16    0.31
   0   6  -4    2.54    0.31
   0  -6  -4    2.74    0.20
   0  -6  -4    2.92    0.34
   0   6  -5    0.32    0.16
   0   6   5    0.61    0.22
   0   6  -5    0.43    0.19
   0  -6  -5    0.60    0.20
   0  -6  -5    0.31    0.11
   0   6   6    0.06    0.17
   0   6  -6    0.16    0.15
   0   6  -6    0.16    0.17
   0  -6  -6    0.24    0.18
   0  -6  -6    0.19    0.12
   0   6  -7    4.20    0.41
   0   6  -7    4.46    0.40
   0   6   7    3.85    0.40
   0  -6  -7    3.73    0.42
   0  -6  -7    3.92    0.28
   0   6   8    4.40    0.42
   0   6  -8    3.44    0.39
   0   6  -8    3.28    0.36
   0  -6  -8    4.11    0.44
   0  -6  -8    3.35    0.30
   0   6  -9    5.49    0.44
   0   6   9    5.69    0.48
   0   6  -9    4.81    0.48
   0  -6  -9    5.23    0.50
   0  -6  -9    5.05    0.36
   0   6 -10    0.59    0.24
   0   6 -10    0.43    0.20
   0   6  10    0.61    0.23
   0  -6 -10    0.78    0.20
   0  -6 -10    0.58    0.24
   0   6  11   -0.19    0.16
   0   6 -11   -0.06    0.18
   0  -6 -11    0.08    0.20
   0   6 -12   -0.02    0.19
   0  -6 -12   -0.07    0.20
   0   6 -13    0.53    0.27
   0  -6 -13    0.49    0.25
   0   6 -14   -0.01    0.21
   0  -6 -14    0.50    0.26
   0   6 -15    2.13    0.42
   0  -6 -15    2.28    0.43
   0   6 -16    0.70    0.29
   0  -6 -16    1.90    0.43
   0   6 -17    0.37    0.32
   0  -6 -17    0.58    0.33
   0   6 -18    2.51    0.53
   0  -6 -18    2.28    0.48
   0   7   0    0.20    0.19
   0   7   0    0.12    0.09
   0   7   1    1.36    0.27
   0   7   1    1.44    0.16
   0   7  -1    1.38    0.18
   0   7  -1    1.09    0.26
   0   7  -2    2.51    0.25
   0   7  -2    2.84    0.35
   0   7   2    2.23    0.33
   0  -7  -2    2.55    0.34
   0   7  -3    7.24    0.41
   0   7  -3    6.94    0.50
   0   7   3    7.99    0.53
   0  -7  -3    8.66    0.53
   0   7  -4    2.89    0.30
   0   7  -4    2.41    0.34
   0   7   4    2.28    0.35
   0  -7  -4    3.08    0.38
   0  -7  -4    2.41    0.19
   0   7  -5    6.05    0.42
   0   7   5    6.58    0.55
   0   7  -5    7.08    0.49
   0  -7  -5    6.68    0.49
   0   7  -6    7.87    0.49
   0   7  -6    7.03    0.49
   0   7   6    7.34    0.53
   0  -7  -6    8.44    0.55
   0   7  -7    0.50    0.23
   0   7  -7    0.49    0.20
   0   7   7    0.51    0.23
   0  -7  -7    0.74    0.25
   0   7  -8    0.32    0.20
   0   7   8    0.38    0.23
   0   7  -8    0.57    0.22
   0  -7  -8    0.25    0.21
   0   7   9    5.13    0.49
   0   7  -9    4.68    0.44
   0   7  -9    5.04    0.50
   0  -7  -9    4.32    0.48
   0   7 -10    0.00    0.16
   0   7 -10    0.07    0.21
   0   7  10   -0.17    0.17
   0  -7 -10    0.08    0.21
   0   7  11    2.61    0.38
   0   7 -11    2.44    0.38
   0  -7 -11    2.07    0.39
   0   7 -12    0.88    0.30
   0  -7 -12    1.22    0.32
   0   7 -13    3.37    0.47
   0  -7 -13    1.98    0.41
   0   7 -14    0.49    0.27
   0  -7 -14    0.35    0.28
   0   7 -15    0.13    0.24
   0  -7 -15    0.23    0.27
   0   7 -16   -0.02    0.25
   0  -7 -16    0.43    0.31
   0   7 -17    1.10    0.39
   0  -7 -17    1.56    0.43
   0   8   0    2.32    0.36
   0   8   0    1.94    0.21
   0   8  -1    1.27    0.31
   0   8  -1    0.95    0.17
   0   8   1    1.45    0.32
   0   8  -2    0.35    0.14
   0   8  -2   -0.13    0.20
   0   8   2    0.54    0.24
   0  -8  -2    0.49    0.24
   0   8   3    0.86    0.29
   0   8  -3    0.85    0.27
   0   8  -3    0.85    0.19
   0  -8  -3    1.71    0.32
   0   8  -4    0.23    0.22
   0   8  -4    0.18    0.15
   0   8   4    0.09    0.23
   0  -8  -4    0.50    0.24
   0   8   5    8.26    0.59
   0   8  -5    8.12    0.50
   0   8  -5    8.05    0.55
   0  -8  -5    7.97    0.57
   0   8  -6    0.21    0.21
   0   8   6    0.43    0.23
   0   8  -6    0.32    0.16
   0  -8  -6    0.64    0.25
   0   8  -7    1.86    0.30
   0   8   7    1.26    0.30
   0   8  -7    1.24    0.28
   0  -8  -7    1.24    0.31
   0   8  -8    9.70    0.62
   0   8   8   10.80    0.68
   0   8  -8   10.88    0.63
   0  -8  -8    9.55    0.65
   0   8  -9    0.10    0.22
   0   8   9    0.18    0.24
   0   8  -9   -0.07    0.18
   0  -8  -9    0.15    0.23
   0   8  10    1.22    0.32
   0   8 -10    1.56    0.34
   0   8 -10    0.86    0.27
   0  -8 -10    1.43    0.34
   0   8  11    0.47    0.28
   0   8 -11    0.26    0.23
   0  -8 -11    0.33    0.27
   0   8 -12    1.45    0.35
   0  -8 -12    0.95    0.30
   0   8 -13    3.59    0.50
   0  -8 -13    2.46    0.45
   0   8 -14    0.59    0.30
   0  -8 -14    0.00    0.24
   0   8 -15    0.50    0.31
   0  -8 -15    0.42    0.30
   0   8 -16    0.88    0.38
   0  -8 -16    1.33    0.39
   0   9   0   -0.27    0.17
   0   9  -1   -0.14    0.19
   0   9   1    0.09    0.23
   0  -9  -1    0.11    0.21
   0   9   2    0.40    0.23
   0   9  -2    0.16    0.20
   0  -9  -2    0.76    0.27
   0   9   3    0.15    0.22
   0   9  -3    0.96    0.29
   0   9  -3    1.16    0.21
   0  -9  -3    0.77    0.27
   0   9  -4    7.63    0.63
   0   9  -4    7.08    0.45
   0   9   4    7.39    0.65
   0  -9  -4    6.33    0.60
   0   9   5    0.08    0.24
   0   9  -5   -0.31    0.18
   0   9  -5    0.21    0.17
   0  -9  -5    0.08    0.21
   0   9  -6   -0.34    0.18
   0   9  -6    0.12    0.18
   0   9   6   -0.45    0.18
   0  -9  -6   -0.07    0.20
   0   9  -7    0.64    0.24
   0   9   7    0.48    0.28
   0   9  -7    0.90    0.29
   0  -9  -7    0.44    0.27
   0   9  -8    0.33    0.26
   0   9  -8    0.30    0.20
   0   9   8    0.54    0.28
   0  -9  -8    0.29    0.26
   0   9  -9    2.22    0.38
   0   9  -9    1.99    0.35
   0   9   9    1.83    0.39
   0  -9  -9    1.56    0.35
   0   9 -10    0.77    0.28
   0   9  10    1.00    0.33
   0   9 -10    1.49    0.34
   0  -9 -10    0.82    0.30
   0   9 -11   -0.11    0.22
   0   9  11    0.01    0.27
   0  -9 -11    0.29    0.26
   0   9 -12    3.84    0.52
   0  -9 -12    2.82    0.48
   0   9 -13    3.00    0.50
   0  -9 -13    4.48    0.59
   0   9 -14    2.09    0.44
   0  -9 -14    1.24    0.40
   0   9 -15    0.38    0.30
   0  -9 -15    0.30    0.33
   0  10   0   12.84    0.79
   0  10   1    0.70    0.30
   0  10  -1    0.67    0.29
   0 -10  -1    0.94    0.32
   0  10   2    3.46    0.48
   0  10  -2    2.48    0.42
   0 -10  -2    3.97    0.50
   0  10  -3    4.63    0.53
   0  10   3    4.33    0.55
   0 -10  -3    5.22    0.58
   0  10   4    5.00    0.57
   0  10  -4    4.56    0.53
   0 -10  -4    3.69    0.51
   0  10   5    1.11    0.34
   0  10  -5    0.64    0.28
   0 -10  -5    0.57    0.27
   0  10  -6    0.26    0.19
   0  10  -6   -0.16    0.22
   0  10   6    0.17    0.26
   0 -10  -6   -0.06    0.22
   0  10  -7    1.49    0.30
   0  10   7    0.81    0.34
   0  10  -7    0.80    0.32
   0 -10  -7    1.21    0.34
   0  10  -8    4.12    0.51
   0  10   8    3.84    0.54
   0  10  -8    3.61    0.45
   0 -10  -8    3.68    0.51
   0  10  -9    0.97    0.30
   0  10   9    0.96    0.34
   0  10  -9    0.90    0.33
   0 -10  -9    1.09    0.33
   0  10  10   -0.45    0.25
   0  10 -10   -0.12    0.22
   0 -10 -10   -0.09    0.23
   0  10 -11    0.50    0.29
   0  10  11    0.31    0.31
   0 -10 -11    0.29    0.30
   0  10 -12    1.34    0.38
   0 -10 -12    1.53    0.39
   0  10 -13    1.11    0.37
   0 -10 -13    0.60    0.33
   0  10 -14    1.03    0.37
   0 -10 -14    0.99    0.40
   0  11   0    0.07    0.25
   0 -11   0   -0.29    0.21
   0  11  -1    3.67    0.51
   0  11   1    2.63    0.46
   0 -11  -1    2.66    0.46
   0  11   2    0.09    0.27
   0  11  -2    0.42    0.30
   0 -11  -2    1.22    0.34
   0  11  -3    3.69    0.52
   0  11   3    4.22    0.56
   0 -11  -3    3.42    0.50
   0  11  -4    6.12    0.65
   0  11   4    6.22    0.68
   0 -11  -4    6.91    0.69
   0  11  -5    0.98    0.35
   0  11   5    0.87    0.33
   0 -11  -5    0.72    0.31
   0  11  -6    0.59    0.31
   0  11   6    0.32    0.28
   0 -11  -6    0.61    0.29
   0  11  -7    2.72    0.47
   0  11   7    1.95    0.45
   0 -11  -7    2.01    0.43
   0  11  -8    7.06    0.70
   0  11   8    7.49    0.75
   0 -11  -8    6.87    0.71
   0  11  -9    0.42    0.33
   0  11   9    0.70    0.37
   0 -11  -9    0.20    0.30
   0  11  10    2.46    0.49
   0 -11 -10    1.38    0.41
   0  11  11    4.06    0.61
   0 -11 -11    4.69    0.64
   0  11 -12    0.34    0.29
   0 -11 -12    0.12    0.29
   0  12   0    0.28    0.28
   0 -12   0   -0.32    0.25
   0  12   1    0.93    0.32
   0  12  -1    0.97    0.36
   0 -12   1    0.21    0.31
   0 -12  -1    0.81    0.34
   0  12   2    7.13    0.73
   0  12  -2    6.74    0.72
   0 -12  -2    5.97    0.66
   0  12  -3    4.21    0.58
   0  12   3    4.76    0.63
   0 -12  -3    4.02    0.57
   0  12  -4    0.44    0.33
   0  12   4    0.59    0.33
   0 -12  -4    0.16    0.30
   0  12  -5    0.82    0.35
   0  12   5    0.16    0.31
   0 -12  -5    0.77    0.35
   0  12  -6    3.14    0.52
   0  12   6    3.21    0.53
   0 -12  -6    3.02    0.51
   0  12   7    0.40    0.37
   0  12  -7    0.28    0.33
   0 -12  -7    0.28    0.30
   0  12  -8   -0.14    0.31
   0  12   8   -0.01    0.33
   0 -12  -8   -0.26    0.26
   0  12   9    1.28    0.43
   0  12  -9    1.38    0.43
   0 -12  -9    1.23    0.41
   0  12  10    3.75    0.61
   0 -12 -10    3.79    0.61
   0  13   0    0.41    0.33
   0 -13   0    0.26    0.34
   0  13   1    0.60    0.36
   0  13  -1    0.03    0.28
   0 -13   1    0.96    0.38
   0 -13  -1    0.84    0.37
   0  13  -2   -0.15    0.30
   0  13   2   -0.23    0.27
   0 -13  -2   -0.20    0.29
   0 -13   2   -0.38    0.26
   0  13   3    3.66    0.60
   0  13  -3    2.93    0.54
   0 -13  -3    3.37    0.55
   0  13   4    1.30    0.42
   0  13  -4    0.23    0.34
   0 -13  -4    0.38    0.34
   0  13   5    0.07    0.32
   0  13  -5    0.32    0.33
   0 -13  -5    0.47    0.34
   0  13   6   -0.27    0.29
   0  13  -6    0.10    0.33
   0 -13  -6    0.29    0.33
   0  13   7   -0.27    0.31
   0  13  -7   -0.02    0.32
   0 -13  -7    0.00    0.32
   0  13   8    0.43    0.38
   0  13  -8    0.63    0.39
   0 -13  -8    0.13    0.31
   0  14   0   -0.04    0.31
   0 -14   0   -0.32    0.30
   0  14   1    2.74    0.56
   0  14  -1    3.30    0.60
   0 -14  -1    2.93    0.55
   0 -14   1    2.47    0.53
   0  14  -2    0.71    0.38
   0  14   2    0.90    0.40
   0 -14   2    0.52    0.38
   0 -14  -2    1.32    0.45
   0  14  -3    3.82    0.62
   0  14   3    4.63    0.69
   0 -14  -3    3.44    0.60
   0 -14   3    3.41    0.58
   1   0 -20   -0.52    0.30
   1   0 -19   -0.03    0.25
   1   0 -18    2.66    0.50
   1   0 -18    3.40    0.47
   1   0 -17    0.45    0.30
   1   0 -17    0.48    0.28
   1   0 -16   30.69    1.38
   1   0 -16   30.53    1.24
   1   0 -15    0.23    0.22
   1   0 -15    0.08    0.23
   1   0 -14    4.00    0.49
   1   0 -14    3.03    0.38
   1   0 -13    0.49    0.20
   1   0 -13    0.35    0.22
   1   0 -12   55.29    1.91
   1   0 -12   55.77    1.78
   1   0 -11    0.21    0.17
   1   0 -11    0.12    0.15
   1   0 -10    5.50    0.41
  -1   0  10    5.12    0.22
   1   0 -10    4.88    0.36
   1   0  -9   -0.11    0.10
   1   0  -9    0.05    0.14
  -1   0   9    0.03    0.06
  -1   0   8   30.27    0.87
   1   0  -8   28.75    1.06
   1   0  -8   30.65    0.99
   1   0  -7   -0.10    0.10
   1   0  -7   -0.02    0.08
  -1   0   7   -0.01    0.05
  -1   0   6   72.57    1.98
   1   0  -6   73.31    2.06
   1   0  -6   74.05    2.16
   1   0  -5   -0.04    0.07
  -1   0   5    0.02    0.05
   1   0  -5    0.13    0.10
   1   0  -4  964.91   25.19
  -1   0   4  935.87   25.34
   1   0  -4 1000.00   25.66
   1   0  -3    0.01    0.07
   1   0  -3    0.09    0.05
  -1   0   3   -0.04    0.04
  -1   0   2   87.00    2.36
   1   0  -2   89.82    2.43
   1   0  -2   90.31    2.35
  -1   0   1   -0.04    0.02
   1   0  -1    0.05    0.03
  -1   0  -1   -0.10    0.02
  -1   0  -1    0.07    0.04
  -1   0  -1    0.03    0.04
  -1   0  -2   13.84    0.46
  -1   0  -2   14.37    0.46
  -1   0  -3    0.04    0.07
  -1   0  -3   -0.05    0.07
  -1   0  -4   18.33    0.61
  -1   0  -4   17.62    0.62
  -1   0  -5    0.04    0.08
  -1   0  -5    0.05    0.08
  -1   0  -6  349.04    9.29
  -1   0  -6  354.19    9.49
  -1   0  -7    0.04    0.11
  -1   0  -7    0.02    0.10
  -1   0  -8  178.48    4.98
  -1   0  -8  176.00    4.85
  -1   0  -9    0.27    0.13
  -1   0  -9    0.03    0.12
  -1   0 -10   31.28    1.18
  -1   0 -10   32.08    1.13
  -1   0 -11    0.26    0.17
  -1   0 -11    0.14    0.18
  -1   0 -12    1.60    0.31
  -1   0 -12    2.40    0.33
  -1   0 -13   -0.15    0.15
  -1   0 -13    0.16    0.19
  -1   0 -14    1.99    0.36
  -1   0 -14    2.25    0.36
  -1   0 -15   -0.12    0.18
  -1   0 -15   -0.23    0.19
  -1   0 -16    4.39    0.51
  -1   0 -16    3.65    0.51
  -1   0 -17   -0.10    0.22
  -1   0 -17    0.01    0.25
  -1   0 -18    6.14    0.68
  -1   0 -18    5.62    0.63
  -1   0 -19    0.07    0.32
  -1   0 -19    0.34    0.34
  -1   0 -20    1.03    0.43
   1   1 -20    5.31    0.70
   1  -1 -20    3.19    0.59
   1   1 -19    1.85    0.47
   1  -1 -19    2.09    0.47
   1   1 -18    2.27    0.46
   1  -1 -18    2.33    0.46
   1  -1 -18    2.18    0.41
   1   1 -17    0.38    0.30
   1   1 -17    0.74    0.35
   1  -1 -17    0.59    0.31
   1  -1 -17    0.59    0.30
   1   1 -16    0.69    0.27
   1   1 -16    0.88    0.31
   1  -1 -16    0.88    0.29
   1  -1 -16    1.04    0.33
   1   1 -15    6.13    0.63
   1   1 -15    7.32    0.53
   1  -1 -15    5.60    0.60
   1  -1 -15    6.30    0.56
   1   1 -14    0.02    0.18
   1   1 -14    0.42    0.24
   1  -1 -14    0.20    0.22
   1  -1 -14    0.21    0.18
   1   1 -13    0.14    0.20
   1   1 -13    0.27    0.19
   1  -1 -13    0.51    0.24
   1  -1 -13    0.67    0.21
   1   1 -12    2.86    0.34
   1   1 -12    2.45    0.36
   1  -1 -12    2.22    0.35
   1  -1 -12    2.93    0.36
   1   1 -11   11.52    0.66
   1   1 -11   11.74    0.58
   1  -1 -11   12.31    0.66
   1  -1 -11   11.77    0.58
   1   1 -10   -0.13    0.12
   1   1 -10   -0.03    0.08
   1   1 -10    0.00    0.15
  -1   1  10    0.03    0.08
   1  -1 -10    0.19    0.14
   1  -1 -10    0.08    0.14
   1   1  -9    6.95    0.28
   1   1  -9    7.41    0.46
   1   1  -9    7.24    0.39
  -1   1   9    6.96    0.30
   1  -1  -9    7.84    0.42
   1  -1  -9    7.31    0.44
   1   1  -8   51.24    1.65
   1   1  -8   50.61    1.41
  -1   1   8   50.47    1.43
   1   1  -8   50.54    1.53
   1  -1  -8   51.03    1.55
   1  -1  -8   51.49    1.62
  -1   1   7    0.51    0.10
   1   1  -7    0.77    0.14
   1   1  -7    0.92    0.10
   1   1  -7    0.86    0.18
   1  -1  -7    0.56    0.14
   1  -1  -7    0.76    0.14
   1   1  -6    4.98    0.30
  -1   1   6    4.90    0.22
   1   1  -6    4.44    0.25
   1   1  -6    4.38    0.20
   1  -1  -6    4.29    0.25
   1  -1  -6    5.18    0.30
   1   1  -5   19.37    0.62
   1   1  -5   19.09    0.58
   1   1  -5   19.10    0.69
  -1   1   5   19.31    0.60
   1  -1  -5   19.19    0.64
   1  -1  -5   20.28    0.68
   1   1  -4   76.75    2.15
   1   1  -4   75.57    2.03
   1   1  -4   74.25    2.04
  -1   1   4   76.00    2.04
   1  -1  -4   74.63    2.13
   1  -1  -4   74.86    2.06
   1   1  -3   23.95    0.76
   1   1  -3   23.83    0.70
  -1   1   3   24.62    0.71
   1  -1  -3   24.45    0.75
   1  -1  -3   23.90    0.72
   1   1  -2  212.20    5.72
  -1   1   2  212.90    5.60
   1   1  -2  215.87    5.59
   1  -1  -2  213.80    5.59
   1  -1  -2  213.27    5.71
   1   1  -1   26.95    0.78
   1   1  -1   27.49    0.78
  -1   1   1   28.03    0.78
  -1   1   0   48.40    1.36
   1   1   0   49.05    1.32
   1   1   0   50.11    1.34
  -1  -1   0   50.41    1.33
  -1   1  -1    0.15    0.04
  -1   1  -1    0.05    0.04
   1   1   1    0.10    0.03
   1   1   1    0.14    0.04
  -1  -1  -1    0.05    0.02
  -1  -1  -1    0.11    0.04
   1   1   2    9.92    0.32
  -1   1  -2   10.28    0.31
  -1   1  -2   10.39    0.37
  -1  -1  -2    9.16    0.34
  -1  -1  -2   10.40    0.33
  -1   1  -3   67.51    1.85
  -1   1  -3   68.09    1.78
   1   1   3   66.22    1.80
  -1   1  -3   67.73    1.90
  -1  -1  -3   66.52    1.86
  -1  -1  -3   66.85    1.86
  -1   1  -4   66.75    1.77
   1   1   4   66.56    1.79
  -1   1  -4   68.33    1.93
  -1   1  -4   66.32    1.87
  -1  -1  -4   67.16    1.89
  -1  -1  -4   65.20    1.87
   1   1   5    0.38    0.07
  -1   1  -5    0.44    0.05
  -1   1  -5    0.31    0.11
  -1   1  -5    0.31    0.11
  -1  -1  -5    0.29    0.10
  -1  -1  -5    0.34    0.11
  -1   1  -6    9.37    0.43
   1   1   6    9.46    0.31
  -1   1  -6    9.52    0.45
  -1  -1  -6    9.60    0.43
  -1  -1  -6    9.78    0.43
  -1   1  -7   83.25    2.36
   1   1   7   80.08    2.18
  -1   1  -7   83.45    2.44
  -1  -1  -7   82.93    2.37
  -1  -1  -7   80.94    2.40
  -1   1  -8    1.29    0.22
  -1   1  -8    1.56    0.23
  -1  -1  -8    1.48    0.22
  -1  -1  -8    1.58    0.22
  -1   1  -9    1.71    0.25
  -1   1  -9    1.52    0.25
  -1  -1  -9    2.25    0.27
  -1  -1  -9    2.32    0.28
  -1   1 -10   19.95    0.82
  -1   1 -10   19.14    0.87
  -1  -1 -10   21.55    0.84
  -1  -1 -10   20.74    0.86
  -1   1 -11    1.45    0.25
  -1   1 -11    1.61    0.29
  -1  -1 -11    1.63    0.28
  -1  -1 -11    1.89    0.30
  -1   1 -12    2.30    0.33
  -1   1 -12    2.00    0.33
  -1  -1 -12    1.93    0.33
  -1  -1 -12    2.78    0.35
  -1   1 -13    0.78    0.24
  -1   1 -13    0.42    0.23
  -1  -1 -13    0.86    0.25
  -1  -1 -13    0.34    0.23
  -1   1 -14    4.70    0.49
  -1   1 -14    5.26    0.55
  -1  -1 -14    4.50    0.50
  -1  -1 -14    5.82    0.54
  -1   1 -15    4.06    0.47
  -1   1 -15    4.02    0.52
  -1  -1 -15    4.24    0.49
  -1  -1 -15    4.69    0.53
  -1   1 -16    0.20    0.25
  -1   1 -16   -0.20    0.23
  -1  -1 -16    0.26    0.24
  -1  -1 -16    0.01    0.24
  -1   1 -17    3.15    0.47
  -1   1 -17    2.46    0.46
  -1  -1 -17    3.03    0.48
  -1  -1 -17    2.34    0.43
  -1   1 -18    0.97    0.39
  -1  -1 -18    1.74    0.41
  -1  -1 -18    1.01    0.37
  -1   1 -19    0.09    0.33
  -1  -1 -19    0.51    0.34
  -1  -1 -19    0.60    0.32
  -1   1 -20    0.17    0.34
  -1  -1 -20    0.41    0.34
  -1  -1 -20    0.44    0.38
   1   2 -20    0.20    0.34
   1  -2 -20    0.05    0.32
   1   2 -19    1.58    0.42
   1  -2 -19    1.38    0.41
   1   2 -18    0.73    0.36
   1  -2 -18    0.51    0.30
   1  -2 -18    1.28    0.38
   1   2 -17    3.27    0.53
   1  -2 -17    3.32    0.47
   1  -2 -17    3.71    0.53
   1   2 -16    0.03    0.24
   1  -2 -16    0.40    0.27
   1  -2 -16   -0.07    0.22
   1   2 -15   10.96    0.74
   1  -2 -15    9.03    0.67
   1  -2 -15    8.92    0.61
   1   2 -14    8.70    0.65
   1  -2 -14    9.17    0.60
   1  -2 -14    9.39    0.64
   1   2 -13   14.32    0.81
   1  -2 -13   14.21    0.77
   1  -2 -13   14.65    0.73
   1   2 -12   11.12    0.67
   1  -2 -12   11.83    0.63
   1  -2 -12   10.51    0.64
   1   2 -11   14.12    0.73
  -1   2  11   13.81    0.52
   1  -2 -11   15.05    0.69
   1  -2 -11   14.25    0.71
  -1   2  10    7.10    0.34
   1   2 -10    7.24    0.31
   1   2 -10    7.78    0.51
   1  -2 -10    7.91    0.46
   1  -2 -10    7.34    0.48
   1   2  -9    4.34    0.23
   1   2  -9    4.50    0.40
  -1   2   9    4.64    0.26
   1  -2  -9    3.63    0.35
   1  -2  -9    4.61    0.33
   1   2  -8    6.21    0.28
  -1   2   8    5.69    0.29
   1   2  -8    6.29    0.40
   1  -2  -8    5.80    0.36
   1  -2  -8    5.29    0.37
   1   2  -7    1.63    0.23
   1   2  -7    2.28    0.17
  -1   2   7    1.86    0.18
   1  -2  -7    1.83    0.22
   1  -2  -7    1.84    0.23
   1   2  -6    9.94    0.48
  -1   2   6   10.77    0.41
   1   2  -6   10.24    0.38
   1  -2  -6   10.19    0.44
   1  -2  -6   10.63    0.46
   1   2  -5    0.92    0.12
  -1   2   5    0.96    0.13
   1   2  -5    1.26    0.18
   1  -2  -5    1.22    0.16
   1  -2  -5    1.29    0.16
  -1   2   4   31.81    1.00
   1   2  -4   34.80    1.00
   1   2  -4   34.18    1.06
   1  -2  -4   34.52    1.04
   1  -2  -4   34.81    1.04
   1   2  -3  121.62    3.30
   1   2  -3  126.33    3.39
  -1   2   3  118.44    3.31
   1  -2  -3  125.26    3.36
   1  -2  -3  123.98    3.32
   1   2  -2  107.82    2.89
  -1   2   2  105.72    2.90
   1   2  -2  108.65    2.94
   1  -2  -2  107.33    2.90
   1   2  -1    0.21    0.06
  -1   2   1    0.08    0.05
  -1   2   1    0.28    0.09
   1   2  -1    0.21    0.08
   1   2   0   19.28    0.54
   1   2   0   18.76    0.61
  -1   2   0   19.15    0.61
  -1   2   0   20.01    0.59
  -1   2  -1  211.57    5.48
   1   2   1  201.46    5.48
  -1   2  -1  207.64    5.57
  -1  -2  -1  209.30    5.48
  -1   2  -2   18.81    0.60
   1   2   2   18.96    0.61
  -1   2  -2   18.98    0.62
  -1  -2  -2   19.44    0.55
  -1  -2  -2   19.09    0.62
   1   2   3    1.99    0.17
  -1   2  -3    1.84    0.15
  -1   2  -3    1.98    0.18
  -1  -2  -3    1.96    0.13
  -1  -2  -3    2.28    0.19
  -1   2  -4   50.53    1.40
   1   2   4   50.53    1.42
  -1   2  -4   50.30    1.51
  -1  -2  -4   49.51    1.48
  -1  -2  -4   51.18    1.45
  -1   2  -5   48.72    1.34
  -1   2  -5   48.93    1.49
   1   2   5   47.05    1.36
  -1  -2  -5   48.16    1.44
  -1  -2  -5   47.44    1.41
  -1   2  -6   39.13    1.11
   1   2   6   38.80    1.14
  -1   2  -6   40.42    1.29
  -1  -2  -6   38.50    1.24
  -1  -2  -6   39.78    1.22
  -1   2  -7   20.58    0.63
   1   2   7   20.96    0.67
  -1   2  -7   20.56    0.81
  -1  -2  -7   21.79    0.79
  -1  -2  -7   21.40    0.77
   1   2   8   14.00    0.48
  -1   2  -8   13.44    0.44
  -1   2  -8   14.20    0.61
  -1   2  -8   14.17    0.66
  -1  -2  -8   14.13    0.62
  -1  -2  -8   15.03    0.62
  -1   2  -9    0.21    0.16
  -1   2  -9    0.37    0.16
   1   2   9    0.35    0.10
  -1  -2  -9    0.25    0.15
  -1  -2  -9    0.46    0.17
  -1   2 -10    0.66    0.21
  -1   2 -10    0.61    0.19
   1   2  10    0.65    0.11
  -1  -2 -10    0.75    0.20
  -1  -2 -10    0.88    0.21
  -1   2 -11    0.27    0.20
  -1   2 -11    0.70    0.23
  -1  -2 -11    0.19    0.18
  -1  -2 -11    0.24    0.18
  -1   2 -12    0.32    0.20
  -1   2 -12    0.04    0.19
  -1  -2 -12    0.44    0.22
  -1  -2 -12    0.56    0.22
  -1   2 -13    0.04    0.18
  -1  -2 -13    0.01    0.19
  -1  -2 -13    0.38    0.20
  -1   2 -14    3.15    0.44
  -1  -2 -14    4.60    0.50
  -1  -2 -14    5.25    0.52
  -1   2 -15    0.32    0.24
  -1  -2 -15   -0.04    0.20
  -1  -2 -15   -0.02    0.19
  -1   2 -16    0.06    0.25
  -1  -2 -16    0.32    0.23
  -1  -2 -16   -0.07    0.24
  -1   2 -17    0.34    0.31
  -1  -2 -17    0.23    0.26
  -1  -2 -17    0.07    0.24
  -1   2 -18    0.87    0.35
  -1  -2 -18    1.00    0.35
  -1  -2 -18    0.90    0.34
  -1   2 -19    0.78    0.40
  -1  -2 -19    1.41    0.41
  -1  -2 -19    2.37    0.48
   1   3 -19    2.47    0.52
   1  -3 -19    2.57    0.49
   1  -3 -19    1.84    0.42
   1   3 -18    1.62    0.43
   1  -3 -18    1.96    0.43
   1  -3 -18    1.76    0.41
   1   3 -17    0.74    0.31
   1  -3 -17    0.51    0.30
   1  -3 -17    0.91    0.31
   1   3 -16    1.83    0.39
   1  -3 -16    1.46    0.36
   1  -3 -16    2.06    0.37
   1   3 -15    0.07    0.23
   1  -3 -15   -0.05    0.23
   1  -3 -15    0.02    0.22
   1   3 -14    0.07    0.20
   1  -3 -14    0.18    0.21
   1  -3 -14    0.19    0.22
   1   3 -13    0.00    0.19
   1  -3 -13    0.14    0.19
   1  -3 -13   -0.11    0.17
   1   3 -12    0.36    0.22
   1  -3 -12    0.03    0.19
   1  -3 -12    0.41    0.20
   1   3 -11    1.07    0.26
  -1   3  11    0.73    0.16
   1  -3 -11    0.44    0.20
   1  -3 -11    0.79    0.23
   1   3 -10    1.10    0.26
  -1   3  10    1.42    0.20
   1   3 -10    1.40    0.18
   1  -3 -10    1.70    0.27
   1  -3 -10    1.58    0.26
   1   3  -9    7.18    0.35
   1   3  -9    8.09    0.51
  -1   3   9    7.42    0.37
   1  -3  -9    6.93    0.44
   1  -3  -9    6.21    0.42
  -1   3   8   22.57    0.78
   1   3  -8   22.21    0.91
   1   3  -8   22.07    0.75
   1  -3  -8   23.25    0.85
   1  -3  -8   23.03    0.86
   1   3  -7    3.99    0.35
  -1   3   7    3.47    0.25
   1   3  -7    3.68    0.24
   1  -3  -7    3.33    0.31
   1  -3  -7    3.64    0.27
  -1   3   6   18.41    0.67
   1   3  -6   18.79    0.64
   1   3  -6   18.22    0.73
   1  -3  -6   19.08    0.68
   1  -3  -6   18.10    0.70
   1   3  -5   35.71    1.07
   1   3  -5   33.73    1.14
  -1   3   5   36.04    1.10
   1  -3  -5   35.08    1.12
   1  -3  -5   34.98    1.09
   1   3  -4    0.10    0.08
  -1   3   4    0.03    0.10
   1   3  -4    0.18    0.09
   1  -3  -4    0.01    0.09
   1  -3  -4   -0.05    0.07
  -1   3   3    2.08    0.20
   1   3  -3    1.98    0.18
   1   3  -3    1.96    0.19
   1  -3  -3    1.71    0.19
   1   3  -2    5.28    0.28
   1   3  -2    5.71    0.26
  -1   3   2    5.00    0.29
  -1   3   1   46.78    1.34
   1   3  -1   46.51    1.33
   1   3  -1   49.21    1.40
  -1   3   1   47.21    1.39
  -1   3   0  224.18    5.77
   1   3   0  223.39    5.77
  -1   3   0  209.84    5.81
   1   3   0  209.29    5.76
   1   3   1   10.42    0.42
  -1   3  -1   10.38    0.39
  -1   3  -1   10.66    0.42
  -1  -3  -1   10.08    0.41
  -1   3  -2    0.53    0.10
  -1   3  -2    0.38    0.11
   1   3   2    0.25    0.11
  -1  -3  -2    0.65    0.06
  -1  -3  -2    0.51    0.12
  -1   3  -3   25.43    0.81
   1   3   3   24.13    0.82
  -1   3  -3   27.25    0.86
  -1  -3  -3   25.78    0.85
  -1  -3  -3   26.21    0.75
   1   3   4   40.73    1.25
  -1   3  -4   42.81    1.31
  -1   3  -4   41.84    1.23
  -1  -3  -4   41.46    1.20
  -1  -3  -4   41.90    1.29
  -1   3  -5    7.21    0.33
  -1   3  -5    7.62    0.40
   1   3   5    7.15    0.35
  -1  -3  -5    8.03    0.39
  -1  -3  -5    6.76    0.32
   1   3   6    5.56    0.31
  -1   3  -6    5.67    0.36
  -1   3  -6    6.05    0.29
  -1  -3  -6    5.97    0.31
  -1  -3  -6    6.44    0.37
   1   3   7    3.92    0.25
  -1   3  -7    3.25    0.22
  -1   3  -7    3.22    0.33
  -1  -3  -7    3.64    0.27
  -1  -3  -7    4.04    0.35
   1   3   8    0.89    0.15
  -1   3  -8    0.91    0.14
  -1   3  -8    0.54    0.19
  -1  -3  -8    0.80    0.19
  -1  -3  -8    0.64    0.16
  -1   3  -9    1.45    0.26
  -1   3  -9    1.32    0.15
   1   3   9    1.16    0.17
  -1  -3  -9    1.14    0.23
  -1  -3  -9    1.20    0.21
  -1   3 -10    0.03    0.16
   1   3  10    0.10    0.11
  -1  -3 -10   -0.04    0.16
  -1  -3 -10    0.20    0.17
  -1   3 -11    0.51    0.23
  -1  -3 -11    0.73    0.22
  -1  -3 -11    0.07    0.18
  -1   3 -12    6.94    0.61
  -1  -3 -12    8.00    0.52
  -1  -3 -12    7.68    0.55
  -1   3 -13    6.14    0.59
  -1  -3 -13    5.28    0.53
  -1  -3 -13    5.67    0.52
  -1   3 -14    0.26    0.23
  -1  -3 -14    0.50    0.24
  -1  -3 -14    0.45    0.25
  -1   3 -15    0.04    0.22
  -1  -3 -15    0.01    0.20
  -1  -3 -15   -0.29    0.19
  -1   3 -16    0.33    0.29
  -1  -3 -16    0.07    0.22
  -1  -3 -16    0.10    0.23
  -1   3 -17    0.63    0.31
  -1  -3 -17    0.21    0.27
  -1  -3 -17    0.02    0.27
  -1   3 -18    2.12    0.46
  -1  -3 -18    1.92    0.43
  -1  -3 -18    3.46    0.52
  -1   3 -19    0.46    0.34
  -1  -3 -19   -0.15    0.30
  -1  -3 -19    0.00    0.29
   1   4 -19    0.97    0.37
   1  -4 -19    1.78    0.43
   1   4 -18    0.17    0.28
   1  -4 -18   -0.03    0.30
   1  -4 -18    0.15    0.29
   1   4 -17    2.39    0.47
   1  -4 -17    2.12    0.43
   1  -4 -17    2.21    0.43
   1   4 -16    1.16    0.35
   1  -4 -16    1.35    0.34
   1  -4 -16    0.83    0.31
   1   4 -15    5.65    0.61
   1  -4 -15    6.97    0.63
   1  -4 -15    6.06    0.60
   1   4 -14    1.68    0.36
   1  -4 -14    1.38    0.32
   1  -4 -14    1.64    0.33
   1   4 -13    6.01    0.59
   1  -4 -13    5.98    0.56
   1  -4 -13    5.23    0.52
   1   4 -12    0.08    0.18
   1  -4 -12    0.16    0.20
   1  -4 -12   -0.10    0.17
   1   4 -11    9.40    0.63
  -1   4  11   10.25    0.50
   1  -4 -11   10.20    0.58
   1  -4 -11   11.18    0.62
   1   4 -10    0.82    0.18
   1   4 -10    0.59    0.22
  -1   4  10    1.04    0.20
   1  -4 -10    0.77    0.22
   1  -4 -10    1.03    0.24
   1   4  -9    9.43    0.57
  -1   4   9   10.33    0.50
   1   4  -9    9.59    0.45
   1  -4  -9    9.76    0.54
   1  -4  -9    9.31    0.50
  -1   4   8   -0.01    0.13
   1   4  -8   -0.07    0.12
   1   4  -8    0.05    0.12
   1  -4  -8   -0.01    0.15
   1  -4  -8    0.39    0.16
   1   4  -7    0.29    0.14
  -1   4   7    0.25    0.15
   1   4  -7   -0.03    0.12
   1  -4  -7    0.07    0.13
   1  -4  -7    0.06    0.12
   1   4  -6   63.26    1.97
  -1   4   6   64.79    1.90
   1   4  -6   65.17    1.88
   1  -4  -6   62.82    1.88
   1  -4  -6   63.80    1.93
   1   4  -5   20.95    0.78
  -1   4   5   20.28    0.76
   1   4  -5   21.13    0.75
   1  -4  -5   20.05    0.77
   1  -4  -5   21.18    0.71
   1   4  -4    3.58    0.26
  -1   4   4    3.15    0.29
   1   4  -4    2.65    0.26
   1  -4  -4    3.05    0.28
   1  -4  -4    3.26    0.21
  -1   4   3   22.88    0.82
   1   4  -3   23.18    0.81
   1   4  -3   24.08    0.79
   1  -4  -3   22.70    0.82
   1   4  -2   79.98    2.23
  -1   4   2   78.52    2.28
   1   4  -2   79.00    2.27
  -1   4   1   39.51    1.13
   1   4  -1   37.59    1.12
   1   4  -1   40.03    1.22
  -1   4   1   37.29    1.21
   1   4   0    3.59    0.17
  -1   4   0    3.87    0.21
   1   4   0    3.50    0.29
  -1   4   0    3.63    0.27
  -1   4  -1    0.53    0.14
   1   4   1    0.47    0.06
   1   4   1    0.39    0.14
  -1   4  -1    0.60    0.11
  -1  -4  -1    0.20    0.11
   1   4   2    0.60    0.15
  -1   4  -2    0.90    0.13
  -1   4  -2    0.52    0.14
  -1  -4  -2    0.78    0.07
  -1  -4  -2    0.61    0.14
  -1   4  -3    0.23    0.10
   1   4   3    0.31    0.13
  -1   4  -3    0.25    0.12
  -1  -4  -3    0.37    0.07
  -1  -4  -3    0.38    0.13
  -1   4  -4    0.32    0.12
  -1   4  -4    0.48    0.14
   1   4   4    0.41    0.14
  -1  -4  -4    0.49    0.09
  -1  -4  -4    0.22    0.12
   1   4   5    0.23    0.13
  -1   4  -5    0.07    0.10
  -1   4  -5    0.22    0.12
  -1  -4  -5    0.02    0.12
  -1  -4  -5    0.04    0.08
   1   4   6   31.94    1.04
  -1   4  -6   30.14    1.09
  -1   4  -6   30.10    0.99
  -1  -4  -6   30.51    0.97
  -1  -4  -6   31.57    1.09
   1   4   7   13.00    0.55
  -1   4  -7   12.11    0.61
  -1   4  -7   11.20    0.49
  -1  -4  -7   12.59    0.51
  -1  -4  -7   12.74    0.60
   1   4   8    8.55    0.44
  -1   4  -8    7.69    0.39
  -1   4  -8    7.76    0.50
  -1  -4  -8    8.12    0.49
  -1  -4  -8    9.37    0.45
  -1   4  -9    3.69    0.28
   1   4   9    4.39    0.32
  -1   4  -9    4.28    0.43
  -1  -4  -9    4.40    0.36
  -1  -4  -9    4.33    0.42
   1   4  10    0.31    0.16
  -1   4 -10    0.00    0.15
  -1  -4 -10    0.01    0.14
  -1  -4 -10   -0.16    0.14
  -1   4 -11    1.23    0.27
  -1  -4 -11    0.56    0.20
  -1  -4 -11    0.57    0.21
  -1   4 -12    0.09    0.21
  -1  -4 -12   -0.03    0.17
  -1  -4 -12    0.05    0.19
  -1   4 -13    2.79    0.43
  -1  -4 -13    3.68    0.46
  -1  -4 -13    3.44    0.41
  -1   4 -14    0.27    0.24
  -1  -4 -14    0.09    0.21
  -1  -4 -14    0.29    0.22
  -1   4 -15    0.31    0.26
  -1  -4 -15    0.36    0.23
  -1  -4 -15    0.55    0.29
  -1   4 -16    0.56    0.29
  -1  -4 -16    1.00    0.32
  -1  -4 -16    1.08    0.32
  -1   4 -17    0.78    0.31
  -1  -4 -17    1.00    0.34
  -1   4 -18    2.44    0.48
  -1  -4 -18    2.01    0.45
  -1   4 -19    0.48    0.35
  -1  -4 -19    0.63    0.36
   1   5 -19    0.19    0.32
   1  -5 -19    0.22    0.32
   1   5 -18    0.19    0.30
   1  -5 -18    0.85    0.37
   1   5 -17    1.85    0.42
   1  -5 -17    1.99    0.44
   1   5 -16    1.77    0.41
   1  -5 -16    2.88    0.48
   1   5 -15    2.68    0.45
   1  -5 -15    2.70    0.43
   1  -5 -15    2.37    0.40
   1   5 -14   -0.15    0.19
   1  -5 -14    0.24    0.24
   1  -5 -14    0.25    0.24
   1   5 -13    5.11    0.56
   1  -5 -13    5.40    0.55
   1  -5 -13    5.66    0.52
   1   5 -12    3.15    0.43
   1  -5 -12    3.96    0.42
   1  -5 -12    3.64    0.44
  -1   5  11    6.12    0.43
   1   5 -11    5.26    0.52
   1  -5 -11    5.87    0.44
   1  -5 -11    6.00    0.54
   1   5 -10    1.32    0.29
  -1   5  10    1.12    0.24
   1   5 -10    1.92    0.27
   1  -5 -10    1.64    0.27
   1  -5 -10    1.72    0.31
   1   5  -9    0.35    0.19
   1   5  -9    0.70    0.23
  -1   5   9    0.52    0.20
   1  -5  -9    0.51    0.19
   1  -5  -9    0.44    0.21
   1   5  -8   17.64    0.81
   1   5  -8   18.46    0.75
  -1   5   8   18.88    0.77
   1  -5  -8   20.41    0.84
   1  -5  -8   18.58    0.74
  -1   5   7    5.26    0.38
   1   5  -7    4.91    0.42
   1   5  -7    4.94    0.36
   1  -5  -7    5.45    0.40
   1  -5  -7    4.67    0.32
  -1   5   6    0.13    0.16
   1   5  -6    0.40    0.16
   1   5  -6    0.12    0.13
   1  -5  -6    0.11    0.15
   1  -5  -6    0.29    0.13
   1   5  -5   11.56    0.54
   1   5  -5   11.81    0.55
  -1   5   5   11.51    0.56
   1  -5  -5   12.88    0.59
   1  -5  -5   12.99    0.49
   1   5  -4   11.25    0.51
  -1   5   4   11.48    0.55
   1   5  -4   12.15    0.55
   1  -5  -4   11.88    0.55
   1  -5  -4   11.73    0.45
  -1   5   3   62.46    1.93
   1   5  -3   62.62    1.91
   1   5  -3   62.26    1.87
   1  -5  -3   66.96    1.94
   1   5  -2   27.12    0.93
  -1   5   2   24.12    0.91
   1   5  -2   25.10    0.82
   1   5  -1    7.06    0.30
   1   5  -1    6.42    0.39
  -1   5   1    7.22    0.42
  -1   5   1    6.80    0.30
  -1   5   0    2.10    0.18
   1   5   0    1.95    0.25
  -1   5   0    2.41    0.26
   1   5   0    1.76    0.14
   1   5   1    1.59    0.23
   1   5   1    1.79    0.12
  -1   5  -1    1.71    0.23
  -1   5  -1    2.14    0.19
  -1  -5  -1    1.72    0.23
  -1   5  -2    5.06    0.34
   1   5   2    4.46    0.34
  -1   5  -2    4.83    0.29
  -1  -5  -2    4.23    0.32
  -1   5  -3   -0.15    0.11
   1   5   3    0.02    0.12
  -1   5  -3   -0.06    0.08
  -1  -5  -3   -0.05    0.05
  -1  -5  -3    0.05    0.13
  -1   5  -4   20.41    0.76
   1   5   4   18.85    0.77
  -1   5  -4   20.76    0.76
  -1  -5  -4   19.29    0.61
  -1  -5  -4   19.42    0.78
  -1   5  -5   27.57    0.98
   1   5   5   25.72    0.96
  -1   5  -5   26.39    0.93
  -1  -5  -5   26.12    0.81
  -1  -5  -5   26.24    0.98
  -1   5  -6    7.57    0.41
  -1   5  -6    7.17    0.44
   1   5   6    5.93    0.41
  -1  -5  -6    6.90    0.33
  -1  -5  -6    8.00    0.47
   1   5   7    8.98    0.49
  -1   5  -7    8.69    0.44
  -1   5  -7    6.84    0.47
  -1  -5  -7    8.39    0.51
  -1  -5  -7    8.07    0.39
  -1   5  -8    8.39    0.52
   1   5   8    8.08    0.47
  -1   5  -8    8.48    0.43
  -1  -5  -8    7.65    0.50
  -1  -5  -8    7.24    0.40
  -1   5  -9   17.89    0.84
  -1   5  -9   18.01    0.71
   1   5   9   20.02    0.78
  -1  -5  -9   17.93    0.72
  -1  -5  -9   17.38    0.82
  -1   5 -10   11.26    0.68
   1   5  10   12.67    0.61
  -1  -5 -10   13.21    0.61
  -1  -5 -10   13.16    0.70
  -1   5 -11    0.01    0.18
   1   5  11   -0.09    0.15
  -1  -5 -11    0.46    0.21
  -1  -5 -11   -0.01    0.15
  -1   5 -12    4.19    0.50
  -1  -5 -12    5.22    0.46
  -1  -5 -12    5.60    0.55
  -1   5 -13    0.24    0.23
  -1  -5 -13    0.13    0.21
  -1  -5 -13   -0.15    0.20
  -1   5 -14    2.97    0.47
  -1  -5 -14    3.38    0.47
  -1   5 -15    0.52    0.28
  -1  -5 -15    1.04    0.32
  -1   5 -16    0.15    0.24
  -1  -5 -16    0.04    0.24
  -1   5 -17    7.54    0.78
  -1  -5 -17    6.66    0.71
  -1   5 -18   -0.10    0.27
  -1  -5 -18   -0.03    0.29
   1   6 -18    0.16    0.31
   1  -6 -18    0.05    0.31
   1   6 -17    0.00    0.27
   1  -6 -17    0.09    0.29
   1   6 -16    0.35    0.30
   1  -6 -16    0.31    0.28
   1   6 -15    0.55    0.28
   1  -6 -15    0.94    0.34
   1   6 -14    2.82    0.47
   1  -6 -14    4.97    0.55
   1   6 -13   -0.37    0.19
   1  -6 -13    0.08    0.22
   1   6 -12    4.83    0.53
   1  -6 -12    3.43    0.46
  -1   6  11    1.75    0.31
   1   6 -11    1.95    0.36
   1  -6 -11    2.22    0.31
   1  -6 -11    1.33    0.31
   1   6 -10    3.91    0.38
  -1   6  10    4.01    0.41
   1   6 -10    3.05    0.41
   1  -6 -10    3.61    0.44
   1  -6 -10    3.93    0.38
   1   6  -9   -0.02    0.17
  -1   6   9    0.20    0.19
   1   6  -9   -0.15    0.13
   1  -6  -9   -0.20    0.14
   1  -6  -9    0.11    0.20
   1   6  -8    6.26    0.47
  -1   6   8    5.92    0.49
   1   6  -8    6.09    0.43
   1  -6  -8    5.28    0.37
   1  -6  -8    6.65    0.48
  -1   6   7    1.02    0.25
   1   6  -7    1.40    0.26
   1   6  -7    1.34    0.25
   1  -6  -7    1.12    0.27
   1  -6  -7    1.35    0.21
  -1   6   6    5.83    0.44
   1   6  -6    6.77    0.43
   1   6  -6    6.87    0.44
   1  -6  -6    6.33    0.35
   1  -6  -6    6.75    0.47
   1   6  -5    9.53    0.53
  -1   6   5   10.22    0.57
   1   6  -5   10.73    0.52
   1  -6  -5   10.12    0.56
   1  -6  -5   11.14    0.45
  -1   6   4    9.78    0.55
   1   6  -4    9.35    0.52
   1   6  -4    9.54    0.47
   1  -6  -4    9.64    0.53
  -1   6   3    1.71    0.27
   1   6  -3    1.15    0.18
   1   6  -3    1.33    0.25
   1  -6  -3    1.76    0.27
   1   6  -2   14.41    0.65
   1   6  -2   13.45    0.54
  -1   6   2   14.63    0.67
   1   6  -1   -0.04    0.07
  -1   6   1    0.10    0.14
   1   6  -1    0.04    0.13
  -1   6   1    0.11    0.08
   1   6   0    9.61    0.36
   1   6   0    8.24    0.49
  -1   6   0    8.64    0.49
  -1   6   0    9.80    0.40
  -1   6  -1   14.34    0.67
   1   6   1   15.54    0.69
  -1   6  -1   15.38    0.58
   1   6   1   14.34    0.48
  -1  -6  -1   15.16    0.66
  -1   6  -2    3.25    0.34
   1   6   2    1.94    0.28
  -1   6  -2    2.63    0.24
  -1  -6  -2    2.78    0.31
   1   6   3    0.10    0.16
  -1   6  -3    0.15    0.15
  -1   6  -3    0.06    0.10
  -1  -6  -3    0.14    0.06
  -1  -6  -3   -0.29    0.12
  -1   6  -4    2.26    0.26
  -1   6  -4    2.43    0.29
   1   6   4    2.73    0.33
  -1  -6  -4    1.81    0.28
  -1  -6  -4    2.40    0.16
  -1   6  -5    0.56    0.20
  -1   6  -5    0.36    0.16
   1   6   5    0.46    0.20
  -1  -6  -5    0.79    0.21
  -1  -6  -5    0.59    0.11
  -1   6  -6   12.86    0.61
  -1   6  -6   12.75    0.64
   1   6   6   12.27    0.64
  -1  -6  -6   13.20    0.66
  -1  -6  -6   12.95    0.48
  -1   6  -7    5.18    0.46
   1   6   7    5.60    0.47
  -1   6  -7    5.32    0.40
  -1  -6  -7    5.97    0.32
  -1  -6  -7    5.07    0.48
  -1   6  -8    0.14    0.18
  -1   6  -8    0.08    0.17
   1   6   8    0.05    0.20
  -1  -6  -8    0.40    0.21
  -1  -6  -8   -0.10    0.12
  -1   6  -9   -0.17    0.14
  -1   6  -9    0.08    0.18
   1   6   9    0.37    0.21
  -1  -6  -9   -0.06    0.19
  -1   6 -10    4.34    0.47
   1   6  10    4.36    0.42
  -1   6 -10    4.61    0.40
  -1  -6 -10    3.64    0.45
  -1   6 -11    0.51    0.23
   1   6  11    0.61    0.22
  -1  -6 -11    0.56    0.25
  -1   6 -12    1.30    0.32
  -1  -6 -12    1.51    0.33
  -1   6 -13    2.08    0.39
  -1  -6 -13    1.90    0.38
  -1   6 -14    1.81    0.40
  -1  -6 -14    2.44    0.43
  -1   6 -15    0.61    0.30
  -1  -6 -15    0.60    0.30
  -1   6 -16    1.62    0.39
  -1  -6 -16    1.84    0.42
  -1   6 -17    0.06    0.26
  -1  -6 -17    0.27    0.31
  -1   6 -18    0.65    0.37
  -1  -6 -18    1.07    0.38
   1   7 -17    1.13    0.39
   1  -7 -17    1.56    0.43
   1   7 -16    0.41    0.30
   1  -7 -16    0.24    0.33
   1   7 -15    1.49    0.38
   1  -7 -15    1.09    0.35
   1   7 -14    0.16    0.23
   1  -7 -14    0.16    0.27
   1   7 -13    6.26    0.64
   1  -7 -13    6.33    0.64
   1   7 -12   -0.14    0.19
  -1   7  12   -0.02    0.20
   1  -7 -12    0.28    0.24
   1   7 -11    0.34    0.22
  -1   7  11    0.48    0.23
   1  -7 -11    0.01    0.22
   1   7 -10   -0.05    0.19
   1   7 -10   -0.24    0.15
  -1   7  10   -0.08    0.18
   1  -7 -10   -0.31    0.17
   1   7  -9    1.69    0.31
  -1   7   9    2.48    0.37
   1   7  -9    2.21    0.33
   1  -7  -9    2.07    0.36
   1   7  -8    0.02    0.19
  -1   7   8    0.24    0.21
   1   7  -8    0.05    0.15
   1  -7  -8   -0.14    0.17
  -1   7   7    2.11    0.35
   1   7  -7    2.50    0.35
   1   7  -7    3.64    0.38
   1  -7  -7    2.34    0.37
  -1   7   6    4.89    0.48
   1   7  -6    5.61    0.49
   1   7  -6    6.19    0.43
   1  -7  -6    5.28    0.33
   1  -7  -6    6.71    0.49
   1   7  -5    8.14    0.47
   1   7  -5    6.31    0.48
  -1   7   5    7.71    0.53
   1  -7  -5    8.84    0.54
   1  -7  -5    7.81    0.38
   1   7  -4    0.15    0.19
  -1   7   4    0.06    0.20
   1   7  -4   -0.18    0.10
   1  -7  -4    0.10    0.18
  -1   7   3    0.31    0.20
   1   7  -3    0.09    0.17
   1   7  -3    0.06    0.11
   1  -7  -3    0.27    0.20
   1   7  -2    5.03    0.46
   1   7  -2    4.92    0.30
  -1   7   2    5.17    0.47
   1   7  -1    2.85    0.21
  -1   7   1    2.74    0.23
   1   7  -1    3.34    0.38
  -1   7   1    2.31    0.33
   1   7   0    4.32    0.43
  -1   7   0    3.81    0.41
   1   7   0    4.42    0.24
  -1   7   0    4.63    0.29
  -1   7  -1    6.87    0.37
  -1   7  -1    6.47    0.48
   1   7   1    6.66    0.47
  -1  -7  -1    6.82    0.48
   1   7   2    2.77    0.36
  -1   7  -2    3.68    0.31
  -1   7  -2    3.64    0.39
  -1  -7  -2    3.15    0.37
   1   7   3    1.43    0.29
  -1   7  -3    1.40    0.27
  -1   7  -3    1.58    0.23
  -1  -7  -3    1.88    0.31
  -1   7  -4    0.45    0.16
   1   7   4    0.30    0.22
  -1   7  -4    0.99    0.24
  -1  -7  -4    0.43    0.23
  -1   7  -5   12.59    0.66
  -1   7  -5   13.95    0.65
   1   7   5   13.81    0.71
  -1  -7  -5   13.17    0.69
   1   7   6    1.90    0.34
  -1   7  -6    2.69    0.33
  -1   7  -6    2.88    0.36
  -1  -7  -6    2.64    0.37
  -1   7  -7    6.41    0.47
  -1   7  -7    6.32    0.47
   1   7   7    6.06    0.54
  -1  -7  -7    4.76    0.49
  -1   7  -8    0.25    0.20
   1   7   8   -0.01    0.18
  -1   7  -8   -0.07    0.15
  -1  -7  -8    0.62    0.25
  -1   7  -9    1.96    0.33
  -1   7  -9    1.18    0.27
   1   7   9    1.51    0.30
  -1  -7  -9    1.27    0.32
  -1   7 -10    3.41    0.38
   1   7  10    3.24    0.41
  -1   7 -10    2.92    0.42
  -1  -7 -10    2.79    0.42
   1   7  11    0.58    0.24
  -1   7 -11    0.10    0.20
  -1  -7 -11    0.24    0.23
  -1   7 -12   -0.29    0.19
  -1  -7 -12    0.00    0.23
  -1   7 -13    2.26    0.42
  -1  -7 -13    2.35    0.41
  -1   7 -14    1.07    0.35
  -1  -7 -14    1.30    0.36
  -1   7 -15    4.78    0.60
  -1  -7 -15    5.35    0.63
  -1   7 -16    0.03    0.27
  -1  -7 -16    0.20    0.28
  -1   7 -17    0.35    0.32
  -1  -7 -17    0.13    0.29
   1   8 -16    0.26    0.31
   1  -8 -16    0.33    0.32
   1   8 -15    0.30    0.28
   1  -8 -15    0.82    0.37
   1   8 -14    0.79    0.32
   1  -8 -14    0.80    0.34
   1   8 -13    0.84    0.30
   1  -8 -13    0.57    0.28
   1   8 -12    2.33    0.40
  -1   8  12    3.31    0.46
   1  -8 -12    3.12    0.47
  -1   8  11    2.37    0.39
   1   8 -11    2.17    0.37
   1  -8 -11    1.96    0.39
   1   8 -10    1.74    0.34
  -1   8  10    2.49    0.42
   1   8 -10    1.44    0.32
   1  -8 -10    1.17    0.33
  -1   8   9    0.78    0.29
   1   8  -9    0.54    0.24
   1   8  -9    0.51    0.23
   1  -8  -9    0.57    0.26
   1   8  -8    0.07    0.18
   1   8  -8    0.10    0.21
  -1   8   8    0.00    0.22
   1  -8  -8    0.18    0.22
   1   8  -7    1.52    0.32
   1   8  -7    0.81    0.22
  -1   8   7    1.21    0.31
   1  -8  -7    1.64    0.33
  -1   8   6    0.28    0.24
   1   8  -6    0.52    0.25
   1   8  -6    0.34    0.18
   1  -8  -6    0.83    0.26
   1   8  -5    1.96    0.34
   1   8  -5    1.64    0.26
  -1   8   5    1.65    0.34
   1  -8  -5    1.48    0.31
   1   8  -4    1.20    0.30
   1   8  -4    1.67    0.25
  -1   8   4    1.13    0.30
   1  -8  -4    1.25    0.31
   1   8  -3    3.19    0.30
  -1   8   3    2.54    0.39
   1   8  -3    3.29    0.41
   1  -8  -3    2.71    0.39
  -1   8   2    1.14    0.32
   1   8  -2    1.15    0.32
   1   8  -2    1.23    0.19
   1   8  -1    0.63    0.26
  -1   8   1    0.70    0.15
  -1   8   1    0.97    0.28
   1   8  -1    1.12    0.16
  -1   8   0    0.22    0.12
  -1   8   0    0.26    0.23
   1   8   0    0.05    0.21
  -1   8  -1   11.11    0.66
   1   8   1   10.51    0.64
  -1   8  -1   11.63    0.51
  -1  -8  -1   11.14    0.64
   1   8   2    0.24    0.23
  -1   8  -2    0.33    0.15
  -1   8  -2    0.64    0.25
  -1  -8  -2    0.32    0.22
   1   8   3    7.29    0.60
  -1   8  -3    7.80    0.54
  -1   8  -3    6.58    0.42
  -1  -8  -3    7.77    0.53
   1   8   4   17.39    0.85
  -1   8  -4   15.82    0.80
  -1   8  -4   16.55    0.74
  -1  -8  -4   17.45    0.83
  -1   8  -5    0.01    0.19
  -1   8  -5    0.38    0.18
   1   8   5    0.24    0.24
  -1  -8  -5    0.11    0.20
  -1   8  -6    0.12    0.17
  -1   8  -6   -0.10    0.18
   1   8   6    0.16    0.22
  -1  -8  -6   -0.11    0.19
  -1   8  -7    1.25    0.27
  -1   8  -7    1.28    0.30
   1   8   7    0.95    0.30
  -1  -8  -7    1.41    0.32
   1   8   8   -0.11    0.23
  -1   8  -8    0.32    0.20
  -1   8  -8   -0.34    0.19
  -1  -8  -8    0.05    0.19
   1   8   9    2.35    0.38
  -1   8  -9    2.59    0.38
  -1   8  -9    1.92    0.34
  -1  -8  -9    3.21    0.45
  -1   8 -10    0.48    0.24
   1   8  10    0.02    0.22
  -1  -8 -10    0.32    0.25
  -1   8 -11    1.56    0.34
   1   8  11    1.53    0.34
  -1  -8 -11    1.06    0.33
  -1   8 -12    2.08    0.41
  -1  -8 -12    2.19    0.43
  -1   8 -13    0.82    0.31
  -1  -8 -13    1.07    0.34
  -1   8 -14    2.34    0.46
  -1  -8 -14    2.75    0.49
  -1   8 -15    0.94    0.36
  -1  -8 -15    0.36    0.32
  -1   8 -16    3.52    0.57
  -1  -8 -16    2.60    0.51
   1   9 -15    0.02    0.28
   1  -9 -15    0.27    0.31
   1   9 -14    2.68    0.48
   1  -9 -14    2.02    0.44
   1   9 -13    0.53    0.30
   1  -9 -13    0.90    0.34
  -1   9  12    1.36    0.37
   1   9 -12    1.13    0.33
   1  -9 -12    0.80    0.33
  -1   9  11    0.53    0.27
   1   9 -11    0.60    0.27
   1  -9 -11   -0.02    0.25
  -1   9  10    0.22    0.27
   1   9 -10    0.25    0.25
   1   9 -10    0.56    0.26
   1  -9 -10    0.34    0.25
   1   9  -9    0.24    0.21
   1   9  -9    0.44    0.24
  -1   9   9    0.08    0.24
   1  -9  -9    0.20    0.26
  -1   9   8    5.52    0.58
   1   9  -8    5.25    0.52
   1   9  -8    6.12    0.58
   1  -9  -8    5.00    0.57
   1   9  -7    4.52    0.51
   1   9  -7    4.91    0.47
  -1   9   7    3.66    0.49
   1  -9  -7    4.94    0.54
   1   9  -6    6.54    0.60
  -1   9   6    6.35    0.61
   1   9  -6    6.16    0.47
   1  -9  -6    6.12    0.60
   1   9  -5    0.04    0.21
   1   9  -5   -0.18    0.15
  -1   9   5   -0.12    0.20
   1  -9  -5   -0.18    0.20
  -1   9   4    2.28    0.40
   1   9  -4    4.62    0.39
   1   9  -4    3.31    0.44
   1  -9  -4    3.64    0.46
  -1   9   3    6.52    0.60
   1   9  -3    5.90    0.57
   1  -9  -3    4.82    0.54
  -1   9   2    0.13    0.23
   1   9  -2    0.20    0.22
   1  -9  -2   -0.08    0.21
   1   9  -1    1.01    0.29
  -1   9   1    0.93    0.30
  -1   9   0    3.22    0.43
   1   9   0    3.20    0.44
  -1   9  -1    0.30    0.14
   1   9   1    0.36    0.22
  -1   9  -1    0.05    0.22
  -1  -9  -1   -0.18    0.21
  -1   9  -2   -0.03    0.19
  -1   9  -2    0.02    0.13
   1   9   2   -0.46    0.17
  -1  -9  -2   -0.06    0.21
  -1   9  -3    2.06    0.35
   1   9   3    2.28    0.39
  -1   9  -3    2.26    0.29
  -1  -9  -3    1.27    0.31
  -1   9  -4    0.63    0.19
   1   9   4    0.67    0.28
  -1   9  -4    0.60    0.26
  -1  -9  -4    0.64    0.28
  -1   9  -5    2.53    0.34
   1   9   5    3.03    0.45
  -1   9  -5    2.60    0.39
  -1  -9  -5    2.60    0.40
  -1   9  -6    1.36    0.32
   1   9   6    1.07    0.32
  -1   9  -6    1.53    0.29
  -1  -9  -6    1.30    0.32
  -1   9  -7    1.97    0.33
  -1   9  -7    2.12    0.37
   1   9   7    2.68    0.44
  -1  -9  -7    2.49    0.41
  -1   9  -8    3.48    0.44
  -1   9  -8    4.23    0.48
   1   9   8    2.94    0.45
  -1  -9  -8    3.29    0.46
   1   9   9    2.38    0.42
  -1   9  -9    1.81    0.35
  -1   9  -9    3.05    0.42
  -1  -9  -9    2.29    0.41
  -1   9 -10    0.79    0.28
   1   9  10    1.42    0.37
  -1  -9 -10    1.19    0.35
   1   9  11   -0.08    0.24
  -1   9 -11    0.31    0.23
  -1  -9 -11   -0.01    0.24
  -1   9 -12    1.81    0.39
  -1  -9 -12    2.56    0.46
  -1   9 -13    0.25    0.28
  -1  -9 -13    0.00    0.25
  -1   9 -14    0.07    0.26
  -1  -9 -14    0.20    0.30
  -1   9 -15    0.41    0.32
  -1  -9 -15    0.37    0.31
   1  10 -14    0.58    0.32
   1 -10 -14   -0.06    0.32
   1  10 -13    0.51    0.30
   1 -10 -13    0.32    0.31
   1  10 -12    2.42    0.45
   1 -10 -12    3.71    0.56
   1  10 -11    3.42    0.49
  -1  10  11    2.03    0.45
   1 -10 -11    1.90    0.42
  -1  10  10    1.09    0.38
   1  10 -10    0.99    0.34
   1  10 -10    1.34    0.34
   1 -10 -10    1.08    0.35
   1  10  -9   -0.25    0.20
  -1  10   9   -0.44    0.24
   1  10  -9    0.28    0.28
   1 -10  -9   -0.08    0.22
   1  10  -8    0.15    0.25
  -1  10   8    0.00    0.25
   1  10  -8    0.10    0.22
   1 -10  -8    0.24    0.25
  -1  10   7    3.73    0.52
   1  10  -7    2.81    0.44
   1 -10  -7    3.47    0.50
   1  10  -6    0.03    0.22
  -1  10   6   -0.31    0.22
   1 -10  -6   -0.05    0.24
   1  10  -5    1.28    0.34
  -1  10   5    1.03    0.35
   1 -10  -5    1.05    0.33
  -1  10   4    1.54    0.36
   1  10  -4    1.37    0.34
   1 -10  -4    1.11    0.33
   1  10  -3    0.85    0.29
  -1  10   3    0.43    0.27
   1 -10  -3    1.00    0.33
  -1  10   2    0.24    0.24
   1  10  -2   -0.16    0.21
   1 -10  -2    0.01    0.24
   1  10  -1    1.71    0.36
  -1  10   1    1.08    0.32
  -1  10   0    1.84    0.39
   1  10   0    2.71    0.44
  -1 -10   0    2.79    0.42
  -1  10  -1    0.33    0.24
   1  10   1    0.26    0.26
  -1 -10  -1    0.27    0.25
  -1  10  -2    5.19    0.55
   1  10   2    5.28    0.58
  -1 -10  -2    4.74    0.53
   1  10   3    5.04    0.57
  -1  10  -3    5.18    0.56
  -1 -10  -3    3.91    0.50
   1  10   4    0.47    0.28
  -1  10  -4    0.68    0.30
  -1 -10  -4   -0.10    0.24
  -1  10  -5   -0.06    0.16
   1  10   5   -0.09    0.24
  -1  10  -5    0.26    0.27
  -1 -10  -5   -0.06    0.22
  -1  10  -6    4.49    0.46
   1  10   6    4.13    0.54
  -1  10  -6    4.30    0.52
  -1 -10  -6    3.63    0.49
  -1  10  -7    2.01    0.40
   1  10   7    1.46    0.37
  -1  10  -7    2.22    0.35
  -1 -10  -7    2.30    0.42
  -1  10  -8    0.26    0.21
  -1  10  -8    0.38    0.28
   1  10   8    0.52    0.30
  -1 -10  -8    0.23    0.26
   1  10   9    0.62    0.33
  -1  10  -9    0.53    0.28
  -1  10  -9    0.53    0.26
  -1 -10  -9    0.94    0.32
   1  10  10    0.00    0.29
  -1  10 -10   -0.08    0.23
  -1 -10 -10    0.22    0.27
  -1  10 -11    3.13    0.47
   1  10  11    2.64    0.49
  -1 -10 -11    2.12    0.43
  -1  10 -12    0.81    0.34
  -1 -10 -12    0.69    0.34
  -1  10 -13    0.17    0.30
  -1 -10 -13    0.04    0.30
  -1  10 -14    0.61    0.34
  -1 -10 -14    1.13    0.41
   1 -11 -12    1.47    0.42
  -1  11  11    1.32    0.41
   1 -11 -11    1.02    0.38
  -1  11  10    1.48    0.44
   1 -11 -10    2.31    0.47
   1  11  -9    0.26    0.29
  -1  11   9    0.24    0.32
   1 -11  -9    0.12    0.28
  -1  11   8   -0.14    0.26
   1  11  -8   -0.05    0.27
   1 -11  -8    0.05    0.29
  -1  11   7    0.81    0.34
   1  11  -7    0.99    0.36
   1 -11  -7    0.97    0.35
  -1  11   6    1.56    0.40
   1  11  -6    2.11    0.43
   1 -11  -6    1.72    0.41
   1  11  -5    5.53    0.62
  -1  11   5    6.68    0.69
   1 -11  -5    6.17    0.66
   1  11  -4    1.70    0.39
  -1  11   4    1.09    0.36
   1 -11  -4    1.64    0.40
   1  11  -3    1.94    0.41
  -1  11   3    1.71    0.41
   1 -11  -3    0.83    0.32
   1  11  -2    4.43    0.56
  -1  11   2    3.32    0.50
   1 -11  -2    2.87    0.47
  -1  11   1    0.87    0.33
   1  11  -1    0.91    0.32
   1 -11  -1    0.66    0.30
  -1 -11   1    0.62    0.31
  -1  11   0    0.93    0.34
   1  11   0    0.83    0.32
  -1 -11   0    0.74    0.31
  -1  11  -1   -0.29    0.23
   1  11   1    0.32    0.29
  -1 -11  -1    0.04    0.25
  -1  11  -2    3.07    0.49
   1  11   2    4.02    0.54
  -1 -11  -2    3.17    0.48
  -1  11  -3    3.15    0.48
   1  11   3    3.07    0.51
  -1 -11  -3    3.37    0.48
  -1  11  -4    2.01    0.42
   1  11   4    1.79    0.42
  -1 -11  -4    1.26    0.35
   1  11   5    1.85    0.41
  -1  11  -5    2.48    0.44
  -1 -11  -5    1.05    0.35
   1  11   6    2.76    0.49
  -1  11  -6    3.31    0.50
  -1 -11  -6    3.25    0.50
   1  11   7    2.51    0.49
  -1  11  -7    3.05    0.48
  -1 -11  -7    3.66    0.53
   1  11   8    0.25    0.29
  -1  11  -8    0.31    0.32
  -1 -11  -8    0.05    0.24
  -1  11  -9    1.51    0.40
   1  11   9    0.76    0.38
  -1 -11  -9   -0.05    0.27
  -1  11 -10    3.29    0.49
   1  11  10    3.07    0.53
  -1 -11 -10    2.21    0.46
  -1  11 -11    0.09    0.24
   1  11  11   -0.04    0.31
  -1 -11 -11    0.23    0.29
  -1  11 -12   -0.48    0.23
  -1 -11 -12    0.08    0.31
  -1  12  10    1.37    0.43
   1 -12 -10    1.94    0.46
  -1  12   9    4.11    0.61
   1  12  -9    3.06    0.54
   1 -12  -9    2.46    0.51
  -1  12   8    0.37    0.34
   1  12  -8    1.13    0.40
   1 -12  -8    0.22    0.31
   1  12  -7    1.45    0.43
  -1  12   7    1.16    0.40
   1 -12  -7    1.68    0.44
   1  12  -6    2.52    0.50
  -1  12   6    2.53    0.51
   1 -12  -6    1.71    0.42
   1  12  -5    0.08    0.30
  -1  12   5    0.14    0.30
   1 -12  -5    0.28    0.29
   1  12  -4    4.12    0.59
  -1  12   4    2.87    0.52
   1 -12  -4    2.34    0.46
  -1  12   3    0.41    0.31
   1  12  -3    0.26    0.31
   1 -12  -3    0.25    0.28
   1  12  -2    1.83    0.43
  -1  12   2    2.12    0.45
  -1 -12   2    1.68    0.41
   1 -12  -2    1.91    0.43
  -1  12   1    0.91    0.34
   1  12  -1    0.55    0.33
  -1 -12   1    1.13    0.36
   1 -12  -1    0.90    0.36
   1  12   0   -0.09    0.27
  -1  12   0    0.14    0.28
   1 -12   0    0.13    0.28
  -1 -12   0    0.30    0.32
  -1  12  -1    0.20    0.29
   1  12   1   -0.22    0.26
  -1 -12  -1   -0.36    0.23
   1  12   2    0.26    0.31
  -1  12  -2   -0.12    0.28
  -1 -12  -2   -0.23    0.23
  -1  12  -3    1.94    0.43
   1  12   3    1.07    0.39
  -1 -12  -3    1.37    0.39
   1  12   4    7.20    0.75
  -1  12  -4    5.58    0.66
  -1 -12  -4    6.42    0.69
  -1  12  -5    0.32    0.30
   1  12   5    0.65    0.34
  -1 -12  -5    0.02    0.25
   1  12   6    1.37    0.41
  -1  12  -6    0.64    0.33
  -1 -12  -6    1.13    0.37
   1  12   7    0.55    0.38
  -1  12  -7    0.13    0.30
  -1 -12  -7    0.19    0.29
  -1  12  -8    1.53    0.42
   1  12   8    1.62    0.45
  -1 -12  -8    1.27    0.41
   1  12   9    0.04    0.35
  -1 -12  -9    0.45    0.34
   1  12  10    0.13    0.36
  -1 -12 -10    0.62    0.34
  -1  13   8    0.62    0.39
   1  13  -8    1.37    0.44
   1 -13  -8    1.37    0.44
   1  13  -7    2.06    0.49
  -1  13   7    1.27    0.46
   1 -13  -7    2.20    0.51
  -1  13   6    0.07    0.33
   1  13  -6    0.04    0.35
   1 -13  -6   -0.09    0.29
  -1  13   5    0.46    0.37
   1  13  -5    0.57    0.40
   1 -13  -5    0.18    0.32
  -1  13   4   -0.39    0.28
   1  13  -4    0.31    0.33
   1 -13  -4    0.04    0.30
  -1  13   3    9.80    0.90
   1  13  -3    7.53    0.81
  -1 -13   3    6.96    0.73
   1 -13  -3    8.47    0.82
   1  13  -2   -0.38    0.28
  -1  13   2   -0.15    0.28
   1 -13  -2   -0.42    0.27
  -1 -13   2   -0.03    0.30
   1  13  -1   -0.25    0.27
  -1  13   1    0.25    0.31
   1 -13  -1   -0.24    0.26
  -1 -13   1    0.22    0.29
  -1  13   0    0.08    0.31
   1  13   0    1.23    0.40
   1 -13   0    1.65    0.43
  -1 -13   0    1.20    0.39
   1  13   1    2.38    0.50
  -1  13  -1    1.92    0.46
  -1 -13  -1    2.48    0.48
   1 -13   1    1.49    0.47
  -1  13  -2   -0.08    0.27
   1  13   2    0.12    0.31
  -1 -13  -2   -0.11    0.26
  -1  13  -3    1.94    0.47
   1  13   3    1.91    0.49
  -1 -13  -3    2.43    0.48
  -1  13  -4    4.09    0.61
   1  13   4    3.51    0.59
  -1 -13  -4    4.92    0.63
   1  13   5    4.30    0.63
  -1  13  -5    3.67    0.59
  -1 -13  -5    3.31    0.56
   1  13   6   -0.29    0.31
  -1  13  -6    0.05    0.32
  -1 -13  -6    0.74    0.35
   1  13   7    0.17    0.33
  -1  13  -7    0.23    0.34
  -1 -13  -7    0.17    0.33
   1  14  -3   -0.20    0.33
  -1  14   3   -0.16    0.32
   1 -14  -3   -0.30    0.32
  -1 -14   3    2.07    0.52
  -1  14   2    0.22    0.34
   1  14  -2   -0.54    0.27
   1 -14  -2    0.25    0.36
  -1 -14   2   -0.52    0.30
  -1  14   1    0.90    0.38
   1  14  -1    0.88    0.41
   1 -14  -1    1.03    0.41
  -1 -14   1    0.38    0.35
   1  14   0    1.60    0.46
  -1  14   0    1.85    0.48
   1 -14   0    2.18    0.51
  -1 -14   0    2.32    0.51
   1  14   1    0.14    0.32
  -1  14  -1    0.55    0.37
  -1 -14  -1   -0.20    0.30
   1 -14   1    0.33    0.35
   1  14   2   -0.20    0.31
  -1  14  -2   -0.22    0.31
  -1 -14  -2    0.73    0.39
   1 -14   2    0.02    0.35
   1  14   3    0.38    0.38
  -1  14  -3    1.13    0.44
   2   0 -20    6.66    0.78
   2   0 -19   -0.05    0.29
   2   0 -18    6.44    0.72
   2   0 -17    0.42    0.25
   2   0 -17    0.32    0.30
   2   0 -16   24.66    1.06
   2   0 -16   26.08    1.23
   2   0 -15   -0.20    0.18
   2   0 -15   -0.17    0.17
   2   0 -14    0.21    0.23
   2   0 -14   -0.01    0.17
   2   0 -13   -0.01    0.21
   2   0 -13   -0.06    0.14
   2   0 -12    2.36    0.30
   2   0 -12    1.69    0.32
   2   0 -11    0.08    0.19
   2   0 -11    0.08    0.15
  -2   0  11    0.09    0.09
   2   0 -10   36.51    1.31
   2   0 -10   35.40    1.18
  -2   0  10   35.37    1.05
   2   0  -9   -0.18    0.13
   2   0  -9   -0.03    0.10
  -2   0   9    0.00    0.08
   2   0  -8  248.77    6.71
   2   0  -8  241.10    6.46
  -2   0   8  236.76    6.38
  -2   0   7    0.12    0.07
   2   0  -7   -0.07    0.07
   2   0  -7   -0.04    0.11
  -2   0   6    1.43    0.13
   2   0  -6    1.24    0.19
   2   0  -6    1.39    0.15
   2   0  -5   -0.01    0.08
   2   0  -5   -0.06    0.06
  -2   0   5    0.00    0.06
   2   0  -4  203.92    5.36
   2   0  -4  202.27    5.55
  -2   0   4  206.86    5.38
   2   0  -3    0.08    0.08
   2   0  -3    0.03    0.04
  -2   0   3    0.11    0.06
  -2   0   2   80.92    2.12
   2   0  -2   78.22    2.18
   2   0  -2   77.86    2.06
  -2   0   1    0.00    0.03
  -2   0   0  250.36    6.42
  -2   0   0  244.04    6.39
  -2   0   0  242.81    6.54
  -2   0  -1    0.05    0.04
  -2   0  -1    0.00    0.03
  -2   0  -1   -0.01    0.03
  -2   0  -2  149.31    4.01
  -2   0  -2  149.83    3.88
  -2   0  -2  145.77    3.93
  -2   0  -3    0.00    0.08
  -2   0  -3    0.06    0.04
  -2   0  -3   -0.06    0.07
  -2   0  -4  493.38   13.09
  -2   0  -4  487.13   12.83
  -2   0  -5   -0.04    0.08
  -2   0  -5   -0.01    0.08
  -2   0  -6   53.73    1.63
  -2   0  -6   53.05    1.60
  -2   0  -7   -0.09    0.09
  -2   0  -7    0.05    0.11
  -2   0  -8    3.55    0.33
  -2   0  -8    3.56    0.33
  -2   0  -9    0.11    0.14
  -2   0  -9    0.21    0.14
  -2   0 -10    4.46    0.42
  -2   0 -10    4.94    0.43
  -2   0 -11   -0.27    0.14
  -2   0 -11   -0.07    0.15
  -2   0 -12   24.30    1.00
  -2   0 -12   22.62    1.01
  -2   0 -13    0.38    0.21
  -2   0 -13    0.49    0.22
  -2   0 -14    5.31    0.55
  -2   0 -14    5.65    0.55
  -2   0 -15   -0.01    0.20
  -2   0 -15    0.12    0.22
  -2   0 -16    1.26    0.34
  -2   0 -16    1.84    0.37
  -2   0 -17    0.09    0.25
  -2   0 -17    0.00    0.26
  -2   0 -18    0.27    0.30
  -2   0 -18    0.43    0.32
  -2   0 -19   -0.22    0.27
  -2   0 -19    0.06    0.33
   2   1 -20    0.38    0.35
   2  -1 -20    0.75    0.38
   2   1 -19    1.79    0.47
   2  -1 -19    2.48    0.49
   2   1 -18   -0.18    0.27
   2  -1 -18    0.06    0.27
   2   1 -17    5.24    0.64
   2  -1 -17    5.58    0.57
   2  -1 -17    5.65    0.65
   2   1 -16   -0.13    0.22
   2   1 -16   -0.32    0.20
   2  -1 -16   -0.15    0.21
   2  -1 -16   -0.28    0.22
   2   1 -15    0.12    0.20
   2   1 -15    0.03    0.22
   2  -1 -15    0.03    0.18
   2  -1 -15    0.24    0.25
   2   1 -14   -0.03    0.18
   2   1 -14    0.00    0.21
   2  -1 -14   -0.09    0.17
   2  -1 -14    0.04    0.21
   2   1 -13    0.81    0.28
   2   1 -13    0.85    0.23
   2  -1 -13    0.44    0.24
   2  -1 -13    0.74    0.23
   2   1 -12   13.34    0.62
   2   1 -12   12.43    0.72
   2  -1 -12   13.55    0.64
   2  -1 -12   11.65    0.70
   2   1 -11    2.05    0.27
   2   1 -11    1.97    0.18
  -2   1  11    1.91    0.19
   2   1 -11    1.60    0.31
   2  -1 -11    1.69    0.30
   2  -1 -11    2.17    0.28
   2   1 -10    5.31    0.46
  -2   1  10    5.32    0.27
   2   1 -10    4.46    0.25
   2   1 -10    5.45    0.35
   2  -1 -10    5.14    0.45
   2  -1 -10    4.70    0.34
   2   1  -9   25.83    1.02
  -2   1   9   26.52    0.83
   2   1  -9   26.11    0.82
   2   1  -9   26.73    0.90
   2  -1  -9   27.54    1.03
   2  -1  -9   27.28    0.92
   2   1  -8    6.93    0.35
   2   1  -8    6.80    0.30
  -2   1   8    6.68    0.31
   2   1  -8    7.02    0.43
   2  -1  -8    6.98    0.36
   2  -1  -8    6.90    0.42
  -2  -1   8    6.10    0.30
   2   1  -7    0.01    0.08
   2   1  -7    0.14    0.12
  -2   1   7    0.06    0.07
  -2  -1   7    0.05    0.06
   2  -1  -7   -0.03    0.08
   2  -1  -7   -0.05    0.11
   2   1  -6    0.13    0.08
  -2   1   6    0.09    0.07
   2   1  -6   -0.01    0.10
   2  -1  -6   -0.28    0.08
  -2  -1   6    0.14    0.06
   2  -1  -6    0.23    0.09
   2   1  -5    0.81    0.15
  -2   1   5    0.82    0.11
   2   1  -5    1.14    0.12
   2  -1  -5    0.97    0.15
  -2  -1   5    1.12    0.12
   2  -1  -5    1.26    0.14
   2   1  -4   10.04    0.41
  -2   1   4   10.29    0.37
   2  -1  -4   10.13    0.37
   2  -1  -4    9.67    0.41
  -2  -1   4   10.34    0.36
  -2   1   3    0.00    0.06
   2   1  -3    0.04    0.09
   2  -1  -3    0.13    0.07
   2  -1  -3    0.05    0.08
  -2  -1   3    0.12    0.06
   2   1  -2   56.44    1.56
  -2   1   2   53.37    1.52
  -2  -1   2   55.85    1.52
   2   1  -1   88.39    2.38
   2   1  -1   87.51    2.40
  -2  -1   1   89.82    2.33
  -2  -1   1   88.71    2.38
   2   1   0  106.43    2.86
  -2   1   0  105.59    2.85
  -2   1   0  107.48    2.91
  -2  -1   0  109.35    2.83
   2   1   1   14.74    0.46
  -2   1  -1   15.14    0.49
  -2   1  -1   15.26    0.46
  -2  -1  -1   14.79    0.46
  -2  -1  -1   14.79    0.44
   2   1   2   16.17    0.48
  -2   1  -2   16.05    0.53
  -2   1  -2   15.64    0.47
  -2  -1  -2   14.92    0.51
  -2  -1  -2   15.71    0.49
  -2   1  -3   60.65    1.63
  -2   1  -3   59.74    1.71
   2   1   3   61.39    1.65
  -2   1  -3   61.53    1.75
  -2  -1  -3   59.61    1.71
  -2  -1  -3   62.02    1.71
  -2   1  -4   11.78    0.46
   2   1   4   11.53    0.37
  -2   1  -4   12.14    0.48
  -2   1  -4   11.29    0.35
  -2  -1  -4   12.13    0.43
  -2  -1  -4   11.15    0.45
  -2   1  -5    3.75    0.25
   2   1   5    3.67    0.17
  -2   1  -5    3.99    0.27
  -2  -1  -5    3.94    0.24
  -2  -1  -5    3.76    0.25
  -2   1  -6   12.55    0.51
   2   1   6   11.95    0.37
  -2   1  -6   11.86    0.53
  -2  -1  -6   10.66    0.50
  -2  -1  -6   12.64    0.50
  -2   1  -7    7.23    0.41
  -2   1  -7    7.51    0.42
  -2  -1  -7    7.88    0.40
  -2  -1  -7    7.45    0.41
  -2   1  -8    1.03    0.19
  -2   1  -8    0.63    0.19
  -2  -1  -8    1.17    0.20
  -2  -1  -8    0.70    0.17
  -2   1  -9    1.17    0.23
  -2   1  -9    1.38    0.24
  -2  -1  -9    1.06    0.22
  -2  -1  -9    0.97    0.21
  -2   1 -10    0.00    0.15
  -2   1 -10    0.12    0.15
  -2  -1 -10    0.33    0.18
  -2  -1 -10    0.38    0.18
  -2   1 -11    3.67    0.40
  -2   1 -11    4.74    0.46
  -2  -1 -11    3.87    0.41
  -2  -1 -11    3.95    0.40
  -2   1 -12    4.08    0.45
  -2   1 -12    4.98    0.47
  -2  -1 -12    4.00    0.43
  -2  -1 -12    4.78    0.47
  -2   1 -13    3.36    0.42
  -2   1 -13    3.57    0.44
  -2  -1 -13    3.56    0.43
  -2  -1 -13    3.72    0.43
  -2   1 -14    0.16    0.21
  -2   1 -14   -0.22    0.18
  -2  -1 -14    0.11    0.19
  -2  -1 -14   -0.30    0.18
  -2   1 -15    0.24    0.24
  -2   1 -15    0.03    0.21
  -2  -1 -15   -0.23    0.18
  -2  -1 -15   -0.06    0.21
  -2   1 -16   -0.13    0.23
  -2   1 -16   -0.17    0.22
  -2  -1 -16    0.00    0.20
  -2  -1 -16   -0.02    0.23
  -2   1 -17   -0.31    0.23
  -2   1 -17    0.58    0.30
  -2  -1 -17    0.07    0.26
  -2  -1 -17    0.15    0.25
  -2   1 -18    0.16    0.31
  -2  -1 -18    0.22    0.28
  -2  -1 -18    0.22    0.30
  -2   1 -19    2.20    0.50
  -2  -1 -19    3.01    0.52
  -2  -1 -19    3.98    0.58
   2   2 -20    0.22    0.35
   2  -2 -20    0.76    0.38
   2   2 -19   -0.30    0.27
   2  -2 -19    0.05    0.31
   2   2 -18    2.45    0.49
   2  -2 -18    3.87    0.51
   2  -2 -18    3.39    0.55
   2   2 -17   -0.34    0.24
   2  -2 -17   -0.07    0.27
   2  -2 -17    0.03    0.24
   2   2 -16    0.11    0.26
   2  -2 -16   -0.36    0.19
   2  -2 -16   -0.01    0.24
   2   2 -15    5.98    0.62
   2  -2 -15    5.08    0.57
   2  -2 -15    5.66    0.53
   2   2 -14    0.97    0.31
   2  -2 -14    1.41    0.29
   2  -2 -14    1.14    0.32
   2   2 -13    3.22    0.44
   2  -2 -13    3.36    0.43
   2  -2 -13    3.13    0.37
   2   2 -12    0.68    0.24
   2  -2 -12    0.74    0.22
   2  -2 -12    0.47    0.21
   2   2 -11    4.61    0.47
  -2   2  11    4.02    0.27
   2   2 -11    4.75    0.27
   2  -2 -11    4.51    0.40
   2  -2 -11    3.79    0.41
  -2   2  10    0.97    0.16
   2   2 -10    1.01    0.25
   2   2 -10    1.00    0.15
   2  -2 -10    1.18    0.22
   2  -2 -10    0.99    0.24
  -2   2   9    0.12    0.10
   2   2  -9    0.30    0.10
   2   2  -9    0.29    0.16
   2  -2  -9    0.13    0.14
   2  -2  -9    0.30    0.14
   2   2  -8    1.67    0.25
  -2   2   8    1.79    0.19
   2   2  -8    1.71    0.18
   2  -2  -8    1.29    0.20
   2  -2  -8    1.94    0.25
   2   2  -7   20.57    0.67
   2   2  -7   19.21    0.78
  -2   2   7   19.85    0.68
   2  -2  -7   19.70    0.76
   2  -2  -7   20.65    0.72
   2   2  -6    9.95    0.39
   2   2  -6   10.52    0.49
  -2   2   6   10.07    0.41
   2  -2  -6    9.78    0.42
   2  -2  -6    9.47    0.45
  -2   2   5    1.83    0.17
   2   2  -5    1.68    0.16
   2   2  -5    1.99    0.21
   2  -2  -5    1.84    0.19
   2  -2  -5    1.70    0.18
  -2   2   4   23.96    0.76
   2   2  -4   24.83    0.75
   2   2  -4   23.38    0.79
   2  -2  -4   24.01    0.78
   2  -2  -4   22.24    0.75
   2   2  -3   78.53    2.14
   2   2  -3   76.50    2.18
  -2   2   3   77.80    2.15
   2  -2  -3   77.25    2.14
  -2   2   2  119.13    3.27
   2   2  -2  122.51    3.27
   2   2  -2  121.58    3.30
   2   2  -1   39.42    1.16
   2   2  -1   38.72    1.12
  -2   2   1   41.03    1.16
  -2   2   1   40.77    1.17
  -2   2   0    4.85    0.23
   2   2   0    4.81    0.17
  -2   2   0    5.38    0.25
   2   2   0    4.70    0.24
  -2  -2   0    4.97    0.22
  -2   2  -1   -0.07    0.05
   2   2   1   -0.12    0.07
  -2   2  -1   -0.03    0.08
  -2  -2  -1    0.07    0.07
   2   2   2   25.13    0.79
  -2   2  -2   25.93    0.83
  -2   2  -2   26.33    0.79
  -2  -2  -2   26.73    0.81
  -2  -2  -2   25.96    0.73
  -2   2  -3    1.20    0.12
  -2   2  -3    0.99    0.14
   2   2   3    0.98    0.13
  -2  -2  -3    1.09    0.14
  -2  -2  -3    1.31    0.11
   2   2   4   22.27    0.72
  -2   2  -4   23.75    0.80
  -2   2  -4   23.64    0.70
  -2  -2  -4   22.83    0.78
  -2  -2  -4   23.35    0.72
   2   2   5    1.50    0.15
  -2   2  -5    1.01    0.11
  -2   2  -5    1.09    0.18
  -2  -2  -5    1.09    0.14
  -2  -2  -5    1.06    0.17
  -2   2  -6    1.68    0.13
  -2   2  -6    1.84    0.23
   2   2   6    2.10    0.17
  -2  -2  -6    1.83    0.22
  -2  -2  -6    1.92    0.20
   2   2   7   24.96    0.77
  -2   2  -7   25.02    0.72
  -2   2  -7   25.10    0.94
  -2  -2  -7   24.25    0.90
  -2  -2  -7   25.37    0.88
  -2   2  -8   18.09    0.80
   2   2   8   20.57    0.63
  -2  -2  -8   18.90    0.76
  -2  -2  -8   20.87    0.80
  -2   2  -9    0.53    0.18
   2   2   9    0.28    0.09
  -2   2  -9    0.19    0.16
  -2  -2  -9    0.53    0.18
  -2  -2  -9    0.39    0.16
  -2   2 -10    4.03    0.42
  -2   2 -10    4.36    0.42
  -2  -2 -10    5.09    0.38
  -2  -2 -10    5.46    0.47
  -2   2 -11    0.38    0.19
  -2   2 -11    0.47    0.22
  -2  -2 -11    0.20    0.18
  -2  -2 -11   -0.03    0.16
  -2   2 -12   -0.15    0.16
  -2   2 -12    0.16    0.19
  -2  -2 -12    0.09    0.18
  -2  -2 -12    0.20    0.20
  -2   2 -13    0.59    0.24
  -2   2 -13    0.82    0.24
  -2  -2 -13    0.77    0.25
  -2  -2 -13    0.93    0.26
  -2   2 -14    0.33    0.23
  -2  -2 -14    0.16    0.19
  -2  -2 -14    0.08    0.21
  -2   2 -15    0.17    0.23
  -2  -2 -15    0.32    0.24
  -2  -2 -15    0.51    0.27
  -2   2 -16    0.19    0.23
  -2  -2 -16    0.14    0.27
  -2  -2 -16    0.44    0.26
  -2   2 -17    0.22    0.29
  -2  -2 -17    0.14    0.28
  -2  -2 -17    0.43    0.27
  -2   2 -18    0.75    0.35
  -2  -2 -18    1.64    0.41
  -2  -2 -18    0.74    0.33
  -2   2 -19    0.60    0.37
  -2  -2 -19    1.32    0.41
  -2  -2 -19    0.65    0.35
   2   3 -19   -0.11    0.28
   2  -3 -19   -0.08    0.33
   2   3 -18    0.05    0.29
   2  -3 -18    0.34    0.29
   2  -3 -18   -0.03    0.27
   2   3 -17    0.46    0.31
   2  -3 -17    0.19    0.29
   2  -3 -17    0.51    0.27
   2   3 -16    0.33    0.27
   2  -3 -16    0.25    0.24
   2  -3 -16   -0.08    0.24
   2   3 -15    2.46    0.43
   2  -3 -15    2.99    0.45
   2  -3 -15    3.37    0.44
   2   3 -14    5.07    0.57
   2  -3 -14    5.12    0.54
   2  -3 -14    5.53    0.53
   2   3 -13    0.42    0.24
   2  -3 -13    0.27    0.22
   2  -3 -13    0.12    0.19
   2   3 -12    2.30    0.37
   2  -3 -12    2.69    0.35
   2  -3 -12    3.13    0.39
   2   3 -11    0.91    0.25
   2   3 -11    0.93    0.18
  -2   3  11    1.02    0.18
   2  -3 -11    0.78    0.24
   2  -3 -11    0.75    0.22
   2   3 -10    7.27    0.52
  -2   3  10    6.98    0.39
   2   3 -10    7.30    0.37
   2  -3 -10    6.97    0.47
   2  -3 -10    7.24    0.44
   2   3  -9    4.35    0.41
   2   3  -9    4.58    0.30
  -2   3   9    5.13    0.33
   2  -3  -9    4.43    0.39
   2  -3  -9    4.91    0.36
   2   3  -8    5.31    0.30
  -2   3   8    5.58    0.33
   2   3  -8    5.13    0.38
   2  -3  -8    5.11    0.35
   2  -3  -8    5.22    0.36
  -2   3   7    0.32    0.12
   2   3  -7    0.37    0.13
   2   3  -7    0.60    0.16
   2  -3  -7    0.15    0.12
   2  -3  -7    0.01    0.11
  -2   3   6    2.72    0.25
   2   3  -6    3.10    0.23
   2   3  -6    3.17    0.30
   2  -3  -6    3.16    0.28
   2  -3  -6    3.29    0.28
   2   3  -5    4.54    0.27
   2   3  -5    5.04    0.30
  -2   3   5    4.70    0.29
   2  -3  -5    4.47    0.28
   2  -3  -5    5.44    0.31
   2   3  -4   -0.01    0.08
  -2   3   4   -0.16    0.07
   2   3  -4    0.19    0.10
   2  -3  -4   -0.02    0.08
   2  -3  -4    0.08    0.10
  -2   3   3    8.45    0.39
   2   3  -3    8.38    0.38
   2   3  -3    9.32    0.38
   2  -3  -3    9.39    0.39
  -2   3   2   92.53    2.63
   2   3  -2   96.48    2.63
   2   3  -2   94.98    2.61
  -2   3   1   16.97    0.56
   2   3  -1   16.55    0.52
   2   3  -1   16.47    0.59
  -2   3   1   16.89    0.60
  -2   3   0   16.26    0.54
  -2   3   0   15.56    0.57
   2   3   0   14.56    0.55
   2   3   0   15.32    0.45
  -2  -3   0   15.66    0.54
  -2   3  -1   31.82    1.00
  -2   3  -1   33.01    1.00
   2   3   1   32.15    1.01
  -2  -3  -1   32.97    1.00
  -2   3  -2    5.19    0.27
  -2   3  -2    5.47    0.28
   2   3   2    4.69    0.28
  -2  -3  -2    4.66    0.27
   2   3   3    7.20    0.34
  -2   3  -3    6.90    0.32
  -2   3  -3    7.33    0.35
  -2  -3  -3    6.94    0.25
  -2  -3  -3    7.56    0.36
  -2   3  -4    0.58    0.13
  -2   3  -4    0.68    0.14
   2   3   4    0.21    0.11
  -2  -3  -4    0.38    0.08
  -2  -3  -4    0.29    0.12
   2   3   5    6.07    0.33
  -2   3  -5    7.12    0.31
  -2   3  -5    6.34    0.37
  -2  -3  -5    6.35    0.29
  -2  -3  -5    6.38    0.36
   2   3   6   30.94    1.01
  -2   3  -6   33.33    0.99
  -2   3  -6   31.99    1.13
  -2  -3  -6   33.42    1.11
  -2  -3  -6   33.64    1.03
   2   3   7    4.58    0.29
  -2   3  -7    5.23    0.38
  -2   3  -7    4.81    0.26
  -2  -3  -7    5.29    0.31
  -2  -3  -7    4.64    0.34
   2   3   8    5.75    0.32
  -2   3  -8    5.06    0.45
  -2   3  -8    5.71    0.28
  -2  -3  -8    6.17    0.41
  -2  -3  -8    5.95    0.36
   2   3   9    5.38    0.30
  -2   3  -9    5.06    0.46
  -2   3  -9    4.90    0.25
  -2  -3  -9    5.48    0.41
  -2  -3  -9    5.02    0.36
  -2   3 -10    2.33    0.34
   2   3  10    2.07    0.21
  -2  -3 -10    2.18    0.32
  -2  -3 -10    2.40    0.29
  -2   3 -11    0.53    0.22
  -2  -3 -11    0.36    0.19
  -2  -3 -11    0.37    0.19
  -2   3 -12    0.67    0.26
  -2  -3 -12    1.18    0.28
  -2  -3 -12    1.00    0.24
  -2   3 -13    4.03    0.49
  -2  -3 -13    4.15    0.45
  -2  -3 -13    3.60    0.45
  -2   3 -14    0.51    0.28
  -2  -3 -14    0.67    0.25
  -2  -3 -14    0.66    0.25
  -2   3 -15    0.54    0.26
  -2  -3 -15    0.65    0.27
  -2  -3 -15    0.82    0.28
  -2   3 -16    0.09    0.26
  -2  -3 -16    0.64    0.28
  -2  -3 -16    0.31    0.28
  -2   3 -17    0.13    0.29
  -2  -3 -17   -0.12    0.26
  -2  -3 -17    0.03    0.27
  -2   3 -18    0.90    0.38
  -2  -3 -18    0.74    0.36
  -2  -3 -18    0.76    0.34
  -2   3 -19    1.58    0.44
  -2  -3 -19    1.80    0.44
   2   4 -19    0.64    0.35
   2  -4 -19   -0.14    0.32
   2   4 -18    2.06    0.46
   2  -4 -18    2.36    0.49
   2  -4 -18    1.57    0.40
   2   4 -17    0.52    0.31
   2  -4 -17    0.79    0.33
   2  -4 -17    0.87    0.34
   2   4 -16    4.87    0.60
   2  -4 -16    3.87    0.51
   2  -4 -16    4.76    0.56
   2   4 -15    0.66    0.29
   2  -4 -15   -0.05    0.22
   2  -4 -15    0.17    0.22
   2   4 -14    0.05    0.22
   2  -4 -14    0.02    0.22
   2  -4 -14   -0.03    0.20
   2   4 -13    0.48    0.24
   2  -4 -13    0.87    0.27
   2  -4 -13    0.73    0.26
   2   4 -12    2.01    0.35
   2  -4 -12    1.75    0.30
   2  -4 -12    1.50    0.30
   2   4 -11    5.00    0.50
   2   4 -11    6.52    0.38
  -2   4  11    6.61    0.41
   2  -4 -11    5.88    0.50
   2  -4 -11    5.35    0.49
  -2   4  10    2.08    0.26
   2   4 -10    1.71    0.31
   2   4 -10    1.81    0.24
   2  -4 -10    1.39    0.27
   2  -4 -10    1.25    0.25
  -2   4   9    0.67    0.18
   2   4  -9    0.31    0.16
   2   4  -9    0.76    0.23
   2  -4  -9    0.50    0.20
   2  -4  -9    0.43    0.18
  -2   4   8    7.03    0.41
   2   4  -8    6.17    0.44
   2   4  -8    6.20    0.37
   2  -4  -8    6.23    0.40
   2  -4  -8    6.70    0.43
  -2   4   7    0.29    0.14
   2   4  -7    0.05    0.13
   2   4  -7   -0.09    0.12
   2  -4  -7    0.17    0.14
   2  -4  -7    0.29    0.13
   2   4  -6    0.61    0.17
   2   4  -6    0.35    0.15
  -2   4   6    0.71    0.17
   2  -4  -6    0.60    0.15
   2  -4  -6    0.61    0.16
  -2   4   5    1.85    0.23
   2   4  -5    2.27    0.25
   2   4  -5    2.39    0.24
   2  -4  -5    1.95    0.21
   2  -4  -5    2.58    0.27
   2   4  -4    2.37    0.24
   2   4  -4    2.32    0.23
  -2   4   4    2.22    0.25
   2  -4  -4    2.49    0.26
   2   4  -3    2.27    0.20
  -2   4   3    2.26    0.24
   2   4  -3    2.13    0.23
   2   4  -2   -0.08    0.10
  -2   4   2    0.00    0.10
   2   4  -2    0.12    0.08
  -2   4   1    2.86    0.26
   2   4  -1    3.24    0.17
   2   4  -1    2.64    0.26
  -2   4   1    3.24    0.20
  -2   4   0  105.76    2.89
   2   4   0  100.88    2.88
   2   4   0  100.50    2.76
  -2   4   0  103.71    2.86
  -2   4  -1   17.45    0.62
   2   4   1   16.57    0.66
  -2   4  -1   17.95    0.66
  -2  -4  -1   18.59    0.66
  -2   4  -2   56.20    1.69
  -2   4  -2   58.27    1.68
   2   4   2   54.47    1.69
  -2  -4  -2   57.95    1.69
  -2   4  -3   24.16    0.82
  -2   4  -3   23.19    0.79
   2   4   3   22.08    0.81
  -2  -4  -3   22.36    0.81
   2   4   4   28.91    0.98
  -2   4  -4   29.92    0.96
  -2   4  -4   29.56    1.02
  -2  -4  -4   29.77    1.01
  -2  -4  -4   29.03    0.85
  -2   4  -5    9.39    0.49
  -2   4  -5    9.76    0.44
   2   4   5    9.84    0.47
  -2  -4  -5   10.08    0.49
  -2  -4  -5    9.68    0.37
  -2   4  -6    6.53    0.41
  -2   4  -6    7.00    0.36
   2   4   6    6.89    0.39
  -2  -4  -6    7.83    0.44
  -2  -4  -6    7.49    0.33
  -2   4  -7    5.66    0.40
   2   4   7    5.58    0.36
  -2   4  -7    5.88    0.33
  -2  -4  -7    6.58    0.34
  -2  -4  -7    5.96    0.41
  -2   4  -8    5.38    0.47
  -2   4  -8    5.46    0.32
   2   4   8    5.55    0.36
  -2  -4  -8    4.35    0.42
  -2  -4  -8    5.76    0.35
  -2   4  -9    6.50    0.47
   2   4   9    5.93    0.37
  -2   4  -9    6.68    0.34
  -2  -4  -9    6.10    0.45
  -2  -4  -9    6.14    0.40
  -2   4 -10    0.09    0.17
   2   4  10    0.52    0.17
  -2  -4 -10    0.18    0.16
  -2  -4 -10    0.14    0.20
  -2   4 -11    0.41    0.22
  -2  -4 -11    0.24    0.20
  -2  -4 -11    0.63    0.20
  -2   4 -12    0.45    0.22
  -2  -4 -12    0.86    0.24
  -2  -4 -12    0.58    0.24
  -2   4 -13    1.06    0.31
  -2  -4 -13    1.57    0.35
  -2  -4 -13    1.40    0.28
  -2   4 -14    0.08    0.22
  -2  -4 -14    0.02    0.21
  -2  -4 -14    0.21    0.22
  -2   4 -15    1.39    0.36
  -2  -4 -15    2.02    0.39
  -2  -4 -15    0.97    0.30
  -2   4 -16    1.99    0.41
  -2  -4 -16    1.80    0.40
  -2   4 -17    4.27    0.60
  -2  -4 -17    3.14    0.51
  -2   4 -18    4.49    0.63
  -2  -4 -18    3.54    0.56
  -2   4 -19    0.18    0.33
  -2  -4 -19    0.05    0.31
   2   5 -19    6.66    0.78
   2   5 -18    0.20    0.30
   2  -5 -18    0.17    0.30
   2   5 -17    2.29    0.49
   2  -5 -17    3.11    0.49
   2   5 -16    1.62    0.39
   2  -5 -16    1.66    0.38
   2  -5 -16    1.31    0.36
   2   5 -15    5.54    0.62
   2  -5 -15    7.64    0.66
   2  -5 -15    7.03    0.65
   2   5 -14    1.98    0.38
   2  -5 -14    2.19    0.38
   2  -5 -14    2.08    0.37
   2   5 -13    0.62    0.25
   2  -5 -13    0.49    0.25
   2  -5 -13   -0.12    0.20
  -2   5  12    6.55    0.45
   2   5 -12    4.98    0.54
   2  -5 -12    6.89    0.59
   2  -5 -12    5.08    0.49
   2   5 -11   -0.08    0.17
  -2   5  11    0.10    0.16
   2   5 -11   -0.14    0.15
   2  -5 -11   -0.09    0.18
   2  -5 -11   -0.07    0.16
   2   5 -10    0.82    0.24
  -2   5  10    1.20    0.24
   2   5 -10    1.47    0.24
   2  -5 -10    1.71    0.28
   2  -5 -10    0.84    0.24
   2   5  -9    2.36    0.29
   2   5  -9    1.73    0.30
  -2   5   9    2.01    0.29
   2  -5  -9    2.48    0.30
   2  -5  -9    2.43    0.33
   2   5  -8    0.75    0.19
   2   5  -8    0.71    0.21
  -2   5   8    0.80    0.21
   2  -5  -8    0.72    0.20
   2  -5  -8    0.16    0.16
   2   5  -7   16.91    0.70
   2   5  -7   18.06    0.76
  -2   5   7   15.32    0.71
   2  -5  -7   17.00    0.68
   2  -5  -7   17.18    0.74
   2   5  -6    1.92    0.25
   2   5  -6    1.54    0.24
  -2   5   6    1.93    0.26
   2  -5  -6    1.01    0.23
   2  -5  -6    1.52    0.21
  -2   5   5    0.22    0.15
   2   5  -5    0.33    0.15
   2   5  -5    0.10    0.12
   2  -5  -5    0.22    0.15
   2  -5  -5    0.13    0.11
  -2   5   4    9.48    0.49
   2   5  -4    9.99    0.49
   2   5  -4    9.29    0.44
   2  -5  -4    8.67    0.48
   2   5  -3    0.02    0.09
   2   5  -3    0.06    0.13
  -2   5   3    0.04    0.14
  -2   5   2    9.63    0.50
   2   5  -2   10.91    0.51
   2   5  -2    9.85    0.40
   2   5  -1    0.77    0.10
  -2   5   1    0.66    0.18
  -2   5   1    1.09    0.14
   2   5  -1    0.92    0.20
  -2   5   0    5.40    0.28
  -2   5   0    4.94    0.33
   2   5   0    5.12    0.34
   2   5   0    4.74    0.20
  -2   5  -1   93.30    2.70
   2   5   1   93.16    2.71
  -2   5  -1   94.74    2.67
  -2  -5  -1   93.37    2.68
   2   5   2    2.21    0.27
  -2   5  -2    2.23    0.23
  -2   5  -2    2.12    0.25
  -2  -5  -2    1.67    0.23
  -2   5  -3   11.86    0.53
   2   5   3   11.94    0.56
  -2   5  -3   12.75    0.56
  -2  -5  -3   11.52    0.55
  -2   5  -4   10.01    0.51
  -2   5  -4   11.53    0.52
   2   5   4   11.34    0.54
  -2  -5  -4   10.28    0.53
  -2   5  -5   31.79    1.07
   2   5   5   31.04    1.10
  -2   5  -5   30.98    1.11
  -2  -5  -5   31.10    1.12
  -2  -5  -5   31.86    0.93
   2   5   6   28.46    1.00
  -2   5  -6   27.63    1.04
  -2   5  -6   27.09    0.94
  -2  -5  -6   25.11    0.84
  -2  -5  -6   27.82    1.03
  -2   5  -7   11.04    0.52
   2   5   7   12.25    0.58
  -2   5  -7   11.19    0.60
  -2  -5  -7   11.29    0.60
  -2  -5  -7   11.28    0.47
  -2   5  -8    0.69    0.19
  -2   5  -8    1.34    0.25
   2   5   8    0.77    0.21
  -2  -5  -8    0.55    0.21
  -2  -5  -8    1.00    0.18
  -2   5  -9    0.72    0.23
  -2   5  -9    0.94    0.20
   2   5   9    0.82    0.22
  -2  -5  -9    0.74    0.19
  -2  -5  -9    0.85    0.26
   2   5  10    5.85    0.41
  -2   5 -10    6.32    0.56
  -2  -5 -10    5.42    0.52
  -2  -5 -10    5.45    0.39
  -2   5 -11    0.11    0.18
  -2  -5 -11    0.23    0.21
  -2  -5 -11   -0.09    0.14
  -2   5 -12    2.46    0.39
  -2  -5 -12    2.65    0.34
  -2  -5 -12    2.79    0.41
  -2   5 -13    3.81    0.48
  -2  -5 -13    3.99    0.50
  -2   5 -14    1.96    0.39
  -2  -5 -14    2.22    0.40
  -2   5 -15    0.94    0.32
  -2  -5 -15    1.13    0.33
  -2   5 -16    2.40    0.46
  -2  -5 -16    3.18    0.51
  -2   5 -17    0.99    0.36
  -2  -5 -17    0.52    0.33
  -2   5 -18    1.74    0.47
  -2  -5 -18    1.14    0.40
   2   6 -18    1.15    0.42
   2  -6 -18    1.67    0.43
   2   6 -17   -0.33    0.25
   2  -6 -17    0.11    0.29
   2   6 -16    2.52    0.49
   2  -6 -16    3.93    0.53
   2   6 -15    0.06    0.24
   2  -6 -15   -0.01    0.25
   2   6 -14    2.94    0.44
   2  -6 -14    2.90    0.44
   2   6 -13    0.68    0.28
   2  -6 -13    1.35    0.34
   2  -6 -13    1.13    0.30
  -2   6  12   -0.08    0.20
   2   6 -12    0.21    0.22
   2  -6 -12    0.23    0.21
   2  -6 -12    0.52    0.23
  -2   6  11    0.76    0.23
   2   6 -11    0.69    0.25
   2   6 -11    0.77    0.23
   2  -6 -11    0.90    0.25
   2  -6 -11    0.81    0.26
  -2   6  10    0.33    0.21
   2   6 -10    0.39    0.20
   2   6 -10    0.24    0.19
   2  -6 -10    0.32    0.22
   2  -6 -10    0.45    0.20
  -2   6   9    0.89    0.25
   2   6  -9    1.05    0.24
   2   6  -9    0.61    0.22
   2  -6  -9    0.65    0.21
   2  -6  -9    1.02    0.27
   2   6  -8    4.12    0.40
   2   6  -8    4.49    0.43
  -2   6   8    4.14    0.42
   2  -6  -8    4.44    0.37
   2  -6  -8    4.06    0.44
   2   6  -7    0.70    0.20
  -2   6   7    0.55    0.22
   2   6  -7    0.55    0.23
   2  -6  -7    0.51    0.17
   2  -6  -7    0.48    0.22
   2   6  -6    0.00    0.15
   2   6  -6    0.03    0.13
  -2   6   6    0.22    0.18
   2  -6  -6   -0.22    0.11
   2  -6  -6   -0.16    0.15
   2   6  -5    1.32    0.25
  -2   6   5    1.45    0.27
   2   6  -5    1.65    0.23
   2  -6  -5    1.19    0.19
   2  -6  -5    0.89    0.24
  -2   6   4   -0.02    0.16
   2   6  -4   -0.17    0.13
   2   6  -4   -0.13    0.09
   2  -6  -4    0.08    0.17
  -2   6   3    0.15    0.16
   2   6  -3   -0.09    0.14
   2   6  -3    0.03    0.09
   2   6  -2   -0.07    0.12
   2   6  -2    0.00    0.08
  -2   6   2   -0.06    0.14
  -2   6   1    3.39    0.27
  -2   6   1    4.61    0.41
   2   6  -1    4.58    0.41
   2   6  -1    3.98    0.22
   2   6   0   10.46    0.56
   2   6   0   10.31    0.36
  -2   6   0   10.61    0.46
  -2   6   0   10.04    0.55
   2   6   1    0.46    0.19
  -2   6  -1    0.73    0.20
  -2   6  -1    0.90    0.15
  -2  -6  -1    0.73    0.20
  -2   6  -2   -0.05    0.09
   2   6   2    0.06    0.15
  -2   6  -2    0.23    0.16
  -2  -6  -2    0.26    0.16
  -2   6  -3   10.68    0.55
   2   6   3   10.32    0.56
  -2   6  -3    9.78    0.49
  -2  -6  -3   10.07    0.54
  -2   6  -4   12.78    0.59
   2   6   4   11.77    0.61
  -2   6  -4   11.62    0.58
  -2  -6  -4   11.28    0.59
  -2   6  -5    8.08    0.47
  -2   6  -5    7.17    0.46
   2   6   5    7.56    0.48
  -2  -6  -5    6.65    0.46
  -2   6  -6   -0.14    0.14
   2   6   6    0.43    0.21
  -2   6  -6    0.05    0.15
  -2  -6  -6    0.14    0.17
  -2   6  -7    0.93    0.24
   2   6   7    0.69    0.24
  -2   6  -7    0.50    0.21
  -2  -6  -7    0.60    0.21
  -2   6  -8    0.31    0.19
  -2   6  -8   -0.02    0.18
   2   6   8    0.29    0.21
  -2  -6  -8    0.04    0.18
  -2   6  -9    1.35    0.30
   2   6   9    1.60    0.29
  -2   6  -9    2.26    0.29
  -2  -6  -9    2.02    0.33
  -2   6 -10   13.53    0.74
   2   6  10   10.57    0.61
  -2  -6 -10   11.85    0.69
  -2   6 -11    7.37    0.64
  -2  -6 -11    6.21    0.60
  -2   6 -12    4.37    0.52
  -2  -6 -12    5.39    0.58
  -2   6 -13    2.03    0.39
  -2  -6 -13    2.70    0.44
  -2   6 -14    0.55    0.28
  -2  -6 -14    1.10    0.34
  -2   6 -15    0.57    0.28
  -2  -6 -15    0.70    0.32
  -2   6 -16    1.67    0.41
  -2  -6 -16    0.56    0.31
  -2   6 -17    0.73    0.35
  -2  -6 -17    0.54    0.34
   2   7 -17    3.30    0.56
   2  -7 -17    3.40    0.54
   2   7 -16    0.36    0.29
   2  -7 -16    0.80    0.38
   2   7 -15    0.66    0.33
   2  -7 -15    0.54    0.31
   2   7 -14    2.52    0.45
   2  -7 -14    3.33    0.49
   2   7 -13    0.39    0.27
   2  -7 -13    0.33    0.25
  -2   7  12    0.51    0.26
   2   7 -12    1.22    0.32
   2  -7 -12    0.72    0.29
   2   7 -11    6.60    0.54
  -2   7  11    6.47    0.57
   2   7 -11    4.91    0.54
   2  -7 -11    6.33    0.60
  -2   7  10    0.17    0.19
   2   7 -10   -0.19    0.16
   2   7 -10    0.24    0.20
   2  -7 -10    0.02    0.21
  -2   7   9    5.09    0.51
   2   7  -9    4.69    0.46
   2   7  -9    5.41    0.51
   2  -7  -9    5.10    0.51
   2   7  -8    0.22    0.20
   2   7  -8    0.07    0.17
  -2   7   8   -0.07    0.19
   2  -7  -8    0.33    0.21
   2  -7  -8    0.26    0.17
   2   7  -7    1.01    0.23
   2   7  -7    0.84    0.25
  -2   7   7    0.96    0.27
   2  -7  -7    0.80    0.20
   2  -7  -7    0.45    0.24
   2   7  -6    9.07    0.57
   2   7  -6    9.23    0.52
  -2   7   6   10.36    0.62
   2  -7  -6    9.25    0.60
   2  -7  -6    9.59    0.47
  -2   7   5    7.44    0.53
   2   7  -5    7.33    0.43
   2   7  -5    6.64    0.49
   2  -7  -5    6.72    0.56
   2  -7  -5    7.54    0.40
   2   7  -4    1.87    0.24
   2   7  -4    1.77    0.31
  -2   7   4    1.34    0.30
   2  -7  -4    1.40    0.29
   2   7  -3    1.76    0.31
   2   7  -3    1.92    0.22
  -2   7   3    1.70    0.31
   2   7  -2    2.91    0.36
   2   7  -2    3.30    0.24
  -2   7   2    3.22    0.38
  -2   7   1    7.95    0.38
   2   7  -1    7.03    0.32
  -2   7   1    7.04    0.48
   2   7  -1    6.65    0.47
   2   7   0    1.49    0.29
   2   7   0    1.57    0.14
  -2   7   0    1.44    0.29
  -2   7   0    1.59    0.20
  -2  -7   0    1.78    0.30
  -2   7  -1    8.31    0.44
   2   7   1    8.58    0.53
  -2   7  -1    9.38    0.56
  -2  -7  -1    9.89    0.55
  -2   7  -2   26.24    0.96
  -2   7  -2   26.46    1.06
   2   7   2   28.94    1.10
  -2  -7  -2   27.02    1.05
  -2   7  -3   12.95    0.61
  -2   7  -3   14.00    0.68
   2   7   3   13.40    0.69
  -2  -7  -3   13.19    0.68
  -2   7  -4    1.50    0.25
   2   7   4    1.02    0.27
  -2   7  -4    0.89    0.25
  -2  -7  -4    1.53    0.29
  -2   7  -5    1.21    0.24
   2   7   5    0.47    0.24
  -2   7  -5    1.24    0.28
  -2  -7  -5    0.72    0.24
   2   7   6    7.35    0.52
  -2   7  -6    6.74    0.49
  -2   7  -6    7.44    0.49
  -2  -7  -6    6.64    0.50
   2   7   7    3.11    0.40
  -2   7  -7    3.42    0.39
  -2   7  -7    3.78    0.42
  -2  -7  -7    2.82    0.40
   2   7   8    3.50    0.42
  -2   7  -8    3.11    0.37
  -2   7  -8    3.77    0.43
  -2  -7  -8    2.98    0.40
  -2   7  -9    1.12    0.27
   2   7   9    1.52    0.31
  -2   7  -9    1.36    0.28
  -2  -7  -9    1.52    0.34
   2   7  10   -0.08    0.20
  -2   7 -10   -0.06    0.18
  -2  -7 -10    0.26    0.23
  -2   7 -11   12.58    0.78
   2   7  11   13.54    0.71
  -2  -7 -11   12.00    0.75
  -2   7 -12   -0.34    0.18
  -2  -7 -12    0.17    0.25
  -2   7 -13    1.90    0.40
  -2  -7 -13    1.84    0.38
  -2   7 -14    0.36    0.28
  -2  -7 -14    0.33    0.27
  -2   7 -15    4.44    0.59
  -2  -7 -15    4.81    0.61
  -2   7 -16    3.10    0.53
  -2  -7 -16    3.71    0.57
  -2   7 -17    0.13    0.30
  -2  -7 -17    0.01    0.31
   2   8 -16    0.11    0.28
   2  -8 -16   -0.10    0.27
   2   8 -15   -0.14    0.23
   2  -8 -15   -0.02    0.27
   2   8 -14    0.07    0.24
   2  -8 -14    0.11    0.27
   2   8 -13    0.56    0.29
   2  -8 -13    0.69    0.32
   2   8 -12   -0.05    0.21
  -2   8  12    0.31    0.27
   2  -8 -12    0.44    0.28
   2   8 -11    3.02    0.43
   2   8 -11    3.70    0.45
  -2   8  11    2.50    0.42
   2  -8 -11    2.65    0.44
   2   8 -10    4.71    0.50
  -2   8  10    5.37    0.55
   2   8 -10    5.89    0.54
   2  -8 -10    4.44    0.54
  -2   8   9    1.33    0.32
   2   8  -9    0.82    0.25
   2   8  -9    0.60    0.26
   2  -8  -9    1.34    0.33
  -2   8   8    1.93    0.36
   2   8  -8    1.60    0.29
   2   8  -8    1.49    0.32
   2  -8  -8    1.53    0.33
   2   8  -7    1.31    0.32
   2   8  -7    1.53    0.28
  -2   8   7    1.93    0.35
   2  -8  -7    1.34    0.30
   2   8  -6   10.31    0.64
   2   8  -6   11.59    0.61
  -2   8   6   12.21    0.71
   2  -8  -6   10.44    0.66
  -2   8   5    1.82    0.35
   2   8  -5    1.94    0.27
   2   8  -5    1.36    0.30
   2  -8  -5    1.89    0.33
   2   8  -4    2.78    0.29
  -2   8   4    1.71    0.35
   2   8  -4    2.52    0.38
   2  -8  -4    2.94    0.42
  -2   8   3    0.78    0.27
   2   8  -3    0.18    0.13
   2   8  -3    0.36    0.23
   2  -8  -3    0.20    0.23
   2   8  -2    5.44    0.52
  -2   8   2    4.13    0.47
   2   8  -2    4.34    0.29
  -2   8   1    1.25    0.31
   2   8  -1    1.21    0.28
  -2   8   1    0.98    0.18
  -2   8   0    5.88    0.37
   2   8   0    5.07    0.51
  -2   8   0    5.76    0.53
  -2  -8   0    5.47    0.51
   2   8   1    0.07    0.20
  -2   8  -1   -0.03    0.22
  -2   8  -1   -0.08    0.11
  -2  -8  -1    0.06    0.20
  -2   8  -2    0.72    0.27
   2   8   2    0.43    0.25
  -2   8  -2    0.69    0.18
  -2  -8  -2    0.73    0.25
  -2   8  -3    0.72    0.26
  -2   8  -3    0.55    0.18
   2   8   3    0.55    0.26
  -2  -8  -3    0.48    0.24
  -2   8  -4    0.09    0.21
  -2   8  -4    0.29    0.16
   2   8   4   -0.24    0.20
  -2  -8  -4    0.19    0.20
   2   8   5    0.67    0.27
  -2   8  -5    0.42    0.23
  -2   8  -5    1.02    0.23
  -2  -8  -5    0.18    0.20
   2   8   6    0.64    0.27
  -2   8  -6   -0.10    0.20
  -2   8  -6    0.26    0.18
  -2  -8  -6    0.10    0.20
   2   8   7    6.00    0.56
  -2   8  -7    4.28    0.46
  -2   8  -7    4.87    0.48
  -2  -8  -7    5.24    0.54
   2   8   8    9.27    0.64
  -2   8  -8    9.21    0.58
  -2   8  -8    9.15    0.61
  -2  -8  -8    7.83    0.68
  -2   8  -9    4.29    0.49
  -2   8  -9    5.36    0.50
   2   8   9    4.06    0.49
  -2  -8  -9    4.34    0.52
  -2   8 -10    1.02    0.29
   2   8  10    1.43    0.33
  -2  -8 -10    0.78    0.30
  -2   8 -11    0.58    0.27
   2   8  11    0.72    0.27
  -2  -8 -11    0.21    0.24
  -2   8 -12    7.77    0.71
  -2  -8 -12    7.85    0.72
  -2   8 -13   -0.21    0.18
  -2  -8 -13   -0.05    0.25
  -2   8 -14    1.00    0.34
  -2  -8 -14    1.58    0.38
  -2   8 -15   -0.25    0.24
  -2  -8 -15   -0.06    0.28
  -2   8 -16    0.50    0.34
  -2  -8 -16    0.34    0.34
   2   9 -15    0.64    0.32
   2  -9 -15    0.07    0.32
   2   9 -14   -0.10    0.25
   2  -9 -14    0.16    0.28
   2   9 -13    0.00    0.24
   2  -9 -13    0.14    0.25
  -2   9  12    4.88    0.57
   2   9 -12    5.00    0.57
   2  -9 -12    4.11    0.56
  -2   9  11    2.42    0.45
   2   9 -11    3.21    0.45
   2  -9 -11    2.82    0.46
   2   9 -10    1.55    0.34
  -2   9  10    1.54    0.37
   2   9 -10    1.11    0.32
   2  -9 -10    0.97    0.32
   2   9  -9    0.35    0.23
   2   9  -9    0.03    0.24
  -2   9   9    0.11    0.25
   2  -9  -9    0.56    0.29
   2   9  -8   -0.01    0.18
   2   9  -8   -0.17    0.22
  -2   9   8   -0.15    0.22
   2  -9  -8    0.21    0.25
   2   9  -7    1.27    0.33
   2   9  -7    1.83    0.31
  -2   9   7    2.26    0.40
   2  -9  -7    1.38    0.35
   2   9  -6    0.73    0.27
   2   9  -6    0.40    0.19
  -2   9   6    0.74    0.28
   2  -9  -6    0.27    0.24
  -2   9   5    5.44    0.56
   2   9  -5    5.19    0.53
   2   9  -5    5.70    0.46
   2  -9  -5    5.31    0.55
  -2   9   4    0.78    0.29
   2   9  -4    0.53    0.25
   2  -9  -4    0.90    0.30
   2   9  -3   -0.03    0.21
  -2   9   3   -0.50    0.16
   2  -9  -3    0.11    0.23
  -2   9   2    0.10    0.20
   2   9  -2    0.16    0.23
  -2   9   1    2.39    0.40
   2   9  -1    2.64    0.40
  -2   9   0    1.58    0.34
  -2   9   0    2.10    0.25
   2   9   0    1.82    0.36
  -2  -9   0    1.06    0.29
   2   9   1   -0.07    0.20
  -2   9  -1   -0.16    0.13
  -2   9  -1   -0.23    0.20
  -2  -9  -1   -0.06    0.20
  -2   9  -2    1.99    0.27
  -2   9  -2    1.58    0.34
   2   9   2    1.60    0.35
  -2  -9  -2    1.79    0.33
   2   9   3    2.10    0.39
  -2   9  -3    2.50    0.31
  -2   9  -3    2.28    0.37
  -2  -9  -3    2.43    0.39
   2   9   4    6.16    0.59
  -2   9  -4    6.57    0.59
  -2   9  -4    6.54    0.46
  -2  -9  -4    6.24    0.59
  -2   9  -5    6.51    0.59
  -2   9  -5    6.87    0.49
   2   9   5    6.58    0.62
  -2  -9  -5    6.94    0.62
   2   9   6    2.73    0.42
  -2   9  -6    1.98    0.37
  -2   9  -6    2.71    0.36
  -2  -9  -6    2.11    0.39
  -2   9  -7    1.11    0.28
   2   9   7    0.63    0.30
  -2   9  -7    0.78    0.28
  -2  -9  -7    1.00    0.31
  -2   9  -8    1.55    0.34
   2   9   8    1.07    0.32
  -2   9  -8    0.67    0.26
  -2  -9  -8    1.53    0.34
   2   9   9    1.06    0.32
  -2   9  -9    1.59    0.33
  -2   9  -9    1.39    0.33
  -2  -9  -9    1.18    0.32
   2   9  10    4.62    0.55
  -2   9 -10    4.19    0.52
  -2  -9 -10    3.39    0.49
   2   9  11    0.38    0.28
  -2   9 -11   -0.03    0.22
  -2  -9 -11    0.12    0.25
  -2   9 -12    0.33    0.26
  -2  -9 -12    0.32    0.27
  -2   9 -13    0.53    0.30
  -2  -9 -13    0.12    0.30
  -2   9 -14    0.16    0.28
  -2  -9 -14    0.84    0.37
  -2   9 -15    0.28    0.32
  -2  -9 -15    0.50    0.33
   2  10 -14    0.41    0.34
   2 -10 -14   -0.10    0.30
   2  10 -13    2.50    0.47
   2 -10 -13    1.86    0.43
  -2  10  12    0.27    0.31
   2  10 -12   -0.14    0.25
   2 -10 -12    0.23    0.31
  -2  10  11    0.16    0.30
   2  10 -11   -0.13    0.21
   2 -10 -11    0.37    0.29
   2  10 -10    2.20    0.40
  -2  10  10    1.49    0.39
   2  10 -10    1.40    0.37
   2 -10 -10    2.17    0.44
   2  10  -9    0.55    0.29
  -2  10   9    1.11    0.36
   2  10  -9    0.45    0.25
   2 -10  -9    1.30    0.36
   2  10  -8    2.61    0.43
  -2  10   8    3.02    0.47
   2 -10  -8    3.08    0.48
   2  10  -7   -0.12    0.24
  -2  10   7   -0.19    0.23
   2 -10  -7    0.03    0.23
   2  10  -6    0.13    0.26
  -2  10   6    0.37    0.28
   2 -10  -6    0.55    0.29
  -2  10   5    7.44    0.70
   2  10  -5    6.85    0.66
   2 -10  -5    6.82    0.67
   2  10  -4   -0.08    0.23
  -2  10   4    0.04    0.24
   2 -10  -4   -0.04    0.23
   2  10  -3    1.19    0.32
  -2  10   3    1.37    0.35
   2 -10  -3    1.90    0.40
   2  10  -2    4.62    0.53
  -2  10   2    3.70    0.51
   2 -10  -2    3.85    0.50
  -2  10   1    2.25    0.40
   2  10  -1    2.17    0.41
  -2 -10   1    2.33    0.40
  -2  10   0    5.56    0.59
   2  10   0    5.85    0.60
  -2 -10   0    6.11    0.59
  -2  10  -1    1.05    0.32
   2  10   1    1.52    0.35
  -2 -10  -1    1.52    0.35
   2  10   2    0.59    0.28
  -2  10  -2    1.04    0.32
  -2 -10  -2    0.76    0.29
  -2  10  -3    0.18    0.24
   2  10   3    0.57    0.28
  -2 -10  -3    0.65    0.29
  -2  10  -4    1.70    0.36
  -2  10  -4    2.31    0.33
   2  10   4    1.52    0.36
  -2 -10  -4    2.26    0.40
  -2  10  -5    1.89    0.36
   2  10   5    2.56    0.44
  -2  10  -5    2.38    0.35
  -2 -10  -5    1.47    0.36
  -2  10  -6   -0.14    0.22
  -2  10  -6    0.45    0.23
   2  10   6    0.05    0.27
  -2 -10  -6    0.20    0.24
  -2  10  -7    0.57    0.28
  -2  10  -7    1.78    0.34
   2  10   7    0.96    0.34
  -2 -10  -7    1.76    0.37
  -2  10  -8   -0.12    0.24
   2  10   8    0.04    0.27
  -2  10  -8    0.01    0.19
  -2 -10  -8    0.28    0.24
   2  10   9    0.53    0.33
  -2  10  -9    0.73    0.32
  -2  10  -9    0.43    0.26
  -2 -10  -9    0.40    0.28
   2  10  10    1.84    0.42
  -2  10 -10    2.05    0.39
  -2 -10 -10    2.21    0.44
  -2  10 -11    0.23    0.25
  -2 -10 -11    0.15    0.26
  -2  10 -12    1.48    0.38
  -2 -10 -12    1.29    0.40
  -2  10 -13   -0.23    0.24
  -2 -10 -13    0.69    0.34
  -2  11  12    1.15    0.42
   2 -11 -12    0.36    0.34
  -2  11  11    0.50    0.36
   2 -11 -11    1.55    0.43
  -2  11  10    0.04    0.32
   2  11 -10   -0.06    0.31
   2 -11 -10   -0.07    0.28
  -2  11   9   -0.07    0.29
   2  11  -9    0.46    0.32
   2 -11  -9    0.16    0.28
  -2  11   8    2.39    0.47
   2  11  -8    2.44    0.45
   2 -11  -8    2.64    0.47
  -2  11   7    2.29    0.47
   2  11  -7    2.18    0.43
   2 -11  -7    2.44    0.46
   2  11  -6    3.05    0.48
  -2  11   6    2.84    0.48
   2 -11  -6    1.57    0.40
   2  11  -5    1.61    0.39
  -2  11   5    0.97    0.34
   2 -11  -5    0.59    0.29
   2  11  -4    3.66    0.51
  -2  11   4    2.02    0.43
   2 -11  -4    3.21    0.49
   2  11  -3    0.18    0.27
  -2  11   3    0.09    0.27
   2 -11  -3    0.30    0.27
   2  11  -2    0.08    0.24
  -2  11   2   -0.05    0.22
  -2 -11   2    0.46    0.30
   2 -11  -2    0.46    0.30
  -2  11   1    0.72    0.31
   2  11  -1    0.63    0.30
  -2 -11   1    0.12    0.26
   2  11   0    2.16    0.42
  -2  11   0    1.95    0.41
  -2 -11   0    1.82    0.39
   2  11   1    4.51    0.57
  -2  11  -1    4.86    0.58
  -2 -11  -1    4.89    0.57
   2  11   2   -0.10    0.25
  -2  11  -2    0.37    0.27
  -2 -11  -2   -0.01    0.24
   2  11   3    7.10    0.72
  -2  11  -3    7.01    0.69
  -2 -11  -3    6.61    0.66
  -2  11  -4   -0.14    0.24
   2  11   4   -0.16    0.21
  -2 -11  -4   -0.05    0.22
   2  11   5   -0.05    0.28
  -2  11  -5   -0.01    0.26
  -2 -11  -5    0.47    0.28
  -2  11  -6   -0.28    0.24
   2  11   6   -0.19    0.27
  -2 -11  -6   -0.11    0.24
  -2  11  -7    0.81    0.35
   2  11   7    0.15    0.28
  -2 -11  -7    0.56    0.32
  -2  11  -8    0.33    0.31
   2  11   8    0.81    0.35
  -2 -11  -8    1.29    0.37
  -2  11  -9    1.89    0.40
  -2  11  -9    2.17    0.43
   2  11   9    1.41    0.41
  -2 -11  -9    1.98    0.43
   2  11  10   -0.17    0.30
  -2  11 -10   -0.06    0.22
  -2 -11 -10   -0.05    0.26
  -2  11 -11    1.45    0.39
  -2 -11 -11    1.35    0.42
  -2  11 -12    0.59    0.33
  -2 -11 -12    0.65    0.36
  -2  12  10    1.52    0.45
   2 -12 -10    1.18    0.39
   2  12  -9    0.18    0.32
  -2  12   9    0.16    0.35
   2 -12  -9    0.26    0.32
   2  12  -8    1.97    0.47
  -2  12   8    1.62    0.46
   2 -12  -8    1.72    0.44
  -2  12   7    0.84    0.37
   2  12  -7    0.19    0.32
   2 -12  -7   -0.06    0.28
   2  12  -6    4.10    0.60
  -2  12   6    5.31    0.67
   2 -12  -6    5.14    0.64
   2  12  -5    0.47    0.33
  -2  12   5    0.77    0.36
   2 -12  -5    0.53    0.33
  -2  12   4    0.81    0.35
   2  12  -4    0.35    0.31
   2 -12  -4    0.61    0.33
   2  12  -3    1.98    0.43
  -2  12   3    1.20    0.39
   2 -12  -3    1.42    0.41
  -2 -12   3    1.26    0.37
  -2  12   2    0.97    0.36
   2  12  -2    0.76    0.33
   2 -12  -2    1.08    0.37
  -2 -12   2    0.77    0.35
  -2  12   1    2.00    0.44
   2  12  -1    1.85    0.41
   2 -12  -1    1.37    0.41
  -2 -12   1    1.71    0.40
   2  12   0    2.60    0.47
  -2  12   0    1.93    0.44
  -2 -12   0    1.30    0.39
   2  12   1    1.55    0.41
  -2  12  -1    1.70    0.41
  -2 -12  -1    1.98    0.44
   2  12   2    5.38    0.66
  -2  12  -2    5.34    0.64
  -2 -12  -2    6.37    0.68
   2  12   3    1.17    0.39
  -2  12  -3    0.51    0.32
  -2 -12  -3    1.44    0.39
   2  12   4    0.26    0.34
  -2  12  -4    1.24    0.37
  -2 -12  -4    0.75    0.34
  -2  12  -5   -0.09    0.27
   2  12   5    0.06    0.30
  -2 -12  -5    0.31    0.29
  -2  12  -6   -0.23    0.26
   2  12   6   -0.08    0.30
  -2 -12  -6    0.20    0.29
  -2  12  -7   -0.07    0.30
   2  12   7    0.18    0.33
  -2 -12  -7    0.29    0.30
   2  12   8    1.38    0.43
  -2  12  -8    0.69    0.36
  -2 -12  -8    1.08    0.39
   2  12   9    0.02    0.32
  -2 -12  -9    0.14    0.32
   2  12  10    4.65    0.65
  -2 -12 -10    4.50    0.65
  -2  13   8    1.66    0.49
   2  13  -8    1.34    0.45
   2 -13  -8    1.92    0.50
   2  13  -7    7.37    0.80
  -2  13   7    8.72    0.88
   2 -13  -7    7.01    0.78
   2  13  -6    0.04    0.34
  -2  13   6   -0.17    0.30
   2 -13  -6    0.66    0.37
  -2  13   5    0.05    0.31
   2  13  -5    0.70    0.39
   2 -13  -5    0.58    0.36
  -2  13   4    0.64    0.35
   2  13  -4    0.32    0.34
  -2 -13   4    0.50    0.36
   2 -13  -4    0.61    0.37
  -2  13   3   -0.15    0.28
   2  13  -3    0.11    0.31
   2 -13  -3    0.07    0.31
  -2 -13   3   -0.44    0.25
  -2  13   2    1.05    0.40
   2  13  -2    1.62    0.45
   2 -13  -2    0.76    0.38
  -2 -13   2    1.89    0.45
  -2  13   1    0.89    0.38
   2  13  -1    0.99    0.39
   2 -13  -1    0.48    0.36
  -2 -13   1    0.27    0.31
   2  13   0    0.67    0.36
  -2  13   0    0.58    0.33
   2 -13   0   -0.17    0.32
  -2 -13   0    0.42    0.33
   2  13   1    0.84    0.38
  -2  13  -1    1.63    0.43
  -2 -13  -1    1.91    0.46
   2  13   2    1.90    0.48
  -2  13  -2    1.41    0.42
  -2 -13  -2    1.62    0.44
  -2  13  -3    1.03    0.41
   2  13   3    1.64    0.45
  -2 -13  -3    1.25    0.39
  -2  13  -4    0.31    0.36
   2  13   4    0.28    0.35
  -2 -13  -4    0.34    0.34
   2  13   5    1.20    0.43
  -2  13  -5    1.53    0.45
  -2 -13  -5    0.90    0.38
  -2  13  -6   -0.18    0.30
   2  13   6   -0.28    0.32
  -2 -13  -6    0.17    0.30
   2  13   7   -0.27    0.31
  -2  13  -7    0.07    0.34
  -2 -13  -7   -0.38    0.27
  -2  14   3    0.01    0.31
   2  14  -3   -0.29    0.32
  -2  14   2    0.36    0.35
   2  14  -2    0.68    0.40
   2 -14  -2    0.31    0.37
  -2 -14   2    0.66    0.39
  -2  14   1    0.43    0.37
   2  14  -1    0.15    0.33
  -2 -14   1   -0.43    0.31
   2 -14  -1    0.47    0.38
  -2  14   0    0.84    0.40
   2  14   0    0.83    0.40
   2 -14   0    0.53    0.38
  -2 -14   0    0.71    0.36
  -2  14  -1   -0.25    0.33
   2  14   1    0.13    0.34
  -2 -14  -1    0.45    0.37
   2 -14   1    0.43    0.36
   2  14   2    0.35    0.38
  -2  14  -2    0.56    0.38
  -2 -14  -2    0.10    0.33
   2 -14   2   -0.37    0.29
   3   0 -20    6.56    0.79
   3   0 -19    0.24    0.33
   3   0 -18    0.21    0.32
   3   0 -17   -0.12    0.23
   3   0 -16    4.65    0.59
   3   0 -16    4.44    0.46
   3   0 -15    0.24    0.20
   3   0 -15   -0.10    0.21
   3   0 -14    8.67    0.65
   3   0 -14    9.51    0.56
   3   0 -13   -0.20    0.14
   3   0 -13    0.08    0.19
   3   0 -12   21.95    1.00
   3   0 -12   22.21    0.85
   3   0 -11    0.15    0.14
  -3   0  11    0.14    0.11
   3   0 -11    0.14    0.20
   3   0 -10   28.63    0.99
   3   0 -10   28.33    1.13
  -3   0  10   30.17    0.93
   3   0  -9    0.03    0.10
  -3   0   9    0.20    0.09
   3   0  -9    0.05    0.14
   3   0  -8   14.15    0.65
  -3   0   8   14.47    0.52
   3   0  -8   13.27    0.52
  -3   0   7   -0.05    0.06
   3   0  -7   -0.01    0.11
   3   0  -7    0.14    0.08
   3   0  -6    0.71    0.11
   3   0  -6    0.60    0.15
  -3   0   5   -0.08    0.05
   3   0  -5   -0.02    0.05
   3   0  -5   -0.05    0.08
   3   0  -4   32.35    1.03
  -3   0   4   32.95    0.97
   3   0  -4   32.43    0.90
   3   0  -3    0.02    0.04
  -3   0   3    0.10    0.07
   3   0  -3    0.11    0.09
  -3   0   2  466.54   12.18
  -3   0   1   -0.01    0.05
  -3   0   0  104.99    2.79
  -3   0   0  103.79    2.87
  -3   0   0  108.18    2.83
  -3   0  -1    0.03    0.06
  -3   0  -1   -0.05    0.05
  -3   0  -1    0.05    0.06
  -3   0  -2  188.83    5.11
  -3   0  -2  190.26    5.02
  -3   0  -2  188.68    4.97
  -3   0  -3   -0.05    0.07
  -3   0  -3   -0.02    0.04
  -3   0  -3    0.04    0.07
  -3   0  -4    3.79    0.24
  -3   0  -4    3.30    0.23
  -3   0  -4    3.82    0.15
   3   0   5   -0.07    0.04
  -3   0  -5   -0.04    0.07
  -3   0  -5   -0.02    0.09
  -3   0  -6   12.52    0.54
  -3   0  -6   12.57    0.54
  -3   0  -7    0.03    0.11
  -3   0  -7   -0.01    0.10
  -3   0  -8    0.00    0.10
  -3   0  -8    0.00    0.11
  -3   0  -9    0.07    0.14
  -3   0  -9   -0.25    0.11
  -3   0 -10   60.59    1.92
  -3   0 -10   58.97    1.94
  -3   0 -11    0.24    0.18
  -3   0 -11   -0.09    0.17
  -3   0 -12    5.06    0.49
  -3   0 -12    4.92    0.49
  -3   0 -13   -0.07    0.16
  -3   0 -13   -0.11    0.18
  -3   0 -14    3.01    0.44
  -3   0 -14    2.88    0.41
  -3   0 -15   -0.38    0.18
  -3   0 -15   -0.14    0.22
  -3   0 -16    2.49    0.42
  -3   0 -16    2.95    0.47
  -3   0 -17    0.04    0.25
  -3   0 -17    0.01    0.24
  -3   0 -18    6.88    0.73
  -3   0 -18    7.33    0.73
  -3   0 -19    0.59    0.34
  -3   0 -19    0.13    0.30
   3   1 -20    0.02    0.34
   3  -1 -20    0.40    0.40
   3   1 -19    1.49    0.43
   3  -1 -19    1.63    0.45
   3   1 -18   -0.08    0.30
   3  -1 -18    0.19    0.33
   3   1 -17    0.47    0.31
   3  -1 -17    0.20    0.29
   3   1 -16    0.03    0.25
   3  -1 -16   -0.13    0.21
   3  -1 -16   -0.35    0.22
   3   1 -15   -0.24    0.21
   3   1 -15    0.15    0.19
   3  -1 -15   -0.11    0.21
   3  -1 -15   -0.01    0.18
   3   1 -14    0.20    0.23
   3   1 -14    0.09    0.18
   3  -1 -14    0.12    0.17
   3  -1 -14   -0.19    0.21
   3   1 -13    5.65    0.41
   3   1 -13    5.19    0.54
   3  -1 -13    6.02    0.42
   3  -1 -13    4.73    0.52
   3   1 -12    3.36    0.34
   3   1 -12    3.65    0.44
   3  -1 -12    3.51    0.36
   3  -1 -12    3.08    0.42
   3   1 -11   18.50    0.85
  -3   1  11   16.48    0.62
   3   1 -11   16.22    0.68
   3   1 -11   17.27    0.62
   3  -1 -11   16.27    0.82
   3  -1 -11   17.94    0.71
   3   1 -10    4.28    0.27
   3   1 -10    4.11    0.33
  -3   1  10    4.01    0.27
   3   1 -10    4.05    0.43
  -3  -1  10    3.74    0.25
   3  -1 -10    4.18    0.31
   3  -1 -10    4.45    0.43
  -3   1   9    0.06    0.09
   3   1  -9    0.04    0.15
   3  -1  -9    0.15    0.13
   3  -1  -9    0.14    0.17
  -3  -1   9    0.12    0.09
   3   1  -8    3.41    0.23
   3   1  -8    2.60    0.31
  -3   1   8    2.94    0.21
  -3  -1   8    2.93    0.21
   3  -1  -8    3.03    0.26
   3  -1  -8    3.15    0.32
  -3   1   7    0.63    0.11
   3   1  -7    0.29    0.14
   3   1  -7    0.26    0.09
   3  -1  -7    0.82    0.14
   3  -1  -7    0.50    0.16
  -3  -1   7    0.24    0.09
   3   1  -6    3.36    0.19
  -3   1   6    3.77    0.22
   3   1  -6    3.74    0.28
   3  -1  -6    3.12    0.28
  -3  -1   6    3.78    0.21
   3  -1  -6    3.51    0.21
   3   1  -5    0.21    0.11
  -3   1   5    0.22    0.08
   3   1  -5    0.26    0.07
   3  -1  -5    0.43    0.09
  -3  -1   5    0.39    0.09
   3  -1  -5    0.41    0.12
   3   1  -4   -0.01    0.08
  -3   1   4    0.08    0.07
   3  -1  -4    0.03    0.08
   3  -1  -4    0.05    0.06
  -3  -1   4    0.01    0.06
  -3   1   3    2.41    0.17
   3   1  -3    2.52    0.19
  -3  -1   3    2.30    0.16
   3  -1  -3    2.33    0.15
   3   1  -2    3.76    0.21
  -3   1   2    3.62    0.21
  -3  -1   2    3.61    0.20
  -3  -1   2    3.82    0.13
  -3   1   1   64.14    1.78
  -3  -1   1   65.26    1.72
  -3  -1   1   64.24    1.78
  -3   1   0    0.39    0.09
  -3   1   0    0.37    0.08
  -3  -1   0    0.43    0.07
  -3  -1   0    0.31    0.08
  -3   1  -1    4.02    0.19
   3   1   1    3.41    0.19
  -3  -1  -1    3.67    0.19
  -3  -1  -1    3.74    0.17
  -3  -1  -1    3.83    0.20
  -3   1  -2    2.90    0.19
  -3   1  -2    2.89    0.20
   3   1   2    2.89    0.17
  -3   1  -2    2.87    0.16
  -3  -1  -2    3.01    0.19
  -3  -1  -2    2.78    0.16
  -3   1  -3    0.92    0.09
  -3   1  -3    0.86    0.13
  -3   1  -3    0.60    0.12
   3   1   3    1.00    0.11
  -3  -1  -3    0.72    0.12
  -3   1  -4   14.31    0.43
   3   1   4   14.15    0.45
  -3   1  -4   14.16    0.54
  -3   1  -4   14.32    0.55
  -3  -1  -4   14.04    0.54
  -3  -1  -4   14.06    0.51
  -3   1  -5   11.55    0.50
  -3   1  -5   11.61    0.35
   3   1   5   11.24    0.37
  -3   1  -5   11.40    0.48
  -3  -1  -5   10.88    0.48
  -3  -1  -5   10.98    0.46
  -3   1  -6   23.48    0.84
  -3   1  -6   24.75    0.87
   3   1   6   22.92    0.68
  -3  -1  -6   23.47    0.84
  -3  -1  -6   23.80    0.82
  -3   1  -7   10.73    0.54
  -3   1  -7   11.92    0.54
  -3  -1  -7   11.23    0.53
  -3  -1  -7   11.10    0.51
  -3   1  -8    7.85    0.47
  -3   1  -8    8.30    0.46
  -3  -1  -8    7.90    0.43
  -3  -1  -8    6.74    0.43
  -3   1  -9   12.93    0.65
  -3   1  -9   13.26    0.63
  -3  -1  -9   12.97    0.62
  -3  -1  -9   12.73    0.62
  -3   1 -10    0.28    0.16
  -3   1 -10    0.00    0.15
  -3  -1 -10   -0.13    0.16
  -3  -1 -10    0.19    0.16
  -3   1 -11    0.13    0.17
  -3   1 -11    0.26    0.19
  -3  -1 -11   -0.01    0.16
  -3  -1 -11   -0.06    0.15
  -3   1 -12    0.09    0.19
  -3   1 -12    0.10    0.19
  -3  -1 -12    0.01    0.17
  -3  -1 -12    0.11    0.19
  -3   1 -13    0.17    0.20
  -3   1 -13   -0.05    0.16
  -3  -1 -13    0.09    0.18
  -3  -1 -13   -0.04    0.17
  -3   1 -14   -0.19    0.19
  -3   1 -14    0.13    0.21
  -3  -1 -14    0.12    0.22
  -3  -1 -14   -0.18    0.18
  -3   1 -15    0.78    0.30
  -3   1 -15    0.85    0.29
  -3  -1 -15    0.93    0.31
  -3  -1 -15    1.04    0.30
  -3   1 -16    0.24    0.27
  -3   1 -16    0.68    0.29
  -3  -1 -16    0.46    0.27
  -3  -1 -16    0.54    0.28
  -3   1 -17    4.11    0.55
  -3   1 -17    3.70    0.53
  -3  -1 -17    2.88    0.47
  -3  -1 -17    2.15    0.44
  -3   1 -18    0.62    0.34
  -3  -1 -18    0.26    0.31
  -3  -1 -18    0.63    0.34
  -3   1 -19    2.03    0.49
  -3  -1 -19    2.27    0.48
  -3  -1 -19    1.98    0.44
   3   2 -20    0.12    0.31
   3  -2 -20    0.34    0.38
   3   2 -19    3.47    0.58
   3  -2 -19    3.46    0.58
   3   2 -18    0.16    0.29
   3  -2 -18   -0.02    0.29
   3   2 -17    7.25    0.74
   3  -2 -17    7.23    0.63
   3  -2 -17    7.53    0.74
   3   2 -16   -0.39    0.21
   3  -2 -16    0.25    0.27
   3  -2 -16    0.27    0.22
   3   2 -15    0.38    0.27
   3  -2 -15    0.69    0.24
   3  -2 -15    0.65    0.29
   3   2 -14    0.38    0.23
   3  -2 -14    0.86    0.24
   3  -2 -14    0.79    0.29
   3   2 -13    0.58    0.24
   3  -2 -13    0.63    0.21
   3  -2 -13    0.44    0.24
  -3   2  12    7.49    0.39
   3   2 -12    7.55    0.57
   3  -2 -12    7.50    0.47
   3  -2 -12    7.75    0.56
   3   2 -11    0.13    0.12
  -3   2  11   -0.10    0.11
   3   2 -11    0.44    0.23
   3  -2 -11    0.41    0.21
   3  -2 -11    0.09    0.16
   3   2 -10    9.81    0.59
  -3   2  10    9.94    0.45
   3   2 -10   10.41    0.45
   3  -2 -10    9.89    0.57
   3  -2 -10    9.70    0.50
   3   2  -9    2.35    0.23
  -3   2   9    2.76    0.25
   3   2  -9    3.29    0.36
   3  -2  -9    2.28    0.29
   3  -2  -9    2.90    0.28
   3   2  -8    1.18    0.16
   3   2  -8    0.70    0.18
  -3   2   8    0.85    0.15
   3  -2  -8    0.67    0.15
   3  -2  -8    0.83    0.20
  -3   2   7   12.93    0.51
   3   2  -7   12.25    0.59
   3   2  -7   12.63    0.50
   3  -2  -7   13.59    0.52
   3  -2  -7   12.57    0.57
   3   2  -6   -0.09    0.10
  -3   2   6   -0.11    0.08
   3   2  -6    0.07    0.09
   3  -2  -6   -0.07    0.10
   3  -2  -6   -0.03    0.08
  -3   2   5   23.27    0.78
   3   2  -5   24.61    0.84
   3   2  -5   23.91    0.78
   3  -2  -5   23.98    0.82
   3  -2  -5   23.20    0.77
   3   2  -4    5.51    0.28
   3   2  -4    5.13    0.30
  -3   2   4    5.53    0.29
   3  -2  -4    5.57    0.27
   3  -2  -4    5.69    0.29
   3   2  -3   20.36    0.69
   3   2  -3   20.92    0.70
  -3   2   3   21.64    0.70
  -3   2   2   21.07    0.71
   3   2  -2   22.26    0.69
   3   2  -2   22.02    0.71
  -3   2   1    5.29    0.26
  -3   2   1    5.47    0.28
   3   2  -1    4.99    0.22
   3   2  -1    5.21    0.27
  -3  -2   1    4.96    0.22
  -3   2   0   12.43    0.45
   3   2   0   11.61    0.45
  -3   2   0   12.80    0.46
  -3  -2   0   12.47    0.42
   3   2   1   66.15    1.88
  -3   2  -1   66.80    1.92
  -3   2  -1   69.45    1.88
  -3  -2  -1   66.75    1.87
  -3  -2  -1   67.95    1.83
   3   2   2    1.26    0.14
  -3   2  -2    0.65    0.12
  -3   2  -2    0.64    0.10
  -3  -2  -2    0.89    0.13
  -3  -2  -2    0.93    0.08
   3   2   3   19.38    0.64
  -3   2  -3   19.49    0.69
  -3   2  -3   19.58    0.62
  -3  -2  -3   19.96    0.68
  -3  -2  -3   20.06    0.61
  -3   2  -4    6.21    0.27
   3   2   4    6.58    0.29
  -3   2  -4    6.39    0.34
  -3  -2  -4    6.66    0.28
  -3  -2  -4    6.37    0.33
  -3   2  -5    2.80    0.27
   3   2   5    3.07    0.20
  -3   2  -5    3.18    0.18
  -3  -2  -5    3.07    0.27
  -3  -2  -5    2.98    0.21
   3   2   6   41.92    1.18
  -3   2  -6   37.81    1.31
  -3   2  -6   40.20    1.13
  -3  -2  -6   40.37    1.30
  -3  -2  -6   40.87    1.25
  -3   2  -7   13.69    0.61
  -3   2  -7   12.83    0.41
   3   2   7   12.24    0.45
  -3   2  -7   12.95    0.58
  -3  -2  -7   12.36    0.58
  -3  -2  -7   13.38    0.55
  -3   2  -8    4.78    0.40
   3   2   8    3.87    0.22
  -3   2  -8    4.02    0.38
  -3  -2  -8    3.82    0.33
  -3  -2  -8    4.69    0.40
   3   2   9    0.27    0.10
  -3   2  -9    0.30    0.17
  -3   2  -9    0.14    0.15
  -3  -2  -9    0.34    0.16
  -3  -2  -9    0.51    0.19
  -3   2 -10   10.89    0.64
  -3   2 -10   11.53    0.64
  -3  -2 -10   13.11    0.63
  -3  -2 -10   12.14    0.64
  -3   2 -11    1.15    0.27
  -3   2 -11    1.38    0.28
  -3  -2 -11    0.85    0.23
  -3  -2 -11    1.18    0.26
  -3   2 -12    2.05    0.34
  -3   2 -12    1.90    0.33
  -3  -2 -12    1.93    0.32
  -3  -2 -12    1.60    0.30
  -3   2 -13    1.01    0.27
  -3   2 -13    1.06    0.29
  -3  -2 -13    0.70    0.25
  -3  -2 -13    0.50    0.22
  -3   2 -14   -0.04    0.21
  -3  -2 -14    0.09    0.21
  -3  -2 -14   -0.12    0.17
  -3   2 -15    0.70    0.27
  -3  -2 -15    0.38    0.25
  -3  -2 -15    0.83    0.29
  -3   2 -16    0.46    0.29
  -3  -2 -16    0.45    0.27
  -3  -2 -16   -0.11    0.24
  -3   2 -17    0.27    0.28
  -3  -2 -17    0.01    0.25
  -3  -2 -17    0.29    0.28
  -3   2 -18    0.14    0.29
  -3  -2 -18    0.27    0.30
  -3  -2 -18    0.20    0.29
  -3   2 -19    1.82    0.43
  -3  -2 -19    2.65    0.48
  -3  -2 -19    2.29    0.48
   3   3 -19    0.29    0.33
   3  -3 -19    0.06    0.31
   3   3 -18    1.68    0.42
   3  -3 -18    1.99    0.44
   3   3 -17   -0.17    0.26
   3  -3 -17   -0.02    0.27
   3  -3 -17   -0.25    0.22
   3   3 -16    6.13    0.67
   3  -3 -16    6.07    0.63
   3  -3 -16    5.57    0.56
   3   3 -15    0.24    0.24
   3  -3 -15   -0.05    0.24
   3  -3 -15    0.35    0.23
   3   3 -14    0.08    0.22
   3  -3 -14    0.38    0.24
   3  -3 -14   -0.06    0.19
   3   3 -13    2.28    0.39
   3  -3 -13    2.84    0.36
   3  -3 -13    2.32    0.37
   3   3 -12    0.17    0.19
  -3   3  12   -0.04    0.13
   3  -3 -12   -0.24    0.15
   3  -3 -12    0.35    0.21
  -3   3  11    0.12    0.13
   3   3 -11    0.57    0.16
   3   3 -11    0.08    0.17
   3  -3 -11    0.50    0.22
   3  -3 -11   -0.34    0.12
   3   3 -10    0.35    0.14
  -3   3  10    0.50    0.16
   3   3 -10   -0.06    0.15
   3  -3 -10    0.27    0.18
   3  -3 -10    0.45    0.17
  -3   3   9    2.11    0.24
   3   3  -9    1.61    0.27
   3   3  -9    1.97    0.22
   3  -3  -9    1.88    0.26
   3  -3  -9    2.15    0.29
   3   3  -8   12.64    0.52
   3   3  -8   12.74    0.62
  -3   3   8   12.81    0.55
   3  -3  -8   12.09    0.55
   3  -3  -8   11.95    0.58
  -3   3   7    3.79    0.28
   3   3  -7    3.53    0.26
   3   3  -7    3.93    0.35
   3  -3  -7    2.91    0.30
   3  -3  -7    3.64    0.27
   3   3  -6    4.36    0.27
  -3   3   6    4.71    0.30
   3   3  -6    4.57    0.33
   3  -3  -6    4.38    0.31
   3  -3  -6    4.57    0.30
   3   3  -5    7.86    0.40
   3   3  -5    7.69    0.37
  -3   3   5    7.30    0.38
   3  -3  -5    8.27    0.39
   3  -3  -5    8.08    0.39
   3   3  -4   13.24    0.52
   3   3  -4   13.12    0.52
  -3   3   4   13.48    0.53
   3  -3  -4   12.14    0.51
   3   3  -3    4.32    0.27
  -3   3   3    3.89    0.26
   3   3  -3    4.34    0.25
  -3   3   2    9.82    0.43
   3   3  -2   10.17    0.39
   3   3  -2   10.29    0.43
   3   3  -1   22.36    0.76
   3   3  -1   22.74    0.68
  -3   3   1   21.90    0.74
  -3   3   1   22.69    0.77
  -3  -3   1   22.99    0.72
   3   3   0    5.19    0.29
  -3   3   0    4.87    0.28
   3   3   0    4.73    0.18
  -3   3   0    5.32    0.27
  -3  -3   0    4.84    0.25
  -3   3  -1    3.33    0.22
   3   3   1    3.08    0.23
  -3   3  -1    2.94    0.24
  -3  -3  -1    3.01    0.21
  -3   3  -2   29.85    0.94
  -3   3  -2   29.42    0.97
   3   3   2   29.83    0.95
  -3  -3  -2   30.41    0.95
   3   3   3    0.26    0.11
  -3   3  -3    0.39    0.12
  -3   3  -3    0.53    0.12
  -3  -3  -3    0.42    0.12
  -3  -3  -3    0.40    0.06
  -3   3  -4   57.93    1.65
  -3   3  -4   58.73    1.77
   3   3   4   56.72    1.68
  -3  -3  -4   58.85    1.62
  -3  -3  -4   55.97    1.72
  -3   3  -5   62.89    1.92
   3   3   5   61.44    1.81
  -3   3  -5   62.99    1.77
  -3  -3  -5   63.86    1.79
  -3  -3  -5   61.80    1.88
   3   3   6    9.06    0.41
  -3   3  -6    9.36    0.38
  -3   3  -6    8.51    0.47
  -3  -3  -6    9.57    0.48
  -3  -3  -6    9.29    0.40
  -3   3  -7    5.65    0.39
  -3   3  -7    5.64    0.28
   3   3   7    6.44    0.33
  -3  -3  -7    5.64    0.38
  -3  -3  -7    5.95    0.33
  -3   3  -8    5.04    0.44
  -3   3  -8    4.23    0.24
   3   3   8    4.61    0.29
  -3  -3  -8    4.63    0.31
  -3  -3  -8    3.59    0.37
   3   3   9    4.82    0.30
  -3   3  -9    5.44    0.48
  -3  -3  -9    5.01    0.46
  -3  -3  -9    4.71    0.34
  -3   3 -10    3.10    0.39
  -3  -3 -10    3.74    0.40
  -3  -3 -10    2.97    0.33
  -3   3 -11    6.00    0.54
  -3  -3 -11    5.97    0.53
  -3  -3 -11    6.23    0.44
  -3   3 -12    1.08    0.29
  -3  -3 -12    1.00    0.27
  -3  -3 -12    0.76    0.23
  -3   3 -13    2.00    0.37
  -3  -3 -13    2.55    0.39
  -3  -3 -13    2.33    0.35
  -3   3 -14   -0.38    0.17
  -3  -3 -14    0.20    0.22
  -3  -3 -14   -0.24    0.19
  -3   3 -15    1.28    0.35
  -3  -3 -15    0.96    0.31
  -3  -3 -15    0.86    0.29
  -3   3 -16    1.75    0.40
  -3  -3 -16    2.23    0.43
  -3  -3 -16    1.98    0.40
  -3   3 -17    1.02    0.37
  -3  -3 -17    1.08    0.35
  -3  -3 -17    0.41    0.30
  -3   3 -18    3.29    0.56
  -3  -3 -18    4.08    0.58
  -3   3 -19    0.14    0.31
  -3  -3 -19    0.04    0.28
   3   4 -19    1.31    0.43
   3  -4 -19    1.32    0.42
   3   4 -18    0.31    0.29
   3  -4 -18    0.23    0.34
   3   4 -17    0.17    0.25
   3  -4 -17    0.65    0.33
   3  -4 -17    0.23    0.27
   3   4 -16    0.19    0.24
   3  -4 -16    0.12    0.24
   3  -4 -16    0.06    0.25
   3   4 -15    1.26    0.34
   3  -4 -15    1.15    0.31
   3  -4 -15    0.96    0.32
   3   4 -14    5.78    0.61
   3  -4 -14    6.52    0.58
   3  -4 -14    5.84    0.58
   3   4 -13    1.66    0.36
   3  -4 -13    1.57    0.33
   3  -4 -13    1.54    0.30
  -3   4  12    0.33    0.17
   3   4 -12    0.46    0.23
   3  -4 -12    0.54    0.21
   3  -4 -12    0.54    0.24
   3   4 -11    0.28    0.16
  -3   4  11    0.33    0.17
   3   4 -11    0.37    0.22
   3  -4 -11    0.09    0.17
   3  -4 -11    0.00    0.18
  -3   4  10   31.88    1.10
   3   4 -10   31.50    1.06
   3   4 -10   27.71    1.18
   3  -4 -10   33.11    1.15
   3  -4 -10   29.64    1.15
   3   4  -9    3.34    0.31
  -3   4   9    2.68    0.30
   3   4  -9    3.48    0.38
   3  -4  -9    3.56    0.36
   3  -4  -9    3.56    0.36
   3   4  -8    0.08    0.14
  -3   4   8    0.23    0.16
   3   4  -8    0.18    0.17
   3  -4  -8    0.02    0.14
   3   4  -7    0.11    0.13
   3   4  -7   -0.12    0.10
  -3   4   7    0.11    0.13
   3  -4  -7   -0.06    0.13
   3  -4  -7    0.02    0.13
  -3   4   6    0.53    0.15
   3   4  -6    0.45    0.15
   3   4  -6    0.65    0.16
   3  -4  -6    0.37    0.16
   3  -4  -6    0.69    0.16
   3   4  -5    1.26    0.19
  -3   4   5    1.68    0.23
   3   4  -5    1.77    0.22
   3  -4  -5    1.74    0.23
   3  -4  -5    1.52    0.20
  -3   4   4    4.79    0.33
   3   4  -4    4.31    0.29
   3   4  -4    4.14    0.30
   3  -4  -4    4.64    0.31
  -3   4   3    0.13    0.12
   3   4  -3    0.24    0.13
   3   4  -3    0.10    0.09
   3   4  -2   49.55    1.44
   3   4  -2   52.15    1.54
  -3   4   2   47.98    1.52
   3   4  -1   70.13    1.92
  -3   4   1   69.44    2.00
  -3   4   1   65.55    2.02
   3   4  -1   71.32    2.03
   3   4   0    1.13    0.08
   3   4   0    1.23    0.19
  -3   4   0    1.61    0.17
  -3   4   0    1.26    0.19
  -3  -4   0    1.22    0.17
  -3   4  -1    1.23    0.19
   3   4   1    1.12    0.18
  -3   4  -1    0.86    0.15
  -3  -4  -1    1.19    0.18
   3   4   2    0.35    0.14
  -3   4  -2    0.25    0.12
  -3   4  -2    0.30    0.11
  -3  -4  -2    0.41    0.13
  -3   4  -3   38.13    1.20
   3   4   3   38.00    1.22
  -3   4  -3   39.71    1.25
  -3  -4  -3   36.68    1.22
  -3   4  -4    0.03    0.11
  -3   4  -4    0.11    0.11
   3   4   4    0.26    0.14
  -3  -4  -4    0.11    0.06
  -3  -4  -4    0.20    0.13
   3   4   5   12.67    0.55
  -3   4  -5   11.96    0.51
  -3   4  -5   12.43    0.58
  -3  -4  -5   12.72    0.44
  -3  -4  -5   11.94    0.57
  -3   4  -6    0.22    0.13
   3   4   6    0.05    0.13
  -3   4  -6    0.12    0.13
  -3  -4  -6    0.10    0.13
  -3  -4  -6   -0.01    0.08
  -3   4  -7    1.96    0.22
  -3   4  -7    1.67    0.28
   3   4   7    1.89    0.24
  -3  -4  -7    1.67    0.27
  -3   4  -8   28.25    0.92
  -3   4  -8   28.41    1.12
   3   4   8   28.62    0.98
  -3  -4  -8   28.92    0.97
  -3  -4  -8   28.69    1.10
  -3   4  -9    0.02    0.18
  -3   4  -9    0.69    0.15
   3   4   9    0.88    0.19
  -3  -4  -9    0.44    0.20
  -3  -4  -9    0.56    0.17
   3   4  10    5.17    0.36
  -3   4 -10    5.59    0.51
  -3  -4 -10    6.00    0.54
  -3  -4 -10    6.60    0.41
  -3   4 -11    3.74    0.45
  -3  -4 -11    4.60    0.40
  -3  -4 -11    3.29    0.42
  -3   4 -12    0.51    0.23
  -3  -4 -12    0.74    0.26
  -3  -4 -12    0.58    0.22
  -3   4 -13    3.25    0.46
  -3  -4 -13    4.23    0.49
  -3  -4 -13    4.13    0.43
  -3   4 -14    0.13    0.20
  -3  -4 -14    0.39    0.23
  -3  -4 -14    0.17    0.25
  -3   4 -15    0.79    0.30
  -3  -4 -15    1.23    0.34
  -3   4 -16    0.43    0.30
  -3  -4 -16    0.31    0.29
  -3   4 -17   -0.06    0.28
  -3  -4 -17    0.14    0.28
  -3   4 -18    0.32    0.34
  -3  -4 -18    0.11    0.29
   3   5 -19    0.59    0.38
   3   5 -18    1.54    0.44
   3  -5 -18    1.77    0.44
   3   5 -17    0.62    0.31
   3  -5 -17    0.23    0.29
   3  -5 -17    0.43    0.30
   3   5 -16    0.60    0.30
   3  -5 -16    0.57    0.34
   3  -5 -16    0.71    0.30
   3   5 -15    0.78    0.32
   3  -5 -15    0.78    0.29
   3  -5 -15    0.64    0.31
   3   5 -14    1.22    0.35
   3  -5 -14    1.94    0.37
   3  -5 -14    2.43    0.39
   3   5 -13    2.84    0.43
   3  -5 -13    3.54    0.45
   3  -5 -13    2.75    0.41
  -3   5  12   -0.11    0.15
   3   5 -12    0.27    0.20
   3  -5 -12   -0.05    0.19
   3  -5 -12    0.12    0.20
   3   5 -11    8.13    0.47
   3   5 -11    7.03    0.54
  -3   5  11    8.05    0.51
   3  -5 -11    8.70    0.55
   3  -5 -11    8.06    0.53
   3   5 -10    2.77    0.32
   3   5 -10    2.26    0.35
  -3   5  10    1.86    0.29
   3  -5 -10    1.78    0.32
   3  -5 -10    2.12    0.32
   3   5  -9   11.42    0.56
  -3   5   9   10.61    0.58
   3   5  -9   11.31    0.63
   3  -5  -9   10.81    0.57
   3  -5  -9   10.24    0.58
   3   5  -8    1.89    0.27
  -3   5   8    1.47    0.27
   3   5  -8    2.12    0.30
   3  -5  -8    1.81    0.29
   3  -5  -8    2.12    0.28
   3   5  -7   -0.03    0.13
  -3   5   7    0.13    0.16
   3   5  -7    0.18    0.16
   3  -5  -7    0.07    0.14
   3  -5  -7    0.18    0.16
   3   5  -6    5.89    0.38
  -3   5   6    6.38    0.41
   3   5  -6    4.90    0.36
   3  -5  -6    4.88    0.34
   3  -5  -6    5.38    0.39
  -3   5   5    4.43    0.39
   3   5  -5    4.19    0.37
   3   5  -5    4.58    0.32
   3  -5  -5    4.41    0.38
   3   5  -4    5.26    0.32
   3   5  -4    5.32    0.37
  -3   5   4    5.53    0.39
   3  -5  -4    6.22    0.40
  -3   5   3   15.81    0.68
   3   5  -3   16.83    0.69
   3   5  -3   16.31    0.60
  -3   5   2   11.65    0.49
   3   5  -2   11.95    0.56
  -3   5   2   13.35    0.59
   3   5  -2   12.12    0.46
  -3   5   1    1.01    0.20
   3   5  -1    1.42    0.13
   3   5  -1    1.27    0.21
  -3   5   1    1.51    0.18
  -3   5   0    4.22    0.35
  -3   5   0    3.45    0.25
   3   5   0    3.37    0.15
   3   5   0    3.52    0.33
  -3  -5   0    3.63    0.31
  -3   5  -1   26.91    0.92
   3   5   1   25.72    0.97
  -3   5  -1   27.71    0.97
  -3  -5  -1   28.01    0.95
  -3   5  -2    0.13    0.10
   3   5   2    0.23    0.15
  -3   5  -2    0.45    0.15
  -3  -5  -2   -0.01    0.12
   3   5   3    6.47    0.41
  -3   5  -3    5.72    0.37
  -3   5  -3    5.96    0.38
  -3  -5  -3    6.63    0.40
   3   5   4   27.14    0.99
  -3   5  -4   27.56    0.96
  -3   5  -4   27.13    1.00
  -3  -5  -4   27.71    1.00
  -3   5  -5    0.11    0.13
  -3   5  -5    0.25    0.15
   3   5   5   -0.17    0.15
  -3  -5  -5   -0.05    0.12
  -3  -5  -5    0.07    0.06
  -3   5  -6    0.17    0.15
   3   5   6   -0.27    0.14
  -3   5  -6   -0.09    0.13
  -3  -5  -6   -0.08    0.08
  -3  -5  -6    0.00    0.15
  -3   5  -7    3.72    0.39
   3   5   7    4.16    0.38
  -3   5  -7    3.68    0.32
  -3  -5  -7    3.85    0.40
  -3  -5  -7    3.85    0.25
  -3   5  -8    4.21    0.43
   3   5   8    3.64    0.36
  -3   5  -8    4.31    0.34
  -3  -5  -8    3.59    0.27
  -3  -5  -8    4.19    0.43
   3   5   9   18.95    0.81
  -3   5  -9   21.62    0.77
  -3   5  -9   19.38    0.93
  -3  -5  -9   22.27    0.79
  -3  -5  -9   21.08    0.93
  -3   5 -10    0.99    0.26
   3   5  10    1.00    0.23
  -3  -5 -10    1.58    0.23
  -3  -5 -10    1.32    0.30
  -3   5 -11    0.88    0.26
  -3  -5 -11    0.48    0.23
  -3   5 -12   12.66    0.79
  -3  -5 -12   14.14    0.80
  -3   5 -13    0.18    0.22
  -3  -5 -13    0.04    0.21
  -3   5 -14    0.79    0.28
  -3  -5 -14    0.56    0.28
  -3   5 -15    1.09    0.35
  -3  -5 -15    1.77    0.39
  -3   5 -16    0.58    0.30
  -3  -5 -16    0.37    0.29
  -3   5 -17    4.27    0.62
  -3  -5 -17    4.28    0.60
  -3   5 -18    0.65    0.36
  -3  -5 -18    1.29    0.40
   3   6 -18    0.88    0.36
   3  -6 -18    0.92    0.39
   3   6 -17    0.30    0.31
   3  -6 -17    0.42    0.33
   3   6 -16    0.03    0.27
   3  -6 -16    0.95    0.36
   3   6 -15   -0.10    0.23
   3  -6 -15   -0.13    0.23
   3   6 -14    0.28    0.26
   3  -6 -14    1.05    0.31
   3  -6 -14    0.89    0.30
   3   6 -13    0.46    0.25
   3  -6 -13    0.74    0.28
   3  -6 -13    0.24    0.26
   3   6 -12    0.57    0.22
  -3   6  12    0.22    0.20
   3  -6 -12    0.18    0.22
   3  -6 -12    0.36    0.24
   3   6 -11    1.37    0.28
  -3   6  11    1.02    0.27
   3   6 -11    0.70    0.24
   3  -6 -11    0.79    0.27
   3  -6 -11    1.41    0.29
   3   6 -10    5.86    0.49
  -3   6  10    5.63    0.50
   3   6 -10    6.56    0.56
   3  -6 -10    6.09    0.45
   3  -6 -10    6.65    0.57
  -3   6   9    1.55    0.30
   3   6  -9    1.49    0.29
   3   6  -9    1.74    0.30
   3  -6  -9    1.68    0.31
   3  -6  -9    1.93    0.28
   3   6  -8   -0.09    0.17
   3   6  -8    0.01    0.16
  -3   6   8    0.20    0.19
   3  -6  -8    0.07    0.18
   3  -6  -8    0.13    0.17
   3   6  -7    1.89    0.30
  -3   6   7    1.60    0.29
   3   6  -7    2.30    0.30
   3  -6  -7    2.21    0.28
   3  -6  -7    2.12    0.32
  -3   6   6    0.81    0.23
   3   6  -6    0.56    0.22
   3   6  -6    0.24    0.15
   3  -6  -6    0.05    0.14
   3  -6  -6    0.29    0.20
   3   6  -5    1.91    0.25
   3   6  -5    1.83    0.29
  -3   6   5    2.43    0.32
   3  -6  -5    1.37    0.27
   3   6  -4    0.54    0.14
   3   6  -4    0.50    0.19
  -3   6   4   -0.07    0.16
   3  -6  -4    0.52    0.19
  -3   6   3    0.44    0.20
   3   6  -3    0.62    0.21
   3   6  -3    0.88    0.15
  -3   6   2   11.67    0.51
   3   6  -2   12.51    0.47
   3   6  -2   12.88    0.62
  -3   6   2   12.63    0.63
  -3   6   1    1.74    0.20
   3   6  -1    1.75    0.15
  -3   6   1    1.59    0.26
   3   6  -1    2.07    0.29
  -3   6   0    3.81    0.28
  -3   6   0    4.15    0.38
   3   6   0    3.14    0.35
   3   6   0    3.10    0.15
  -3  -6   0    3.46    0.34
  -3   6  -1    2.33    0.30
   3   6   1    2.10    0.30
  -3   6  -1    2.98    0.28
  -3  -6  -1    2.49    0.29
  -3   6  -2    0.50    0.19
  -3   6  -2    0.53    0.15
   3   6   2    0.31    0.18
  -3  -6  -2    0.57    0.19
  -3   6  -3    0.19    0.17
   3   6   3   -0.24    0.11
  -3   6  -3    0.14    0.12
  -3  -6  -3    0.13    0.15
  -3   6  -4    2.91    0.33
  -3   6  -4    2.61    0.30
   3   6   4    3.19    0.36
  -3  -6  -4    3.27    0.36
  -3   6  -5    1.54    0.26
   3   6   5    1.57    0.28
  -3   6  -5    1.42    0.25
  -3  -6  -5    1.36    0.27
   3   6   6   14.68    0.71
  -3   6  -6   14.66    0.66
  -3   6  -6   13.99    0.70
  -3  -6  -6   13.59    0.70
  -3   6  -7    3.14    0.36
   3   6   7    2.56    0.35
  -3   6  -7    2.86    0.32
  -3  -6  -7    2.97    0.38
  -3   6  -8    5.08    0.49
   3   6   8    5.29    0.47
  -3   6  -8    5.63    0.41
  -3  -6  -8    5.69    0.53
  -3   6  -9   -0.04    0.19
  -3   6  -9    0.44    0.19
   3   6   9    0.18    0.20
  -3  -6  -9    0.62    0.24
   3   6  10    3.50    0.38
  -3   6 -10    3.25    0.43
  -3  -6 -10    3.70    0.46
  -3   6 -11    2.26    0.38
  -3  -6 -11    2.10    0.38
  -3   6 -12    2.50    0.42
  -3  -6 -12    2.34    0.41
  -3   6 -13   -0.13    0.18
  -3  -6 -13   -0.05    0.20
  -3   6 -14    0.07    0.22
  -3  -6 -14    0.12    0.23
  -3   6 -15    0.27    0.28
  -3  -6 -15   -0.46    0.22
  -3   6 -16    0.52    0.32
  -3  -6 -16    0.70    0.34
  -3   6 -17    2.90    0.55
  -3  -6 -17    2.04    0.46
   3   7 -17    0.27    0.29
   3  -7 -17   -0.33    0.27
   3   7 -16    0.88    0.35
   3  -7 -16    1.36    0.38
   3   7 -15    1.78    0.42
   3  -7 -15    1.40    0.38
   3   7 -14    0.16    0.24
   3  -7 -14    0.18    0.27
   3   7 -13    4.08    0.51
   3  -7 -13    5.67    0.60
  -3   7  12    0.38    0.24
   3   7 -12    0.06    0.21
   3  -7 -12    0.45    0.26
   3   7 -11    2.46    0.37
  -3   7  11    2.35    0.38
   3   7 -11    2.54    0.39
   3  -7 -11    3.43    0.45
  -3   7  10    1.23    0.31
   3   7 -10    1.14    0.29
   3   7 -10    1.44    0.31
   3  -7 -10    1.65    0.29
   3  -7 -10    1.90    0.35
   3   7  -9    4.15    0.45
   3   7  -9    5.12    0.49
  -3   7   9    4.85    0.48
   3  -7  -9    5.27    0.53
   3  -7  -9    4.24    0.40
  -3   7   8   10.60    0.65
   3   7  -8   10.99    0.63
   3   7  -8   10.61    0.61
   3  -7  -8   12.42    0.59
   3  -7  -8   11.31    0.66
   3   7  -7    0.61    0.24
   3   7  -7    0.08    0.15
  -3   7   7    0.03    0.20
   3  -7  -7    0.57    0.23
   3  -7  -7   -0.04    0.15
  -3   7   6    8.28    0.58
   3   7  -6   10.82    0.60
   3   7  -6    9.26    0.53
   3  -7  -6    9.73    0.59
   3  -7  -6    9.75    0.50
  -3   7   5   11.11    0.65
   3   7  -5   12.82    0.58
   3   7  -5   10.85    0.63
   3  -7  -5   11.88    0.66
   3   7  -4    1.74    0.32
  -3   7   4    2.45    0.35
   3   7  -4    2.66    0.27
   3  -7  -4    2.87    0.38
   3   7  -3   13.64    0.71
   3   7  -3   13.88    0.57
  -3   7   3   16.10    0.76
  -3   7   2   12.92    0.69
   3   7  -2   12.61    0.50
   3   7  -2   14.60    0.71
  -3   7   1   10.88    0.51
   3   7  -1   11.51    0.64
   3   7  -1   10.41    0.41
  -3   7   1   11.71    0.64
  -3  -7   1   11.80    0.60
   3   7   0   23.23    0.99
  -3   7   0   22.65    0.86
  -3   7   0   24.33    0.99
  -3  -7   0   24.73    0.96
  -3   7  -1    2.23    0.33
  -3   7  -1    2.48    0.27
   3   7   1    2.28    0.34
  -3  -7  -1    1.29    0.26
  -3   7  -2    3.01    0.31
  -3   7  -2    2.08    0.31
   3   7   2    2.53    0.36
  -3  -7  -2    2.48    0.33
  -3   7  -3    0.67    0.24
   3   7   3    0.89    0.26
  -3   7  -3    0.82    0.20
  -3  -7  -3    0.66    0.23
   3   7   4   13.21    0.70
  -3   7  -4   13.12    0.67
  -3   7  -4   13.01    0.64
  -3  -7  -4   13.07    0.68
  -3   7  -5    1.56    0.27
  -3   7  -5    1.13    0.27
   3   7   5    0.95    0.27
  -3  -7  -5    1.24    0.28
  -3   7  -6    1.77    0.30
  -3   7  -6    1.76    0.30
   3   7   6    1.56    0.31
  -3  -7  -6    2.06    0.34
  -3   7  -7   32.16    1.26
   3   7   7   33.01    1.25
  -3   7  -7   32.54    1.18
  -3  -7  -7   30.74    1.26
  -3   7  -8    0.79    0.23
   3   7   8    0.19    0.22
  -3   7  -8    0.54    0.24
  -3  -7  -8    0.62    0.25
  -3   7  -9    0.98    0.26
  -3   7  -9    0.91    0.27
   3   7   9    1.30    0.30
  -3  -7  -9    1.11    0.29
   3   7  10    9.50    0.61
  -3   7 -10    9.24    0.65
  -3  -7 -10    9.04    0.64
  -3   7 -11   14.41    0.85
  -3  -7 -11   14.85    0.85
  -3   7 -12    2.28    0.41
  -3  -7 -12    2.12    0.40
  -3   7 -13   -0.09    0.20
  -3  -7 -13    0.06    0.22
  -3   7 -14    0.15    0.26
  -3  -7 -14   -0.07    0.25
  -3   7 -15    3.09    0.52
  -3  -7 -15    3.52    0.53
  -3   7 -16   -0.01    0.28
  -3  -7 -16    0.80    0.35
  -3  -7 -17    0.47    0.35
   3   8 -16   -0.09    0.26
   3  -8 -16    0.27    0.32
   3   8 -15    4.68    0.61
   3  -8 -15    6.15    0.68
   3   8 -14    2.43    0.45
   3  -8 -14    2.93    0.48
   3   8 -13    0.59    0.29
   3  -8 -13    0.25    0.25
  -3   8  12    1.58    0.35
   3   8 -12    0.99    0.31
   3  -8 -12    1.08    0.33
   3   8 -11    0.41    0.26
   3   8 -11    0.39    0.23
  -3   8  11    0.41    0.27
   3  -8 -11   -0.02    0.24
   3   8 -10   -0.26    0.21
   3   8 -10   -0.09    0.18
  -3   8  10    0.02    0.24
   3  -8 -10   -0.07    0.22
   3   8  -9    3.14    0.41
   3   8  -9    2.77    0.39
  -3   8   9    3.05    0.43
   3  -8  -9    2.83    0.44
   3   8  -8    0.32    0.25
  -3   8   8    0.02    0.22
   3   8  -8    0.17    0.19
   3  -8  -8    0.33    0.23
  -3   8   7    3.72    0.46
   3   8  -7    3.82    0.45
   3   8  -7    3.98    0.40
   3  -8  -7    5.09    0.53
   3   8  -6    5.13    0.51
   3   8  -6    3.83    0.38
  -3   8   6    3.59    0.46
   3  -8  -6    4.27    0.49
   3   8  -5    5.65    0.39
  -3   8   5    4.89    0.52
   3   8  -5    5.03    0.50
   3  -8  -5    4.96    0.52
   3   8  -4   18.68    0.73
  -3   8   4   17.97    0.90
   3   8  -4   19.04    0.90
   3  -8  -4   17.57    0.87
   3   8  -3    0.68    0.16
  -3   8   3    0.68    0.28
   3   8  -3    0.51    0.24
   3   8  -2    1.04    0.29
  -3   8   2    0.33    0.24
  -3   8   1   -0.08    0.20
   3   8  -1    0.07    0.21
  -3   8   1    0.02    0.13
  -3  -8   1    0.25    0.21
  -3   8   0    0.57    0.26
  -3   8   0    1.00    0.20
   3   8   0    0.88    0.27
  -3  -8   0    0.78    0.25
   3   8   1   11.15    0.67
  -3   8  -1   11.66    0.67
  -3   8  -1   10.61    0.55
  -3  -8  -1   11.05    0.64
   3   8   2   -0.31    0.16
  -3   8  -2   -0.19    0.13
  -3   8  -2   -0.36    0.15
  -3  -8  -2    0.11    0.20
   3   8   3    1.16    0.30
  -3   8  -3    0.29    0.24
  -3   8  -3    0.50    0.19
  -3  -8  -3    0.85    0.26
   3   8   4   12.85    0.73
  -3   8  -4   11.37    0.61
  -3   8  -4   11.93    0.67
  -3  -8  -4   11.49    0.67
  -3   8  -5    3.85    0.44
  -3   8  -5    3.28    0.38
   3   8   5    4.61    0.49
  -3  -8  -5    3.64    0.44
  -3   8  -6   10.18    0.61
  -3   8  -6    9.74    0.60
   3   8   6   10.33    0.65
  -3  -8  -6    9.31    0.62
  -3   8  -7    0.59    0.24
  -3   8  -7    0.54    0.23
   3   8   7    0.44    0.25
  -3  -8  -7    0.44    0.26
  -3   8  -8    5.18    0.49
   3   8   8    5.17    0.54
  -3   8  -8    4.95    0.52
  -3  -8  -8    4.83    0.53
  -3   8  -9    0.22    0.24
   3   8   9    0.55    0.27
  -3   8  -9    0.72    0.27
  -3  -8  -9    0.68    0.28
  -3   8 -10    1.77    0.36
  -3  -8 -10    1.18    0.32
  -3   8 -11   -0.09    0.21
  -3  -8 -11   -0.06    0.21
  -3   8 -12    0.13    0.22
  -3  -8 -12   -0.15    0.22
  -3   8 -13   -0.28    0.22
  -3  -8 -13   -0.12    0.26
  -3   8 -14    3.36    0.52
  -3  -8 -14    2.64    0.49
  -3   8 -15    0.88    0.33
  -3  -8 -15    0.49    0.32
  -3   8 -16    0.67    0.35
  -3  -8 -16    1.15    0.41
   3   9 -15   -0.11    0.26
   3  -9 -15   -0.13    0.28
   3   9 -14    3.08    0.50
   3  -9 -14    3.28    0.53
   3   9 -13    0.39    0.27
   3  -9 -13    0.22    0.27
   3   9 -12    0.04    0.22
  -3   9  12   -0.43    0.23
   3  -9 -12   -0.08    0.24
   3   9 -11    0.38    0.28
   3   9 -11    0.25    0.23
  -3   9  11   -0.09    0.23
   3  -9 -11    0.45    0.30
   3   9 -10    3.37    0.44
  -3   9  10    2.89    0.47
   3   9 -10    2.28    0.41
   3  -9 -10    3.16    0.47
   3   9  -9    0.08    0.20
  -3   9   9   -0.08    0.24
   3   9  -9    0.17    0.25
   3  -9  -9    0.17    0.25
   3   9  -8    0.52    0.27
  -3   9   8    0.74    0.29
   3   9  -8    0.15    0.19
   3  -9  -8    0.17    0.26
   3   9  -7    0.74    0.23
   3   9  -7    1.04    0.30
  -3   9   7    0.45    0.27
   3  -9  -7    0.63    0.29
  -3   9   6    1.23    0.34
   3   9  -6    1.56    0.35
   3   9  -6    1.41    0.26
   3  -9  -6    1.26    0.33
  -3   9   5    1.36    0.34
   3   9  -5    1.45    0.34
   3  -9  -5    1.07    0.30
   3   9  -4    0.24    0.24
  -3   9   4    0.18    0.24
   3  -9  -4    0.03    0.23
   3   9  -3    3.85    0.47
  -3   9   3    3.99    0.50
   3  -9  -3    3.78    0.48
   3   9  -2    2.81    0.41
  -3   9   2    2.57    0.40
   3   9  -1    5.86    0.57
  -3   9   1    5.09    0.54
  -3   9   1    5.08    0.38
  -3  -9   1    5.52    0.53
  -3   9   0   10.41    0.68
  -3   9   0   11.95    0.58
   3   9   0   10.02    0.68
  -3  -9   0   10.86    0.65
   3   9   1    6.56    0.62
  -3   9  -1    8.08    0.59
  -3   9  -1    7.75    0.47
  -3  -9  -1    7.66    0.55
  -3   9  -2    0.43    0.18
   3   9   2    0.85    0.29
  -3   9  -2    0.27    0.23
  -3  -9  -2    0.43    0.24
   3   9   3    1.26    0.33
  -3   9  -3    1.59    0.34
  -3   9  -3    1.34    0.26
  -3  -9  -3    1.29    0.31
  -3   9  -4    1.39    0.27
   3   9   4    0.42    0.28
  -3   9  -4    1.41    0.33
  -3  -9  -4    1.11    0.31
  -3   9  -5    0.20    0.23
   3   9   5   -0.19    0.21
  -3   9  -5    0.32    0.20
  -3  -9  -5    0.01    0.21
  -3   9  -6    4.61    0.50
   3   9   6    5.97    0.60
  -3   9  -6    6.76    0.57
  -3  -9  -6    6.64    0.61
  -3   9  -7    6.74    0.58
   3   9   7    5.91    0.60
  -3   9  -7    6.85    0.59
  -3  -9  -7    5.51    0.59
  -3   9  -8    0.52    0.24
  -3   9  -8   -0.18    0.22
   3   9   8    0.35    0.27
  -3  -9  -8    0.33    0.25
  -3   9  -9    0.71    0.28
  -3   9  -9    0.67    0.26
   3   9   9    0.48    0.29
  -3  -9  -9    0.26    0.26
  -3   9 -10    0.29    0.23
   3   9  10    0.65    0.29
  -3  -9 -10    0.82    0.31
  -3   9 -11    0.31    0.24
  -3  -9 -11    0.54    0.30
  -3   9 -12    1.25    0.34
  -3  -9 -12    1.02    0.34
  -3   9 -13    0.04    0.24
  -3  -9 -13   -0.02    0.26
  -3   9 -14    2.96    0.52
  -3  -9 -14    2.45    0.49
  -3  -9 -15   -0.21    0.30
   3  10 -14    1.57    0.41
   3 -10 -14    1.75    0.44
   3  10 -13    0.20    0.29
   3 -10 -13    0.15    0.28
   3  10 -12   -0.03    0.24
  -3  10  12    0.73    0.34
   3 -10 -12    0.06    0.26
  -3  10  11    1.18    0.38
   3  10 -11    1.04    0.32
   3 -10 -11    0.81    0.34
   3  10 -10    1.39    0.37
  -3  10  10    1.97    0.43
   3 -10 -10    1.18    0.38
  -3  10   9    3.51    0.52
   3  10  -9    3.36    0.49
   3 -10  -9    2.52    0.46
   3  10  -8    0.24    0.28
  -3  10   8    0.70    0.31
   3 -10  -8    0.49    0.31
   3  10  -7    1.05    0.32
  -3  10   7    2.07    0.41
   3 -10  -7    1.36    0.37
   3  10  -6    5.66    0.60
  -3  10   6    5.32    0.60
   3 -10  -6    5.11    0.58
  -3  10   5    3.65    0.52
   3  10  -5    5.71    0.59
   3 -10  -5    4.87    0.56
  -3  10   4   -0.15    0.23
   3  10  -4    0.07    0.24
   3 -10  -4    0.78    0.31
   3  10  -3    0.42    0.26
  -3  10   3    0.27    0.26
   3 -10  -3   -0.16    0.26
   3  10  -2    1.69    0.37
  -3  10   2    0.92    0.31
  -3 -10   2    0.74    0.30
  -3  10   1   -0.36    0.19
   3  10  -1    0.32    0.26
  -3 -10   1    0.21    0.24
   3  10   0   -0.09    0.21
  -3  10   0   -0.16    0.23
  -3 -10   0    0.25    0.26
   3  10   1    0.68    0.31
  -3  10  -1    0.88    0.30
  -3 -10  -1    0.81    0.29
   3  10   2    1.49    0.35
  -3  10  -2    1.18    0.25
  -3  10  -2    0.72    0.28
  -3 -10  -2    0.83    0.30
  -3  10  -3    2.97    0.45
  -3  10  -3    3.25    0.38
   3  10   3    2.76    0.45
  -3 -10  -3    3.00    0.44
  -3  10  -4    0.60    0.28
   3  10   4    0.17    0.27
  -3  10  -4    0.32    0.20
  -3 -10  -4    0.86    0.31
  -3  10  -5    1.68    0.37
  -3  10  -5    2.26    0.36
   3  10   5    1.88    0.41
  -3 -10  -5    2.23    0.41
   3  10   6    9.51    0.71
  -3  10  -6    9.55    0.62
  -3  10  -6    9.79    0.67
  -3 -10  -6    7.97    0.73
   3  10   7    0.18    0.27
  -3  10  -7   -0.16    0.20
  -3  10  -7    0.32    0.27
  -3 -10  -7   -0.33    0.18
  -3  10  -8    1.85    0.39
   3  10   8    2.00    0.43
  -3  10  -8    2.50    0.40
  -3 -10  -8    2.19    0.42
   3  10   9    0.11    0.27
  -3  10  -9   -0.01    0.21
  -3 -10  -9   -0.23    0.24
  -3  10 -10    4.24    0.54
   3  10  10    3.98    0.54
  -3 -10 -10    2.69    0.47
  -3  10 -11    2.62    0.45
  -3 -10 -11    2.01    0.44
  -3  10 -12    0.01    0.25
  -3 -10 -12    0.03    0.29
  -3  10 -13    1.40    0.39
  -3 -10 -13    0.63    0.36
  -3  11  12    0.31    0.34
   3 -11 -12   -0.14    0.30
  -3  11  11    0.84    0.40
   3 -11 -11    1.31    0.40
  -3  11  10    4.28    0.61
   3  11 -10    4.32    0.58
   3 -11 -10    4.32    0.60
   3  11  -9    3.19    0.53
  -3  11   9    2.87    0.51
   3 -11  -9    3.49    0.54
   3  11  -8    0.63    0.33
  -3  11   8    0.17    0.30
   3 -11  -8   -0.11    0.29
  -3  11   7    0.29    0.29
   3  11  -7    0.85    0.34
   3 -11  -7    1.23    0.37
   3  11  -6    6.23    0.66
  -3  11   6    5.45    0.65
   3 -11  -6    5.99    0.67
  -3  11   5    1.54    0.39
   3  11  -5    2.77    0.48
   3 -11  -5    2.49    0.47
   3  11  -4    0.39    0.32
  -3  11   4    0.84    0.32
   3 -11  -4    0.76    0.32
   3  11  -3    0.19    0.28
  -3  11   3    0.07    0.24
   3 -11  -3    0.34    0.28
  -3 -11   3    0.91    0.33
  -3  11   2   -0.18    0.23
   3  11  -2   -0.13    0.22
  -3 -11   2   -0.30    0.22
   3 -11  -2   -0.25    0.23
   3  11  -1    6.87    0.70
  -3  11   1    7.00    0.68
  -3 -11   1    6.13    0.62
   3  11   0    2.30    0.44
  -3  11   0    2.65    0.45
  -3 -11   0    1.87    0.38
   3  11   1   -0.03    0.24
  -3  11  -1    0.11    0.25
  -3 -11  -1    0.13    0.26
   3  11   2    2.74    0.46
  -3  11  -2    3.03    0.47
  -3 -11  -2    1.78    0.39
   3  11   3   -0.03    0.26
  -3  11  -3    0.28    0.27
  -3 -11  -3    0.35    0.27
  -3  11  -4   -0.09    0.24
   3  11   4   -0.20    0.24
  -3 -11  -4   -0.17    0.24
   3  11   5    2.12    0.45
  -3  11  -5    2.93    0.47
  -3 -11  -5    1.46    0.39
   3  11   6   -0.17    0.28
  -3  11  -6   -0.03    0.25
  -3 -11  -6    0.26    0.26
  -3  11  -7    3.10    0.45
   3  11   7    2.67    0.50
  -3  11  -7    3.23    0.49
  -3 -11  -7    3.02    0.49
  -3  11  -8   -0.06    0.29
  -3  11  -8   -0.18    0.22
   3  11   8   -0.14    0.28
  -3 -11  -8   -0.12    0.25
  -3  11  -9    2.99    0.46
   3  11   9    3.32    0.54
  -3 -11  -9    2.94    0.52
  -3  11 -10    0.92    0.34
   3  11  10    2.04    0.47
  -3 -11 -10    1.80    0.42
  -3  11 -11    1.49    0.38
  -3 -11 -11    0.65    0.36
  -3  11 -12    0.70    0.34
  -3 -11 -12    0.27    0.35
   3  12 -10    0.41    0.35
  -3  12  10    0.33    0.37
   3 -12 -10    0.61    0.37
  -3  12   9    0.76    0.37
   3  12  -9    0.66    0.37
   3 -12  -9    0.53    0.35
   3  12  -8    0.50    0.37
  -3  12   8    0.53    0.35
   3 -12  -8    0.41    0.32
  -3  12   7    0.94    0.40
   3  12  -7    1.66    0.44
   3 -12  -7    1.19    0.40
   3  12  -6    2.17    0.47
  -3  12   6    2.13    0.48
   3 -12  -6    2.14    0.49
   3  12  -5    4.42    0.60
  -3  12   5    3.86    0.58
   3 -12  -5    4.84    0.63
   3  12  -4    2.02    0.45
  -3  12   4    3.07    0.52
  -3 -12   4    2.23    0.45
   3 -12  -4    3.50    0.53
  -3  12   3    0.72    0.33
   3  12  -3    1.32    0.39
   3 -12  -3    0.92    0.37
  -3 -12   3    1.02    0.36
  -3  12   2    6.63    0.72
   3  12  -2    8.08    0.79
   3 -12  -2    7.43    0.75
  -3 -12   2    7.52    0.72
  -3  12   1    0.29    0.31
   3  12  -1    0.90    0.34
   3 -12  -1    0.61    0.33
  -3 -12   1    0.89    0.34
  -3  12   0    0.59    0.33
   3  12   0    1.10    0.36
  -3 -12   0    1.19    0.35
   3  12   1   -0.16    0.23
  -3  12  -1    0.08    0.27
  -3 -12  -1    0.01    0.26
   3  12   2    0.67    0.35
  -3  12  -2    1.49    0.39
  -3 -12  -2    0.54    0.33
  -3  12  -3   -0.33    0.24
   3  12   3    0.18    0.31
  -3 -12  -3    0.40    0.29
   3  12   4    0.98    0.38
  -3  12  -4    2.40    0.46
  -3 -12  -4    1.67    0.42
   3  12   5    0.03    0.30
  -3  12  -5    0.03    0.29
  -3 -12  -5    0.14    0.29
  -3  12  -6    4.78    0.62
   3  12   6    3.87    0.61
  -3 -12  -6    4.59    0.62
  -3  12  -7    0.12    0.31
   3  12   7   -0.06    0.29
  -3 -12  -7    0.09    0.29
   3  12   8    0.85    0.37
  -3  12  -8    0.82    0.37
  -3 -12  -8    1.28    0.39
   3  12   9   -0.30    0.32
  -3 -12  -9    0.18    0.33
   3  12  10    0.90    0.44
  -3 -12 -10    1.04    0.40
   3  13  -8   -0.21    0.33
  -3  13   8   -0.09    0.32
   3  13  -7    0.28    0.36
  -3  13   7    0.48    0.39
   3 -13  -7   -0.05    0.34
   3  13  -6    0.32    0.35
  -3  13   6    0.13    0.32
  -3 -13   6   -0.38    0.31
   3 -13  -6   -0.02    0.32
  -3  13   5    2.65    0.52
   3  13  -5    2.12    0.50
  -3 -13   5    2.19    0.48
   3 -13  -5    1.19    0.45
  -3  13   4    1.59    0.44
   3  13  -4    1.55    0.47
  -3 -13   4    1.16    0.39
   3 -13  -4    1.31    0.43
  -3  13   3    2.30    0.49
   3  13  -3    1.82    0.47
  -3 -13   3    1.17    0.41
   3 -13  -3    1.64    0.44
   3  13  -2    0.17    0.31
  -3  13   2    0.60    0.35
  -3 -13   2   -0.02    0.30
   3 -13  -2    0.79    0.37
   3  13  -1    2.72    0.53
  -3  13   1    1.88    0.47
   3 -13  -1    2.34    0.49
  -3 -13   1    2.05    0.45
  -3  13   0    0.61    0.36
   3  13   0    0.97    0.38
   3 -13   0    0.59    0.36
  -3 -13   0    0.75    0.36
   3  13   1    3.30    0.58
  -3  13  -1    4.32    0.61
  -3 -13  -1    3.75    0.58
   3  13   2    0.57    0.37
  -3  13  -2    0.57    0.36
  -3 -13  -2   -0.22    0.27
   3  13   3    1.08    0.41
  -3  13  -3    1.72    0.46
  -3 -13  -3    1.62    0.43
   3  13   4    0.26    0.34
  -3  13  -4    0.45    0.35
  -3 -13  -4    0.56    0.35
  -3  13  -5    1.43    0.45
   3  13   5    1.47    0.47
  -3 -13  -5    1.45    0.43
   3  13   6    0.43    0.37
  -3  13  -6    0.17    0.33
  -3 -13  -6   -0.07    0.29
  -3  13  -7    0.12    0.33
   3  13   7    0.30    0.37
  -3 -13  -7   -0.08    0.31
  -3  14   2    0.78    0.39
   3  14  -2    1.02    0.42
   3  14  -1    0.50    0.37
  -3  14   1   -0.04    0.32
  -3 -14   1   -0.02    0.33
   3 -14  -1   -0.08    0.35
   3  14   0    3.97    0.65
  -3  14   0    3.31    0.58
  -3 -14   0    3.75    0.60
   3 -14   0    3.96    0.63
   3  14   1    0.24    0.35
  -3  14  -1    0.23    0.34
  -3 -14  -1    0.55    0.35
   3 -14   1    0.28    0.37
   4   0 -20    1.95    0.50
   4   0 -19    0.32    0.34
   4   0 -18    4.97    0.65
   4   0 -17   -0.04    0.25
   4   0 -16   20.66    1.10
   4   0 -15    0.16    0.26
   4   0 -14    4.35    0.53
   4   0 -14    5.39    0.44
   4   0 -13   -0.14    0.19
   4   0 -13    0.02    0.15
   4   0 -12   39.85    1.30
  -4   0  12   39.04    1.24
   4   0 -12   41.77    1.53
   4   0 -11    0.06    0.20
   4   0 -11   -0.07    0.12
  -4   0  11   -0.04    0.10
   4   0 -10    0.13    0.13
   4   0 -10    0.12    0.16
  -4   0  10    0.14    0.10
   4   0  -9   -0.19    0.14
   4   0  -9    0.06    0.10
  -4   0   9    0.02    0.09
  -4   0   8    7.75    0.37
   4   0  -8    8.17    0.35
   4   0  -8    7.36    0.45
  -4   0   7   -0.06    0.07
   4   0  -7    0.00    0.11
   4   0  -7   -0.04    0.07
  -4   0   6    2.40    0.21
   4   0  -6    2.08    0.24
   4   0  -6    2.80    0.16
  -4   0   5   -0.03    0.07
   4   0  -5    0.02    0.05
   4   0  -5   -0.03    0.09
   4   0  -4   35.53    1.11
   4   0  -4   34.57    0.95
  -4   0   4   34.80    1.06
  -4   0   3   -0.03    0.07
  -4   0   2    9.27    0.37
  -4   0   1    0.03    0.06
  -4   0   0    4.92    0.24
  -4   0   0    4.93    0.21
  -4   0   0    5.27    0.24
  -4   0  -1    0.02    0.07
  -4   0  -1   -0.02    0.06
  -4   0  -1   -0.10    0.05
  -4   0  -2   17.24    0.59
  -4   0  -2   17.02    0.55
  -4   0  -2   17.71    0.59
  -4   0  -3    0.03    0.07
  -4   0  -3    0.00    0.05
  -4   0  -3   -0.08    0.06
  -4   0  -4    3.34    0.17
  -4   0  -4    3.58    0.25
  -4   0  -4    3.53    0.24
  -4   0  -5   -0.02    0.09
  -4   0  -5    0.02    0.04
  -4   0  -5   -0.02    0.09
  -4   0  -6   73.72    2.17
   4   0   6   72.25    1.94
  -4   0  -6   72.84    2.15
  -4   0  -7    0.13    0.12
  -4   0  -7   -0.09    0.10
  -4   0  -8    4.70    0.36
  -4   0  -8    5.37    0.38
  -4   0  -9    0.07    0.15
  -4   0  -9    0.10    0.15
  -4   0 -10    1.12    0.26
  -4   0 -10    1.12    0.26
  -4   0 -11    0.10    0.18
  -4   0 -11    0.18    0.19
  -4   0 -12    0.00    0.17
  -4   0 -12   -0.09    0.17
  -4   0 -13   -0.01    0.18
  -4   0 -13   -0.12    0.18
  -4   0 -14    0.54    0.25
  -4   0 -14    0.51    0.26
  -4   0 -15   -0.23    0.18
  -4   0 -15   -0.07    0.21
  -4   0 -16    0.75    0.31
  -4   0 -16    1.36    0.35
  -4   0 -17    0.14    0.28
  -4   0 -17    0.23    0.27
  -4   0 -18    0.42    0.32
  -4   0 -18    0.51    0.33
  -4   0 -19    0.31    0.32
  -4   0 -19   -0.64    0.25
   4   1 -20   -0.21    0.31
   4  -1 -20   -0.49    0.31
   4   1 -19    0.90    0.40
   4  -1 -19    1.15    0.43
   4   1 -18   -0.07    0.27
   4  -1 -18    0.35    0.32
   4   1 -17    3.60    0.54
   4  -1 -17    3.89    0.56
   4   1 -16    0.24    0.27
   4  -1 -16   -0.14    0.26
   4   1 -15    5.71    0.62
   4  -1 -15    5.66    0.62
   4  -1 -15    6.41    0.52
   4   1 -14    4.91    0.56
   4   1 -14    4.55    0.42
   4  -1 -14    4.39    0.42
   4  -1 -14    5.17    0.56
   4   1 -13    0.98    0.28
   4   1 -13    0.83    0.21
   4  -1 -13    1.40    0.32
   4  -1 -13    0.77    0.20
   4   1 -12    1.12    0.29
  -4   1  12    1.59    0.22
   4   1 -12    1.55    0.21
   4   1 -12    1.42    0.23
   4  -1 -12    1.41    0.24
   4  -1 -12    1.07    0.30
   4   1 -11    0.93    0.19
   4   1 -11    0.97    0.26
  -4   1  11    1.39    0.20
   4  -1 -11    1.19    0.29
  -4  -1  11    1.35    0.18
   4  -1 -11    1.25    0.21
   4   1 -10    8.86    0.56
  -4   1  10    7.33    0.38
   4   1 -10    8.02    0.40
   4  -1 -10    7.99    0.53
   4  -1 -10    7.29    0.40
  -4  -1  10    8.41    0.39
   4   1  -9    1.36    0.25
   4   1  -9    1.62    0.19
  -4   1   9    1.74    0.20
   4  -1  -9    1.78    0.21
   4  -1  -9    2.07    0.30
  -4  -1   9    1.74    0.19
  -4   1   8    0.88    0.15
   4   1  -8    1.06    0.14
   4   1  -8    0.85    0.20
   4  -1  -8    0.91    0.15
  -4  -1   8    0.93    0.14
   4  -1  -8    1.04    0.21
  -4   1   7    1.26    0.17
   4   1  -7    1.37    0.21
   4   1  -7    1.37    0.14
   4  -1  -7    1.37    0.16
   4  -1  -7    1.09    0.21
  -4  -1   7    1.64    0.18
  -4   1   6   13.04    0.51
   4   1  -6   13.76    0.58
   4  -1  -6   13.36    0.58
  -4  -1   6   14.28    0.52
   4  -1  -6   13.00    0.47
   4   1  -5   55.33    1.68
  -4   1   5   54.88    1.60
   4  -1  -5   54.68    1.53
  -4  -1   5   54.86    1.60
   4  -1  -5   56.43    1.68
  -4   1   4   15.78    0.58
   4   1  -4   16.61    0.61
   4  -1  -4   17.67    0.62
  -4  -1   4   16.01    0.57
   4  -1  -4   15.73    0.51
  -4   1   3   16.96    0.60
   4   1  -3   18.29    0.63
  -4  -1   3   18.31    0.61
  -4   1   2   14.96    0.52
  -4  -1   2   14.33    0.51
  -4  -1   2   14.64    0.41
  -4   1   1    1.38    0.15
  -4   1   1    1.06    0.13
  -4  -1   1    1.17    0.09
  -4  -1   1    1.17    0.13
  -4   1   0    3.59    0.21
  -4   1   0    3.77    0.22
  -4  -1   0    4.08    0.19
  -4  -1   0    3.97    0.21
  -4  -1   0    4.08    0.20
  -4   1  -1   35.66    1.03
  -4   1  -1   36.03    1.08
  -4  -1  -1   35.18    1.03
  -4  -1  -1   34.71    1.02
  -4  -1  -1   34.24    1.02
  -4   1  -2   22.09    0.73
  -4   1  -2   22.79    0.70
  -4   1  -2   22.87    0.76
  -4  -1  -2   22.47    0.73
  -4  -1  -2   22.69    0.71
  -4  -1  -2   23.21    0.70
  -4   1  -3   28.37    0.94
  -4   1  -3   30.64    0.87
  -4   1  -3   29.68    0.96
   4   1   3   29.70    0.88
  -4  -1  -3   29.73    0.92
  -4  -1  -3   29.88    0.94
  -4   1  -4   27.04    0.93
  -4   1  -4   28.64    0.81
   4   1   4   26.49    0.82
  -4   1  -4   27.98    0.92
  -4  -1  -4   27.93    0.92
  -4  -1  -4   28.98    0.90
  -4   1  -5    7.57    0.39
   4   1   5    7.06    0.28
  -4   1  -5    7.54    0.27
  -4   1  -5    7.11    0.39
  -4  -1  -5    6.76    0.37
  -4  -1  -5    7.54    0.36
  -4   1  -6    1.01    0.18
   4   1   6    0.91    0.11
  -4   1  -6    0.70    0.17
  -4   1  -6    1.11    0.09
  -4  -1  -6    0.73    0.17
  -4  -1  -6    0.95    0.16
  -4   1  -7    6.98    0.41
   4   1   7    6.73    0.26
  -4   1  -7    7.21    0.42
  -4  -1  -7    6.71    0.41
  -4  -1  -7    5.81    0.37
  -4   1  -8   -0.13    0.10
  -4   1  -8    0.12    0.14
  -4  -1  -8    0.05    0.13
  -4  -1  -8    0.08    0.13
  -4   1  -9   -0.06    0.14
  -4   1  -9   -0.11    0.13
  -4  -1  -9   -0.08    0.13
  -4  -1  -9    0.08    0.14
  -4   1 -10    9.99    0.59
  -4   1 -10    9.64    0.57
  -4  -1 -10   10.05    0.57
  -4  -1 -10    9.41    0.55
  -4   1 -11    3.09    0.39
  -4   1 -11    2.60    0.36
  -4  -1 -11    2.71    0.37
  -4  -1 -11    3.17    0.38
  -4   1 -12    1.10    0.28
  -4   1 -12    1.06    0.26
  -4  -1 -12    0.66    0.25
  -4  -1 -12    0.63    0.24
  -4   1 -13    4.00    0.48
  -4   1 -13    3.94    0.48
  -4  -1 -13    4.41    0.49
  -4  -1 -13    4.38    0.47
  -4   1 -14    0.77    0.28
  -4   1 -14    1.13    0.30
  -4  -1 -14    0.63    0.26
  -4  -1 -14    1.31    0.31
  -4   1 -15    2.84    0.45
  -4   1 -15    3.79    0.50
  -4  -1 -15    3.05    0.45
  -4  -1 -15    2.19    0.41
  -4   1 -16   -0.03    0.24
  -4   1 -16    0.33    0.26
  -4  -1 -16    0.39    0.27
  -4  -1 -16    0.19    0.23
  -4   1 -17    1.96    0.42
  -4   1 -17    1.71    0.41
  -4  -1 -17    1.36    0.37
  -4  -1 -17    0.70    0.32
  -4   1 -18    1.66    0.43
  -4  -1 -18    1.34    0.39
  -4  -1 -18    1.87    0.41
  -4   1 -19    2.10    0.49
  -4  -1 -19    1.46    0.45
  -4  -1 -19    1.40    0.41
   4   2 -20    0.19    0.35
   4  -2 -20    0.03    0.34
   4   2 -19    0.52    0.36
   4  -2 -19    0.45    0.36
   4   2 -18    0.15    0.30
   4  -2 -18    0.00    0.30
   4   2 -17    0.15    0.28
   4  -2 -17    0.22    0.28
   4   2 -16    1.61    0.40
   4  -2 -16    1.50    0.31
   4  -2 -16    1.97    0.42
   4   2 -15    0.34    0.28
   4  -2 -15    0.00    0.24
   4  -2 -15    0.20    0.21
   4   2 -14    4.05    0.52
   4  -2 -14    3.58    0.48
   4  -2 -14    3.40    0.39
   4   2 -13    4.42    0.51
   4  -2 -13    3.65    0.38
   4  -2 -13    3.84    0.48
   4   2 -12    0.34    0.20
  -4   2  12    0.25    0.14
   4   2 -12    0.24    0.14
   4  -2 -12    0.07    0.16
   4  -2 -12    0.31    0.23
  -4   2  11   28.12    0.96
   4   2 -11   26.39    1.14
   4   2 -11   27.91    0.95
   4  -2 -11   27.38    0.99
   4  -2 -11   28.37    1.14
   4   2 -10    2.03    0.23
   4   2 -10    1.43    0.28
  -4   2  10    1.24    0.20
   4  -2 -10    1.41    0.28
   4  -2 -10    1.12    0.21
   4   2  -9   28.33    1.09
   4   2  -9   28.71    0.94
  -4   2   9   27.48    0.94
   4  -2  -9   27.47    1.06
   4  -2  -9   26.97    0.94
  -4   2   8    0.06    0.10
   4   2  -8   -0.01    0.10
   4   2  -8   -0.05    0.12
   4  -2  -8    0.20    0.11
   4  -2  -8   -0.32    0.11
  -4   2   7   -0.02    0.09
   4   2  -7    0.07    0.10
   4   2  -7   -0.08    0.10
   4  -2  -7    0.01    0.12
   4  -2  -7    0.01    0.09
   4   2  -6    8.42    0.45
  -4   2   6    8.23    0.40
   4   2  -6    8.45    0.39
   4  -2  -6    8.12    0.44
   4  -2  -6    7.96    0.37
  -4  -2   6    8.94    0.39
   4   2  -5    5.38    0.29
  -4   2   5    5.12    0.30
   4   2  -5    5.36    0.33
  -4  -2   5    5.18    0.29
   4  -2  -5    4.91    0.27
   4  -2  -5    5.76    0.33
   4   2  -4   65.93    1.93
   4   2  -4   65.86    1.89
  -4   2   4   66.94    1.90
  -4  -2   4   66.74    1.89
   4  -2  -4   63.85    1.84
   4   2  -3    5.66    0.29
   4   2  -3    5.64    0.29
  -4   2   3    5.95    0.30
  -4  -2   3    5.41    0.28
   4   2  -2    1.42    0.17
   4   2  -2    1.19    0.14
  -4   2   2    1.16    0.15
  -4  -2   2    1.20    0.10
  -4   2   1   52.65    1.52
   4   2  -1   51.37    1.52
  -4   2   1   52.06    1.53
   4   2  -1   52.40    1.48
  -4  -2   1   52.65    1.44
  -4   2   0   74.84    2.17
  -4  -2   0   77.49    2.08
  -4   2  -1    1.95    0.18
   4   2   1    2.81    0.20
  -4   2  -1    2.39    0.21
  -4  -2  -1    2.36    0.14
  -4  -2  -1    2.68    0.17
  -4   2  -2    4.45    0.27
  -4   2  -2    4.66    0.24
   4   2   2    3.95    0.24
  -4  -2  -2    4.95    0.26
  -4  -2  -2    4.64    0.20
   4   2   3    0.17    0.08
  -4   2  -3    0.05    0.09
  -4   2  -3    0.18    0.08
  -4  -2  -3    0.06    0.06
  -4  -2  -3    0.01    0.07
  -4   2  -4   28.41    0.86
  -4   2  -4   27.08    0.97
   4   2   4   29.01    0.89
  -4  -2  -4   28.63    0.95
  -4  -2  -4   29.33    0.89
  -4   2  -5    0.39    0.09
   4   2   5    0.61    0.12
  -4   2  -5    0.72    0.16
  -4  -2  -5    0.59    0.12
  -4  -2  -5    0.18    0.11
  -4   2  -6    0.12    0.13
   4   2   6    0.30    0.10
  -4   2  -6    0.44    0.09
  -4  -2  -6    0.36    0.14
  -4  -2  -6    0.27    0.11
  -4   2  -7    7.90    0.45
  -4   2  -7    7.62    0.46
   4   2   7    8.38    0.34
  -4   2  -7    7.67    0.29
  -4  -2  -7    7.59    0.44
  -4  -2  -7    7.93    0.41
  -4   2  -8    7.74    0.47
  -4   2  -8    8.11    0.48
   4   2   8    6.99    0.32
  -4  -2  -8    8.09    0.44
  -4  -2  -8    7.58    0.46
  -4   2  -9   14.23    0.68
  -4   2  -9   13.29    0.67
  -4  -2  -9   13.47    0.63
  -4  -2  -9   12.12    0.66
  -4   2 -10    0.22    0.19
  -4   2 -10   -0.12    0.15
  -4  -2 -10   -0.16    0.13
  -4  -2 -10    0.24    0.19
  -4   2 -11    0.24    0.18
  -4   2 -11    0.26    0.20
  -4  -2 -11    0.24    0.18
  -4  -2 -11    0.13    0.19
  -4   2 -12    1.12    0.27
  -4   2 -12    1.37    0.30
  -4  -2 -12    2.04    0.32
  -4  -2 -12    1.67    0.31
  -4   2 -13    0.24    0.22
  -4  -2 -13   -0.03    0.18
  -4  -2 -13    0.18    0.19
  -4   2 -14   -0.15    0.17
  -4  -2 -14   -0.10    0.20
  -4  -2 -14    0.01    0.19
  -4   2 -15    0.10    0.23
  -4  -2 -15   -0.13    0.21
  -4  -2 -15    0.01    0.20
  -4   2 -16    6.40    0.68
  -4  -2 -16    6.19    0.63
  -4  -2 -16    5.68    0.61
  -4   2 -17    1.16    0.37
  -4  -2 -17    0.49    0.30
  -4  -2 -17    1.00    0.33
  -4   2 -18   -0.27    0.25
  -4  -2 -18    0.22    0.29
  -4  -2 -18    0.39    0.32
  -4   2 -19    1.26    0.41
  -4  -2 -19    2.98    0.52
  -4  -2 -19    2.11    0.47
   4   3 -19   -0.26    0.28
   4  -3 -19    0.18    0.32
   4   3 -18   -0.21    0.23
   4  -3 -18    0.06    0.28
   4   3 -17    0.86    0.36
   4  -3 -17    0.87    0.35
   4   3 -16    0.19    0.29
   4  -3 -16    0.01    0.26
   4  -3 -16    0.45    0.28
   4   3 -15    0.42    0.28
   4  -3 -15    0.42    0.24
   4  -3 -15    0.27    0.26
   4   3 -14    1.45    0.34
   4  -3 -14    1.32    0.32
   4  -3 -14    1.60    0.30
   4   3 -13    1.33    0.30
   4  -3 -13    0.88    0.28
   4  -3 -13    1.52    0.28
   4   3 -12    0.63    0.18
   4   3 -12    0.35    0.24
  -4   3  12    0.24    0.15
   4  -3 -12    0.35    0.18
   4  -3 -12    0.05    0.20
   4   3 -11    2.13    0.26
  -4   3  11    1.94    0.26
   4   3 -11    3.40    0.43
   4  -3 -11    2.98    0.33
   4  -3 -11    2.26    0.35
   4   3 -10   24.67    1.02
  -4   3  10   23.95    0.89
   4   3 -10   24.95    0.88
   4  -3 -10   24.19    0.91
   4  -3 -10   22.58    0.98
  -4   3   9    1.23    0.21
   4   3  -9    0.80    0.22
   4   3  -9    1.10    0.20
   4  -3  -9    1.15    0.25
   4  -3  -9    1.30    0.22
  -4   3   8    0.15    0.13
   4   3  -8    0.31    0.15
   4   3  -8   -0.08    0.11
   4  -3  -8    0.12    0.16
   4  -3  -8    0.03    0.12
  -4   3   7    0.50    0.15
   4   3  -7    0.30    0.15
   4   3  -7    0.51    0.15
   4  -3  -7    0.75    0.17
   4  -3  -7    0.26    0.14
   4   3  -6    0.03    0.10
   4   3  -6   -0.06    0.11
  -4   3   6    0.14    0.11
   4  -3  -6   -0.23    0.09
   4  -3  -6    0.26    0.13
   4   3  -5    0.10    0.10
  -4   3   5   -0.07    0.09
   4   3  -5    0.22    0.12
   4  -3  -5    0.11    0.11
  -4   3   4    0.28    0.12
   4   3  -4    0.60    0.14
   4   3  -4    0.60    0.13
   4   3  -3    7.76    0.35
  -4   3   3    7.39    0.38
   4   3  -3    7.70    0.38
  -4   3   2   55.44    1.70
   4   3  -2   57.92    1.71
   4   3  -2   58.90    1.66
  -4  -3   2   58.98    1.62
   4   3  -1    1.98    0.21
  -4   3   1    1.54    0.18
  -4   3   1    1.43    0.18
   4   3  -1    1.82    0.14
  -4  -3   1    1.66    0.16
   4   3   0    9.20    0.31
   4   3   0    8.69    0.41
  -4   3   0    9.01    0.40
  -4   3   0    9.38    0.41
  -4  -3   0    8.72    0.37
  -4   3  -1   25.91    0.87
   4   3   1   26.26    0.86
  -4   3  -1   24.81    0.84
  -4  -3  -1   25.23    0.83
   4   3   2    0.27    0.12
  -4   3  -2    0.40    0.12
  -4   3  -2    0.59    0.13
  -4  -3  -2    0.45    0.06
  -4  -3  -2    0.59    0.13
   4   3   3    3.47    0.27
  -4   3  -3    3.42    0.24
  -4   3  -3    3.22    0.29
  -4  -3  -3    3.65    0.17
  -4  -3  -3    4.26    0.27
   4   3   4   21.18    0.74
  -4   3  -4   21.37    0.80
  -4   3  -4   20.34    0.70
  -4  -3  -4   20.74    0.66
  -4  -3  -4   21.90    0.78
  -4   3  -5    7.39    0.42
  -4   3  -5    7.76    0.35
   4   3   5    7.75    0.38
  -4  -3  -5    7.98    0.43
  -4  -3  -5    8.05    0.34
  -4   3  -6    0.08    0.09
   4   3   6    0.26    0.13
  -4   3  -6    0.12    0.12
  -4  -3  -6    0.33    0.11
  -4  -3  -6   -0.05    0.12
  -4   3  -7    0.45    0.11
  -4   3  -7    0.47    0.18
   4   3   7    0.44    0.14
  -4  -3  -7    0.36    0.13
  -4  -3  -7    0.12    0.13
   4   3   8   11.06    0.46
  -4   3  -8    9.73    0.57
  -4   3  -8   10.10    0.39
  -4  -3  -8   10.70    0.58
  -4  -3  -8   10.38    0.49
  -4   3  -9    0.13    0.18
   4   3   9    0.09    0.13
  -4  -3  -9   -0.09    0.13
  -4  -3  -9    0.03    0.15
  -4   3 -10   15.66    0.78
  -4  -3 -10   14.18    0.67
  -4  -3 -10   15.08    0.76
  -4   3 -11    0.52    0.23
  -4  -3 -11    0.24    0.20
  -4  -3 -11    0.43    0.19
  -4   3 -12   -0.21    0.14
  -4  -3 -12    0.04    0.17
  -4  -3 -12    0.06    0.17
  -4   3 -13    0.22    0.20
  -4  -3 -13    0.21    0.19
  -4  -3 -13    0.14    0.21
  -4   3 -14    0.04    0.22
  -4  -3 -14   -0.11    0.20
  -4  -3 -14    0.15    0.23
  -4   3 -15    0.43    0.29
  -4  -3 -15    0.54    0.27
  -4  -3 -15    0.86    0.32
  -4   3 -16    1.69    0.41
  -4  -3 -16    2.32    0.44
  -4  -3 -16    2.88    0.45
  -4   3 -17    0.15    0.25
  -4  -3 -17   -0.01    0.27
  -4   3 -18    1.96    0.48
  -4  -3 -18    1.96    0.44
   4   4 -19    0.55    0.35
   4  -4 -19    0.05    0.33
   4   4 -18    0.03    0.26
   4  -4 -18    0.08    0.30
   4   4 -17    0.07    0.28
   4  -4 -17    0.77    0.34
   4   4 -16    7.33    0.74
   4  -4 -16    7.53    0.66
   4  -4 -16    7.13    0.69
   4   4 -15    0.24    0.25
   4  -4 -15    0.09    0.22
   4  -4 -15   -0.27    0.22
   4   4 -14    1.56    0.36
   4  -4 -14    1.07    0.29
   4  -4 -14    0.49    0.28
   4   4 -13    3.53    0.47
   4  -4 -13    2.80    0.41
   4  -4 -13    3.98    0.43
  -4   4  12    1.50    0.26
   4   4 -12    1.32    0.31
   4  -4 -12    1.60    0.32
   4  -4 -12    1.37    0.27
   4   4 -11    0.19    0.21
  -4   4  11    0.19    0.16
   4   4 -11    0.18    0.17
   4  -4 -11    0.20    0.20
   4  -4 -11    0.04    0.17
   4   4 -10    0.85    0.22
  -4   4  10    1.19    0.23
   4   4 -10    0.92    0.26
   4  -4 -10    0.82    0.25
   4  -4 -10    1.31    0.25
  -4   4   9    0.10    0.15
   4   4  -9   -0.16    0.15
   4   4  -9   -0.02    0.15
   4  -4  -9   -0.08    0.14
   4  -4  -9    0.21    0.18
   4   4  -8   18.95    0.74
  -4   4   8   19.12    0.76
   4   4  -8   17.90    0.80
   4  -4  -8   18.14    0.78
   4  -4  -8   17.58    0.74
   4   4  -7    2.30    0.27
   4   4  -7    1.69    0.26
  -4   4   7    2.64    0.29
   4  -4  -7    2.26    0.28
   4  -4  -7    2.44    0.28
   4   4  -6    6.87    0.39
  -4   4   6    5.96    0.38
   4   4  -6    6.12    0.38
   4  -4  -6    6.04    0.38
   4  -4  -6    5.48    0.36
   4   4  -5    7.25    0.41
  -4   4   5    8.32    0.44
   4   4  -5    7.83    0.42
   4  -4  -5    8.06    0.43
  -4   4   4   28.33    0.97
   4   4  -4   27.54    0.93
   4   4  -4   26.39    0.95
   4   4  -3   13.92    0.61
   4   4  -3   15.48    0.57
  -4   4   3   16.29    0.64
   4   4  -2    4.26    0.31
   4   4  -2    4.49    0.24
  -4   4   2    4.59    0.28
  -4   4   2    4.61    0.32
  -4  -4   2    4.96    0.28
   4   4  -1    0.67    0.10
  -4   4   1    0.77    0.14
  -4   4   1    0.93    0.18
   4   4  -1    0.74    0.16
  -4  -4   1    0.77    0.14
   4   4   0    0.00    0.11
  -4   4   0    0.16    0.09
   4   4   0    0.03    0.05
  -4   4   0    0.18    0.11
  -4  -4   0   -0.14    0.08
  -4   4  -1   11.28    0.49
  -4   4  -1   11.61    0.51
   4   4   1   11.60    0.52
  -4  -4  -1   11.86    0.49
  -4   4  -2    5.69    0.34
  -4   4  -2    4.43    0.31
   4   4   2    4.49    0.30
  -4  -4  -2    5.60    0.33
  -4   4  -3    7.71    0.41
  -4   4  -3    7.40    0.39
   4   4   3    7.72    0.41
  -4  -4  -3    7.38    0.40
  -4   4  -4   39.59    1.24
  -4   4  -4   39.91    1.33
   4   4   4   38.19    1.27
  -4  -4  -4   39.57    1.12
  -4  -4  -4   41.48    1.31
   4   4   5    7.33    0.41
  -4   4  -5    8.58    0.40
  -4   4  -5    7.54    0.46
  -4  -4  -5    7.23    0.43
  -4  -4  -5    8.00    0.32
  -4   4  -6    0.23    0.13
  -4   4  -6    0.38    0.16
   4   4   6    0.12    0.14
  -4  -4  -6    0.12    0.09
  -4  -4  -6    0.11    0.14
   4   4   7    4.61    0.33
  -4   4  -7    4.43    0.29
  -4   4  -7    4.63    0.42
  -4  -4  -7    4.25    0.41
  -4  -4  -7    4.85    0.29
  -4   4  -8    1.04    0.25
   4   4   8    0.68    0.20
  -4   4  -8    0.97    0.17
  -4  -4  -8    0.74    0.21
  -4  -4  -8    0.99    0.18
  -4   4  -9   13.97    0.74
   4   4   9   14.91    0.61
  -4  -4  -9   13.58    0.61
  -4  -4  -9   14.74    0.74
  -4   4 -10    3.40    0.42
  -4  -4 -10    3.54    0.35
  -4  -4 -10    3.36    0.42
  -4   4 -11    3.16    0.42
  -4  -4 -11    4.16    0.39
  -4  -4 -11    3.02    0.41
  -4   4 -12    0.52    0.24
  -4  -4 -12    0.34    0.20
  -4  -4 -12   -0.08    0.19
  -4   4 -13    0.13    0.22
  -4  -4 -13    0.33    0.20
  -4  -4 -13    0.21    0.23
  -4   4 -14    0.07    0.23
  -4  -4 -14    0.46    0.27
  -4   4 -15   -0.03    0.23
  -4  -4 -15   -0.10    0.22
  -4   4 -16    3.53    0.54
  -4  -4 -16    3.85    0.54
  -4   4 -17    1.51    0.42
  -4  -4 -17    1.23    0.37
  -4   4 -18    0.63    0.34
  -4  -4 -18    0.13    0.26
   4   5 -19    1.25    0.44
   4   5 -18    0.55    0.35
   4  -5 -18    0.11    0.31
   4   5 -17    1.74    0.42
   4  -5 -17    1.76    0.39
   4  -5 -17    1.82    0.43
   4   5 -16    0.48    0.31
   4  -5 -16    0.28    0.26
   4  -5 -16    0.59    0.32
   4   5 -15    5.67    0.63
   4  -5 -15    6.92    0.66
   4  -5 -15    7.34    0.66
   4   5 -14   -0.19    0.22
   4  -5 -14    0.43    0.24
   4  -5 -14    0.03    0.24
   4   5 -13    2.17    0.38
   4  -5 -13    2.20    0.37
   4  -5 -13    1.99    0.36
   4   5 -12    6.41    0.61
  -4   5  12    7.39    0.50
   4  -5 -12    7.10    0.53
   4  -5 -12    6.69    0.58
   4   5 -11    3.23    0.43
  -4   5  11    4.26    0.42
   4   5 -11    3.88    0.39
   4  -5 -11    3.95    0.43
   4  -5 -11    3.85    0.43
  -4   5  10   -0.05    0.17
   4   5 -10    0.36    0.19
   4   5 -10    0.28    0.20
   4  -5 -10    0.27    0.20
   4  -5 -10    0.12    0.18
   4   5  -9    1.08    0.24
   4   5  -9    1.58    0.29
  -4   5   9    1.10    0.25
   4  -5  -9    1.71    0.29
   4  -5  -9    1.50    0.28
  -4   5   8    0.21    0.17
   4   5  -8    0.26    0.17
   4   5  -8    0.27    0.18
   4  -5  -8    0.04    0.17
   4  -5  -8    0.20    0.18
   4   5  -7   20.20    0.83
  -4   5   7   20.81    0.84
   4   5  -7   19.68    0.80
   4  -5  -7   18.50    0.81
   4  -5  -7   19.76    0.80
   4   5  -6    0.35    0.17
   4   5  -6    0.27    0.15
  -4   5   6    0.31    0.17
   4  -5  -6    0.65    0.20
   4  -5  -6    0.69    0.18
  -4   5   5    9.76    0.53
   4   5  -5    9.51    0.47
   4   5  -5    9.44    0.51
   4  -5  -5    9.88    0.52
   4   5  -4   27.78    0.93
   4   5  -4   26.89    0.99
  -4   5   4   26.62    1.00
   4   5  -3   37.47    1.26
   4   5  -3   36.60    1.15
  -4   5   3   37.37    1.27
   4   5  -2    3.08    0.21
  -4   5   2    3.07    0.31
   4   5  -2    3.54    0.33
  -4   5   2    2.82    0.26
   4   5  -1    2.85    0.31
  -4   5   1    2.73    0.30
  -4   5   1    2.78    0.26
   4   5  -1    2.94    0.17
  -4  -5   1    3.42    0.29
  -4   5   0   22.52    0.86
   4   5   0   22.90    0.88
  -4   5   0   23.56    0.83
  -4  -5   0   23.03    0.82
  -4   5  -1   11.32    0.52
   4   5   1   11.03    0.55
  -4   5  -1   11.62    0.55
  -4  -5  -1   13.18    0.55
  -4   5  -2   17.25    0.70
  -4   5  -2   18.24    0.71
   4   5   2   16.20    0.71
  -4  -5  -2   17.06    0.69
  -4   5  -3    0.10    0.12
  -4   5  -3   -0.09    0.12
   4   5   3    0.15    0.14
  -4  -5  -3   -0.05    0.12
  -4   5  -4    0.77    0.18
   4   5   4    0.92    0.22
  -4   5  -4    1.12    0.22
  -4  -5  -4    1.23    0.22
   4   5   5   16.32    0.71
  -4   5  -5   17.53    0.76
  -4   5  -5   18.40    0.70
  -4  -5  -5   16.32    0.73
  -4  -5  -5   16.81    0.52
  -4   5  -6    2.10    0.25
   4   5   6    1.80    0.27
  -4   5  -6    1.73    0.28
  -4  -5  -6    1.87    0.16
  -4  -5  -6    1.59    0.27
  -4   5  -7   12.71    0.55
   4   5   7   11.54    0.59
  -4   5  -7   11.70    0.63
  -4  -5  -7   12.32    0.64
  -4  -5  -7   11.54    0.47
   4   5   8    8.64    0.50
  -4   5  -8    8.39    0.57
  -4   5  -8    9.81    0.47
  -4  -5  -8    9.23    0.42
  -4  -5  -8    8.80    0.56
  -4   5  -9    1.46    0.30
   4   5   9    1.42    0.26
  -4  -5  -9    1.01    0.26
  -4   5 -10    0.32    0.20
  -4  -5 -10    0.66    0.25
  -4   5 -11    0.87    0.26
  -4  -5 -11    0.96    0.28
  -4   5 -12    0.82    0.28
  -4  -5 -12    0.88    0.29
  -4   5 -13    1.52    0.34
  -4  -5 -13    2.50    0.42
  -4   5 -14    1.80    0.37
  -4  -5 -14    1.94    0.40
  -4   5 -15    4.56    0.59
  -4  -5 -15    4.41    0.57
  -4   5 -16   -0.03    0.27
  -4  -5 -16   -0.05    0.25
  -4   5 -17    0.32    0.30
  -4  -5 -17    0.43    0.33
  -4   5 -18    0.02    0.32
  -4  -5 -18    0.04    0.30
   4   6 -18    0.48    0.35
   4   6 -17    0.29    0.29
   4  -6 -17    0.17    0.28
   4   6 -16    2.73    0.49
   4  -6 -16    2.99    0.49
   4   6 -15    0.34    0.26
   4  -6 -15    0.64    0.30
   4  -6 -15    0.24    0.27
   4   6 -14    4.08    0.53
   4  -6 -14    7.04    0.64
   4  -6 -14    5.77    0.59
  -4   6  13    1.16    0.29
   4   6 -13    0.99    0.30
   4  -6 -13    1.50    0.33
   4  -6 -13    1.22    0.32
  -4   6  12    0.94    0.27
   4   6 -12    0.72    0.27
   4  -6 -12    1.00    0.29
   4  -6 -12    1.09    0.30
  -4   6  11    0.33    0.21
   4   6 -11    0.36    0.21
   4   6 -11    0.35    0.22
   4  -6 -11    0.10    0.20
   4  -6 -11    0.05    0.20
  -4   6  10    5.69    0.51
   4   6 -10    5.09    0.50
   4   6 -10    5.19    0.48
   4  -6 -10    5.66    0.52
   4  -6 -10    5.55    0.48
  -4   6   9    9.61    0.61
   4   6  -9   10.85    0.60
   4   6  -9   11.19    0.63
   4  -6  -9    9.84    0.58
   4  -6  -9   10.54    0.63
   4   6  -8    2.31    0.33
  -4   6   8    2.29    0.34
   4   6  -8    2.06    0.32
   4  -6  -8    2.52    0.32
   4  -6  -8    1.58    0.30
   4   6  -7    2.92    0.34
  -4   6   7    2.49    0.34
   4   6  -7    3.00    0.36
   4  -6  -7    2.55    0.35
   4  -6  -7    3.36    0.34
   4   6  -6    1.01    0.24
  -4   6   6    0.64    0.22
   4   6  -6    0.52    0.18
   4  -6  -6    0.93    0.20
   4  -6  -6    1.13    0.25
  -4   6   5    1.98    0.31
   4   6  -5    2.81    0.29
   4   6  -5    2.37    0.32
   4  -6  -5    2.28    0.32
   4   6  -4    3.67    0.31
   4   6  -4    4.20    0.40
  -4   6   4    3.63    0.39
   4   6  -3    8.56    0.51
  -4   6   3    9.31    0.54
   4   6  -3    8.50    0.40
   4   6  -2    1.66    0.27
  -4   6   2    1.49    0.27
  -4   6   2    1.70    0.22
   4   6  -2    1.71    0.17
  -4   6   1   12.12    0.61
  -4   6   1   12.00    0.54
   4   6  -1   11.76    0.41
   4   6  -1   10.10    0.59
  -4  -6   1   12.07    0.56
  -4   6   0   17.82    0.71
  -4   6   0   17.26    0.76
   4   6   0   17.47    0.78
  -4  -6   0   18.07    0.73
  -4   6  -1    1.18    0.20
   4   6   1    1.82    0.29
  -4   6  -1    1.21    0.24
  -4  -6  -1    1.37    0.24
   4   6   2    7.61    0.47
  -4   6  -2    8.17    0.49
  -4   6  -2    7.61    0.44
  -4  -6  -2    7.98    0.47
  -4   6  -3   -0.15    0.12
   4   6   3    0.10    0.18
  -4   6  -3   -0.14    0.15
  -4  -6  -3    0.09    0.15
  -4   6  -4   34.94    1.26
   4   6   4   38.02    1.31
  -4   6  -4   38.14    1.31
  -4  -6  -4   35.74    1.29
  -4   6  -5    1.71    0.28
   4   6   5    2.03    0.31
  -4   6  -5    1.80    0.29
  -4  -6  -5    1.79    0.30
  -4   6  -6    5.15    0.42
   4   6   6    4.49    0.43
  -4   6  -6    4.78    0.45
  -4  -6  -6    3.11    0.39
  -4   6  -7    0.95    0.25
   4   6   7    1.26    0.27
  -4   6  -7    1.01    0.23
  -4  -6  -7    1.35    0.28
  -4   6  -8   24.57    1.07
   4   6   8   25.58    1.00
  -4   6  -8   24.34    0.93
  -4  -6  -8   23.95    1.05
  -4   6  -9    0.15    0.20
   4   6   9    0.65    0.23
  -4  -6  -9    0.23    0.20
   4   6  10    0.43    0.22
  -4   6 -10    0.15    0.21
  -4  -6 -10    0.61    0.26
  -4   6 -11    0.39    0.24
  -4  -6 -11    0.29    0.23
  -4   6 -12   -0.05    0.20
  -4  -6 -12    0.14    0.21
  -4   6 -13    0.47    0.27
  -4  -6 -13    0.26    0.25
  -4   6 -14    7.09    0.69
  -4  -6 -14    6.11    0.67
  -4   6 -15    0.16    0.26
  -4  -6 -15    0.32    0.27
  -4   6 -16    1.16    0.36
  -4  -6 -16    1.28    0.38
  -4   6 -17    0.78    0.37
  -4  -6 -17    0.72    0.36
   4   7 -17    2.81    0.53
   4  -7 -17    2.02    0.47
   4   7 -16    0.35    0.31
   4  -7 -16    0.63    0.35
   4   7 -15    3.07    0.50
   4  -7 -15    3.17    0.50
   4   7 -14    2.56    0.45
   4  -7 -14    2.56    0.43
   4   7 -13    8.99    0.70
  -4   7  13   12.44    0.74
   4  -7 -13   11.36    0.72
  -4   7  12   -0.01    0.20
   4   7 -12    0.25    0.23
   4  -7 -12   -0.15    0.20
  -4   7  11    1.88    0.36
   4   7 -11    1.92    0.35
   4   7 -11    1.95    0.36
   4  -7 -11    1.48    0.31
   4  -7 -11    2.23    0.40
   4   7 -10    5.43    0.51
  -4   7  10    4.80    0.51
   4   7 -10    4.41    0.48
   4  -7 -10    4.93    0.53
   4  -7 -10    5.13    0.47
  -4   7   9    0.91    0.28
   4   7  -9    1.21    0.27
   4   7  -9    1.32    0.29
   4  -7  -9    1.40    0.32
   4  -7  -9    1.22    0.27
  -4   7   8    5.79    0.55
   4   7  -8    5.87    0.51
   4   7  -8    6.06    0.54
   4  -7  -8    6.13    0.56
   4  -7  -8    6.67    0.45
   4   7  -7   10.20    0.61
   4   7  -7    9.42    0.56
  -4   7   7    9.97    0.62
   4  -7  -7    9.87    0.62
   4  -7  -7    9.80    0.54
   4   7  -6    7.28    0.46
   4   7  -6    6.66    0.51
  -4   7   6    6.98    0.51
   4  -7  -6    7.79    0.54
   4  -7  -6    7.32    0.45
  -4   7   5   14.42    0.76
   4   7  -5   15.75    0.76
   4   7  -5   14.49    0.64
   4  -7  -5   13.36    0.72
   4   7  -4    0.50    0.15
  -4   7   4    0.28    0.22
   4   7  -4    0.03    0.20
  -4   7   3    1.64    0.31
   4   7  -3    1.92    0.32
   4   7  -3    2.13    0.22
  -4   7   2   10.21    0.59
   4   7  -2   11.26    0.64
   4   7  -2   10.49    0.43
  -4  -7   2   11.08    0.58
  -4   7   1   -0.03    0.19
   4   7  -1    0.38    0.22
  -4   7   1    0.11    0.13
  -4  -7   1   -0.08    0.16
  -4   7   0    2.38    0.34
  -4   7   0    1.79    0.25
   4   7   0    1.26    0.29
  -4  -7   0    2.40    0.32
  -4   7  -1    0.39    0.16
  -4   7  -1    0.21    0.21
   4   7   1    0.76    0.25
  -4  -7  -1    0.52    0.21
   4   7   2    5.65    0.52
  -4   7  -2    4.57    0.45
  -4   7  -2    5.02    0.37
  -4  -7  -2    4.22    0.42
  -4   7  -3   53.16    1.73
  -4   7  -3   51.04    1.74
   4   7   3   55.65    1.81
  -4  -7  -3   51.31    1.74
   4   7   4    6.97    0.53
  -4   7  -4    7.03    0.48
  -4   7  -4    8.47    0.53
  -4  -7  -4    8.05    0.52
  -4   7  -5   13.40    0.69
  -4   7  -5   12.58    0.67
   4   7   5   12.76    0.70
  -4  -7  -5   13.18    0.70
  -4   7  -6    5.47    0.47
  -4   7  -6    4.62    0.46
   4   7   6    4.34    0.47
  -4  -7  -6    4.10    0.46
   4   7   7    8.69    0.58
  -4   7  -7   10.29    0.62
  -4   7  -7    8.58    0.53
  -4  -7  -7    9.27    0.61
  -4   7  -8   22.42    0.93
   4   7   8   23.07    1.00
  -4   7  -8   21.38    1.02
  -4  -7  -8   24.13    1.05
   4   7   9    3.70    0.43
  -4   7  -9    3.21    0.44
  -4  -7  -9    3.40    0.45
  -4   7 -10   -0.17    0.19
   4   7  10    0.07    0.23
  -4  -7 -10    0.00    0.20
  -4   7 -11    4.00    0.50
  -4  -7 -11    3.30    0.46
  -4   7 -12    0.14    0.23
  -4  -7 -12    0.42    0.25
  -4   7 -13    0.26    0.25
  -4  -7 -13    0.39    0.28
  -4   7 -14   -0.02    0.24
  -4  -7 -14   -0.08    0.23
  -4   7 -15    3.15    0.53
  -4  -7 -15    2.86    0.52
  -4   7 -16    2.16    0.47
  -4  -7 -16    0.98    0.37
   4   8 -16    0.52    0.32
   4  -8 -16    0.05    0.28
   4   8 -15   -0.06    0.25
   4  -8 -15    0.76    0.35
   4   8 -14    0.18    0.28
   4  -8 -14    0.22    0.28
   4   8 -13    0.84    0.32
  -4   8  13    1.35    0.36
   4  -8 -13    0.51    0.29
  -4   8  12    1.54    0.36
   4   8 -12    1.75    0.37
   4  -8 -12    1.89    0.40
   4   8 -11    1.61    0.35
  -4   8  11    0.77    0.29
   4   8 -11    1.12    0.31
   4  -8 -11    1.12    0.33
  -4   8  10   13.79    0.78
   4   8 -10   12.81    0.73
   4   8 -10   10.93    0.70
   4  -8 -10   10.68    0.72
   4   8  -9   -0.31    0.19
   4   8  -9   -0.21    0.16
  -4   8   9    0.04    0.23
   4  -8  -9    0.10    0.24
   4   8  -8    1.34    0.29
   4   8  -8    1.57    0.33
  -4   8   8    1.28    0.32
   4  -8  -8    1.80    0.34
   4   8  -7    0.27    0.18
  -4   8   7    0.08    0.23
   4   8  -7   -0.07    0.22
   4  -8  -7   -0.03    0.21
   4  -8  -7    0.31    0.18
   4   8  -6   10.67    0.57
   4   8  -6   10.07    0.65
  -4   8   6   10.62    0.68
   4  -8  -6   10.81    0.68
   4  -8  -6   10.38    0.55
   4   8  -5    0.20    0.23
   4   8  -5   -0.06    0.12
  -4   8   5   -0.25    0.18
   4  -8  -5    0.32    0.26
   4   8  -4   -0.06    0.21
  -4   8   4   -0.11    0.21
   4   8  -4    0.16    0.14
   4  -8  -4   -0.11    0.24
   4   8  -3    0.46    0.25
  -4   8   3    0.05    0.21
   4   8  -2    0.28    0.23
  -4   8   2    0.37    0.22
  -4  -8   2   -0.11    0.17
  -4   8   1    0.72    0.19
   4   8  -1    0.80    0.28
  -4   8   1    0.42    0.23
  -4  -8   1    0.65    0.26
  -4   8   0    5.54    0.53
  -4   8   0    5.51    0.40
   4   8   0    4.31    0.49
  -4  -8   0    5.44    0.50
  -4   8  -1   -0.05    0.15
  -4   8  -1    0.12    0.21
   4   8   1   -0.07    0.21
  -4  -8  -1   -0.19    0.18
  -4   8  -2   10.72    0.64
   4   8   2   10.53    0.64
  -4   8  -2   10.78    0.57
  -4  -8  -2   10.21    0.61
  -4   8  -3    3.48    0.42
  -4   8  -3    3.73    0.39
   4   8   3    3.68    0.45
  -4  -8  -3    4.52    0.47
   4   8   4    4.82    0.51
  -4   8  -4    4.19    0.43
  -4   8  -4    4.45    0.46
  -4  -8  -4    5.48    0.52
  -4   8  -5    0.41    0.23
   4   8   5    0.42    0.26
  -4   8  -5    0.54    0.21
  -4  -8  -5    0.38    0.23
  -4   8  -6    0.19    0.23
  -4   8  -6   -0.05    0.17
   4   8   6   -0.03    0.22
  -4  -8  -6    0.33    0.22
   4   8   7    2.45    0.40
  -4   8  -7    3.00    0.39
  -4   8  -7    2.42    0.37
  -4  -8  -7    2.78    0.41
   4   8   8    1.69    0.35
  -4   8  -8    0.95    0.27
  -4   8  -8    1.31    0.29
  -4  -8  -8    0.83    0.28
   4   8   9    0.37    0.27
  -4   8  -9    0.50    0.25
  -4  -8  -9    0.52    0.27
   4   8  10    1.38    0.35
  -4   8 -10    1.91    0.38
  -4  -8 -10    1.13    0.33
  -4   8 -11    0.64    0.28
  -4  -8 -11    0.31    0.25
  -4   8 -12    7.55    0.71
  -4  -8 -12    6.99    0.70
  -4   8 -13    1.11    0.36
  -4  -8 -13    0.78    0.32
  -4   8 -14    3.42    0.54
  -4  -8 -14    3.00    0.51
  -4   8 -15    0.92    0.34
  -4  -8 -15    0.55    0.35
   4   9 -15    0.24    0.31
   4  -9 -15    0.38    0.33
   4   9 -14   -0.11    0.24
   4  -9 -14    0.48    0.33
  -4   9  13    0.18    0.28
   4   9 -13   -0.08    0.24
   4  -9 -13    0.36    0.30
   4   9 -12    0.49    0.27
  -4   9  12    0.24    0.28
   4  -9 -12   -0.36    0.24
   4   9 -11    0.20    0.25
  -4   9  11   -0.05    0.25
   4   9 -11    0.39    0.24
   4  -9 -11    0.08    0.25
   4   9 -10    1.85    0.35
  -4   9  10    1.95    0.41
   4   9 -10    1.36    0.34
   4  -9 -10    1.79    0.40
  -4   9   9   -0.03    0.22
   4   9  -9    0.13    0.25
   4   9  -9    0.14    0.20
   4  -9  -9   -0.16    0.23
   4   9  -8    1.37    0.33
  -4   9   8    0.60    0.30
   4   9  -8    1.11    0.27
   4  -9  -8    0.90    0.31
   4   9  -7    1.37    0.27
  -4   9   7    0.62    0.29
   4   9  -7    1.14    0.31
   4  -9  -7    0.44    0.28
  -4   9   6    0.50    0.25
   4   9  -6    0.64    0.28
   4  -9  -6    1.16    0.33
  -4   9   5    0.85    0.29
   4   9  -5    0.16    0.23
   4  -9  -5    0.03    0.26
  -4   9   4    2.41    0.41
   4   9  -4    2.67    0.42
   4  -9  -4    2.10    0.40
  -4   9   3    1.95    0.37
   4   9  -3    1.93    0.36
  -4  -9   3    1.57    0.33
  -4   9   2   -0.04    0.21
   4   9  -2    0.55    0.26
  -4  -9   2    0.79    0.25
   4   9  -1    0.21    0.22
  -4   9   1    0.35    0.17
  -4   9   1    0.06    0.24
  -4  -9   1    0.56    0.25
  -4   9   0    0.70    0.27
  -4   9   0    0.29    0.17
   4   9   0    0.03    0.22
  -4  -9   0    0.49    0.24
  -4   9  -1    4.84    0.53
   4   9   1    5.27    0.55
  -4   9  -1    5.02    0.44
  -4  -9  -1    4.61    0.49
  -4   9  -2    5.80    0.49
  -4   9  -2    5.42    0.54
   4   9   2    6.10    0.59
  -4  -9  -2    4.98    0.52
  -4   9  -3    1.98    0.36
   4   9   3    2.18    0.40
  -4   9  -3    2.45    0.34
  -4  -9  -3    1.85    0.35
  -4   9  -4   -0.02    0.16
  -4   9  -4   -0.14    0.20
   4   9   4    0.06    0.24
  -4  -9  -4    0.23    0.23
   4   9   5    2.36    0.41
  -4   9  -5    2.96    0.40
  -4   9  -5    2.69    0.40
  -4  -9  -5    2.68    0.41
  -4   9  -6    0.90    0.26
   4   9   6    1.52    0.35
  -4   9  -6    1.35    0.32
  -4  -9  -6    1.63    0.35
  -4   9  -7    3.48    0.44
  -4   9  -7    3.13    0.42
   4   9   7    4.43    0.54
  -4  -9  -7    3.05    0.45
  -4   9  -8    0.28    0.22
   4   9   8    0.50    0.30
  -4   9  -8    0.59    0.27
  -4  -9  -8    0.25    0.23
  -4   9  -9    0.03    0.20
   4   9   9    0.44    0.29
  -4  -9  -9    0.36    0.26
  -4   9 -10    4.15    0.52
   4   9  10    4.41    0.54
  -4  -9 -10    3.16    0.48
  -4   9 -11    0.16    0.24
  -4  -9 -11    0.04    0.26
  -4   9 -12    0.74    0.30
  -4  -9 -12   -0.13    0.24
  -4   9 -13    0.04    0.25
  -4  -9 -13   -0.07    0.26
  -4   9 -14    0.49    0.32
  -4  -9 -14    0.69    0.37
   4  10 -14    0.45    0.31
   4 -10 -14    0.22    0.32
   4  10 -13    3.94    0.54
   4 -10 -13    4.52    0.62
  -4  10  12    2.06    0.46
   4 -10 -12    0.67    0.35
   4  10 -11    0.36    0.32
  -4  10  11    0.31    0.31
   4 -10 -11   -0.05    0.26
   4  10 -10    1.35    0.38
  -4  10  10    0.44    0.30
   4 -10 -10    0.82    0.33
   4  10  -9    2.42    0.44
  -4  10   9    1.75    0.42
   4 -10  -9    2.13    0.44
   4  10  -8    0.59    0.29
  -4  10   8    0.12    0.25
   4 -10  -8    0.20    0.24
   4  10  -7    2.77    0.44
  -4  10   7    2.07    0.42
   4 -10  -7    1.89    0.40
   4  10  -6   -0.14    0.22
  -4  10   6   -0.02    0.23
   4  10  -5    2.21    0.42
  -4  10   5    2.16    0.41
   4 -10  -5    2.12    0.43
   4  10  -4    2.04    0.40
  -4  10   4    1.18    0.33
   4 -10  -4    1.25    0.34
  -4  10   3    0.53    0.28
   4  10  -3    0.25    0.25
  -4 -10   3    0.31    0.27
  -4  10   2    0.18    0.24
   4  10  -2    0.27    0.26
  -4 -10   2   -0.02    0.23
  -4  10   1    7.76    0.69
   4  10  -1    8.29    0.72
  -4 -10   1    7.74    0.57
  -4  10   0    2.88    0.44
   4  10   0    3.72    0.50
  -4 -10   0    2.64    0.40
  -4  10  -1    0.85    0.25
  -4  10  -1    0.99    0.32
   4  10   1    0.71    0.30
  -4 -10  -1    0.89    0.29
   4  10   2    6.64    0.66
  -4  10  -2    5.86    0.60
  -4  10  -2    5.97    0.52
  -4 -10  -2    6.61    0.61
   4  10   3    3.94    0.52
  -4  10  -3    3.05    0.39
  -4  10  -3    3.79    0.51
  -4 -10  -3    2.89    0.44
  -4  10  -4    2.84    0.44
   4  10   4    3.18    0.49
  -4  10  -4    2.72    0.38
  -4 -10  -4    2.64    0.43
  -4  10  -5   -0.02    0.23
  -4  10  -5    0.61    0.25
   4  10   5    0.09    0.25
  -4 -10  -5    0.49    0.27
  -4  10  -6    2.57    0.43
  -4  10  -6    3.57    0.46
   4  10   6    2.76    0.47
  -4 -10  -6    2.49    0.44
  -4  10  -7    2.82    0.43
   4  10   7    2.36    0.45
  -4  10  -7    3.48    0.46
  -4 -10  -7    2.04    0.41
  -4  10  -8    0.59    0.29
  -4  10  -8    0.17    0.23
   4  10   8   -0.45    0.22
  -4 -10  -8   -0.02    0.23
   4  10   9    0.39    0.29
  -4  10  -9    0.28    0.25
  -4 -10  -9    0.46    0.29
  -4  10 -10    0.11    0.23
   4  10  10   -0.02    0.31
  -4 -10 -10    0.14    0.26
  -4  10 -11    2.27    0.45
  -4 -10 -11    2.27    0.46
  -4  10 -12   -0.06    0.25
  -4 -10 -12    0.20    0.30
  -4  10 -13    0.07    0.27
  -4 -10 -13   -0.04    0.31
  -4  11  12    1.50    0.45
   4 -11 -12    0.71    0.37
  -4  11  11    1.19    0.41
   4 -11 -11    0.66    0.34
  -4  11  10   -0.02    0.29
   4  11 -10    0.31    0.34
   4 -11 -10    0.29    0.30
   4  11  -9    1.07    0.38
  -4  11   9    0.49    0.35
   4 -11  -9    0.07    0.28
  -4  11   8    3.45    0.54
   4  11  -8    4.49    0.60
   4 -11  -8    5.02    0.62
   4  11  -7    2.06    0.45
  -4  11   7    1.74    0.43
   4 -11  -7    1.42    0.40
   4  11  -6    0.55    0.32
  -4  11   6    0.83    0.34
   4 -11  -6    0.91    0.35
   4  11  -5    2.58    0.46
  -4  11   5    1.81    0.41
   4 -11  -5    1.91    0.42
   4  11  -4    0.43    0.27
  -4  11   4   -0.09    0.24
   4 -11  -4    0.16    0.27
  -4 -11   4   -0.14    0.25
   4  11  -3    0.20    0.28
  -4  11   3    0.06    0.23
   4 -11  -3    0.04    0.27
  -4 -11   3    0.52    0.30
  -4  11   2    1.55    0.37
   4  11  -2    2.04    0.43
  -4 -11   2    1.75    0.38
  -4  11   1    0.17    0.26
   4  11  -1    0.81    0.31
  -4 -11   1    0.64    0.30
  -4  11   0    2.32    0.43
   4  11   0    2.55    0.46
  -4 -11   0    2.80    0.44
   4  11   1    4.82    0.59
  -4  11  -1    4.41    0.54
  -4 -11  -1    3.25    0.47
   4  11   2    0.46    0.29
  -4  11  -2   -0.19    0.22
  -4 -11  -2   -0.16    0.21
  -4  11  -3    0.70    0.31
   4  11   3    1.20    0.37
  -4 -11  -3    0.86    0.32
  -4  11  -4    1.85    0.40
   4  11   4    1.35    0.41
  -4 -11  -4    1.48    0.37
   4  11   5    8.68    0.80
  -4  11  -5    6.42    0.66
  -4 -11  -5    8.64    0.77
  -4  11  -6    2.72    0.42
   4  11   6    2.57    0.49
  -4  11  -6    2.88    0.47
  -4 -11  -6    2.20    0.42
  -4  11  -7    0.85    0.33
   4  11   7    0.20    0.32
  -4  11  -7    0.73    0.30
  -4 -11  -7    1.12    0.36
  -4  11  -8   -0.18    0.26
  -4  11  -8   -0.14    0.24
   4  11   8    0.11    0.32
  -4 -11  -8    0.43    0.29
   4  11   9    0.13    0.34
  -4  11  -9    0.18    0.24
  -4 -11  -9    0.27    0.30
  -4  11 -10    0.26    0.27
   4  11  10   -0.31    0.30
  -4 -11 -10    0.24    0.30
  -4  11 -11   -0.19    0.24
  -4 -11 -11    0.20    0.31
  -4  12  10    0.20    0.37
   4  12 -10    0.48    0.35
   4 -12 -10    0.08    0.33
   4  12  -9    1.41    0.43
  -4  12   9    0.87    0.40
   4 -12  -9    1.04    0.41
   4  12  -8    4.46    0.62
  -4  12   8    4.98    0.67
   4 -12  -8    4.06    0.60
   4  12  -7    0.63    0.37
  -4  12   7    0.16    0.31
   4 -12  -7   -0.04    0.31
   4  12  -6    5.98    0.69
  -4  12   6    5.72    0.68
  -4 -12   6    5.22    0.61
   4 -12  -6    4.64    0.63
   4  12  -5    0.24    0.32
  -4  12   5    0.61    0.35
  -4 -12   5    0.27    0.31
   4 -12  -5    0.36    0.33
   4  12  -4    1.27    0.39
  -4  12   4    1.48    0.42
  -4 -12   4    1.26    0.38
   4 -12  -4    0.93    0.38
   4  12  -3    0.52    0.32
  -4  12   3    0.13    0.25
   4 -12  -3    0.35    0.32
  -4 -12   3    0.13    0.29
   4  12  -2    0.04    0.31
  -4 -12   2   -0.02    0.26
   4 -12  -2    0.55    0.33
   4  12  -1   -0.03    0.27
  -4  12   1    0.28    0.29
  -4 -12   1    0.18    0.29
  -4  12   0    0.80    0.36
   4  12   0    1.12    0.37
  -4 -12   0    1.13    0.37
   4  12   1    0.87    0.33
  -4  12  -1    0.16    0.28
  -4 -12  -1    0.80    0.33
  -4  12  -2    2.63    0.47
   4  12   2    4.01    0.59
  -4 -12  -2    3.33    0.51
   4  12   3    2.63    0.52
  -4  12  -3    1.94    0.44
  -4 -12  -3    3.28    0.51
  -4  12  -4    2.48    0.48
   4  12   4    1.89    0.46
  -4 -12  -4    1.76    0.43
   4  12   5    0.58    0.35
  -4  12  -5    0.13    0.30
  -4 -12  -5    0.31    0.30
  -4  12  -6    3.12    0.51
   4  12   6    3.65    0.59
  -4 -12  -6    2.94    0.50
   4  12   7    1.57    0.45
  -4  12  -7    0.97    0.39
  -4 -12  -7    1.32    0.41
   4  12   8   -0.45    0.32
  -4 -12  -8    0.13    0.30
   4  12   9    0.90    0.40
  -4 -12  -9    0.36    0.30
  -4  13   7    1.84    0.49
   4  13  -7    1.75    0.47
   4 -13  -7    1.80    0.48
  -4  13   6    0.48    0.36
   4  13  -6    0.33    0.36
  -4 -13   6    0.20    0.33
   4 -13  -6    0.73    0.40
   4  13  -5    4.08    0.63
  -4  13   5    5.21    0.69
  -4 -13   5    3.39    0.56
   4 -13  -5    4.28    0.64
  -4  13   4    3.67    0.61
   4  13  -4    3.50    0.59
  -4 -13   4    3.10    0.54
   4 -13  -4    3.01    0.55
  -4  13   3    2.21    0.49
   4  13  -3    2.28    0.51
  -4 -13   3    2.23    0.47
   4 -13  -3    2.85    0.54
  -4  13   2   -0.26    0.26
   4  13  -2    0.52    0.33
   4 -13  -2    0.27    0.33
  -4 -13   2    0.08    0.29
  -4  13   1    0.37    0.33
   4  13  -1   -0.41    0.26
   4 -13  -1    0.50    0.37
  -4 -13   1    0.81    0.35
   4  13   0    0.21    0.32
  -4  13   0    0.10    0.31
  -4 -13   0    0.87    0.36
   4  13   1    0.50    0.36
  -4  13  -1    0.38    0.34
  -4 -13  -1    1.05    0.38
  -4  13  -2    0.29    0.32
   4  13   2    0.76    0.39
  -4 -13  -2    0.17    0.31
   4  13   3    0.15    0.33
  -4  13  -3    0.08    0.31
  -4 -13  -3    0.17    0.31
   4  13   4    1.65    0.48
  -4  13  -4    1.12    0.41
  -4 -13  -4    1.30    0.41
   4  13   5    1.51    0.48
  -4  13  -5    1.82    0.46
  -4 -13  -5    1.93    0.45
   4  13   6    0.03    0.33
  -4  13  -6   -0.40    0.27
  -4 -13  -6   -0.02    0.29
   5   0 -20    2.79    0.58
   5   0 -19    0.46    0.33
   5   0 -18    0.94    0.40
   5   0 -17   -0.01    0.28
   5   0 -16    0.04    0.27
   5   0 -15    0.18    0.25
   5   0 -14    2.65    0.43
   5   0 -13    0.00    0.15
   5   0 -13   -0.07    0.20
   5   0 -12    7.80    0.58
   5   0 -12    7.55    0.42
  -5   0  12    7.91    0.42
   5   0 -11    0.07    0.12
   5   0 -11    0.23    0.21
  -5   0  11   -0.10    0.10
  -5   0  10   45.22    1.42
   5   0 -10   46.91    1.62
   5   0 -10   45.71    1.38
   5   0  -9   -0.05    0.09
   5   0  -9   -0.06    0.16
  -5   0   9   -0.03    0.10
  -5   0   8    9.43    0.45
   5   0  -8    9.91    0.55
   5   0  -8   10.55    0.39
   5   0  -7    0.04    0.07
   5   0  -7    0.09    0.12
  -5   0   7   -0.16    0.07
   5   0  -6   10.26    0.35
  -5   0   6   10.33    0.45
   5   0  -6   10.70    0.52
   5   0  -5    0.10    0.10
  -5   0   5   -0.02    0.07
   5   0  -5    0.11    0.04
  -5   0   4   90.51    2.57
   5   0  -4   93.57    2.65
  -5   0   3    0.00    0.06
  -5   0   2    0.05    0.07
  -5   0   1    0.28    0.08
  -5   0   0   32.18    1.00
  -5   0   0   32.20    0.94
  -5   0   0   32.71    0.99
  -5   0  -1    0.02    0.06
  -5   0  -1    0.03    0.06
  -5   0  -1    0.01    0.06
  -5   0  -2   10.69    0.43
  -5   0  -2   11.49    0.41
  -5   0  -2   10.57    0.44
  -5   0  -3    0.03    0.06
  -5   0  -3    0.07    0.08
  -5   0  -3   -0.06    0.07
  -5   0  -4  151.07    4.03
  -5   0  -4  149.59    4.13
  -5   0  -4  152.87    4.20
  -5   0  -5   -0.06    0.08
  -5   0  -5   -0.07    0.09
  -5   0  -5    0.02    0.05
  -5   0  -6   -0.10    0.10
  -5   0  -6   -0.06    0.11
   5   0   6   -0.02    0.06
  -5   0  -7   -0.03    0.11
  -5   0  -7    0.05    0.12
   5   0   7    0.11    0.06
  -5   0  -8   26.01    1.00
  -5   0  -8   26.08    0.99
  -5   0  -9    0.27    0.18
  -5   0  -9   -0.04    0.14
  -5   0 -10   13.97    0.71
  -5   0 -10   14.61    0.73
  -5   0 -11   -0.24    0.15
  -5   0 -11    0.21    0.18
  -5   0 -12    0.20    0.19
  -5   0 -12    0.00    0.17
  -5   0 -13   -0.23    0.17
  -5   0 -13   -0.28    0.15
  -5   0 -14    3.74    0.48
  -5   0 -14    4.41    0.52
  -5   0 -15   -0.21    0.21
  -5   0 -15   -0.08    0.22
  -5   0 -16    3.02    0.47
  -5   0 -16    4.18    0.54
  -5   0 -17   -0.15    0.24
  -5   0 -17   -0.10    0.26
  -5   0 -18    1.40    0.41
  -5   0 -18    1.36    0.42
  -5   0 -19   -0.09    0.28
  -5   0 -19   -0.07    0.30
   5   1 -20   -0.10    0.34
   5  -1 -20    0.05    0.31
   5   1 -19    0.93    0.44
   5  -1 -19    2.09    0.49
   5   1 -18    0.92    0.37
   5  -1 -18    0.62    0.36
   5   1 -17   -0.10    0.27
   5  -1 -17    0.02    0.25
   5   1 -16    3.61    0.53
   5  -1 -16    4.72    0.60
   5   1 -15    0.59    0.29
   5  -1 -15    0.19    0.27
   5   1 -14    1.07    0.32
   5  -1 -14    0.30    0.19
   5  -1 -14    0.64    0.28
   5   1 -13    4.31    0.52
   5  -1 -13    4.24    0.51
   5  -1 -13    4.43    0.38
  -5   1  12   13.00    0.58
   5   1 -12   12.40    0.74
   5   1 -12   12.63    0.56
   5  -1 -12   13.64    0.76
  -5  -1  12   13.03    0.56
   5  -1 -12   13.85    0.60
   5   1 -11    1.25    0.32
  -5   1  11    2.48    0.26
   5   1 -11    1.89    0.23
  -5  -1  11    1.60    0.21
   5  -1 -11    2.27    0.25
   5  -1 -11    1.79    0.34
  -5   1  10    6.43    0.38
   5   1 -10    6.20    0.33
   5   1 -10    6.54    0.55
  -5  -1  10    6.03    0.35
   5  -1 -10    5.94    0.35
   5  -1 -10    7.05    0.49
   5   1  -9   36.20    1.08
  -5   1   9   36.17    1.16
   5   1  -9   36.18    1.31
   5  -1  -9   35.19    1.11
   5  -1  -9   35.50    1.30
  -5  -1   9   36.28    1.16
   5   1  -8    0.09    0.08
  -5   1   8    0.22    0.11
   5   1  -8    0.16    0.15
   5  -1  -8    0.12    0.10
   5  -1  -8    0.21    0.15
  -5  -1   8    0.27    0.11
  -5   1   7    0.84    0.15
   5   1  -7    0.73    0.18
  -5  -1   7    0.95    0.16
   5  -1  -7    0.51    0.11
   5  -1  -7    0.97    0.20
   5   1  -6    0.04    0.11
  -5   1   6    0.06    0.09
  -5  -1   6    0.17    0.09
   5  -1  -6   -0.05    0.10
   5  -1  -6    0.31    0.08
   5   1  -5    0.10    0.11
  -5   1   5    0.47    0.12
   5  -1  -5    0.27    0.08
   5  -1  -5    0.51    0.15
  -5  -1   5    0.45    0.12
  -5   1   4   46.97    1.42
   5   1  -4   48.93    1.47
   5  -1  -4   47.72    1.32
  -5  -1   4   46.73    1.42
   5   1  -3    0.47    0.12
  -5   1   3    0.54    0.12
  -5  -1   3    0.60    0.12
  -5   1   2    2.04    0.19
  -5  -1   2    1.97    0.10
  -5  -1   2    1.81    0.18
  -5   1   1    1.60    0.17
  -5   1   1    1.57    0.17
  -5  -1   1    1.35    0.11
  -5  -1   1    1.69    0.17
  -5   1   0   33.37    1.01
  -5   1   0   33.57    1.04
  -5  -1   0   32.39    1.01
  -5  -1   0   32.44    0.99
  -5  -1   0   33.50    0.96
  -5   1  -1   37.99    1.18
  -5   1  -1   38.41    1.14
  -5  -1  -1   37.96    1.14
  -5  -1  -1   39.33    1.14
  -5  -1  -1   37.34    1.12
  -5   1  -2    0.02    0.06
  -5   1  -2    0.40    0.10
  -5   1  -2    0.32    0.10
  -5  -1  -2    0.35    0.10
  -5  -1  -2    0.33    0.09
  -5  -1  -2    0.25    0.08
  -5   1  -3    4.41    0.29
  -5   1  -3    4.96    0.25
  -5   1  -3    5.13    0.31
  -5  -1  -3    5.30    0.25
  -5  -1  -3    5.52    0.29
  -5  -1  -3    5.59    0.28
   5   1   4    2.15    0.18
  -5   1  -4    1.77    0.22
  -5   1  -4    2.03    0.22
  -5   1  -4    2.13    0.15
  -5  -1  -4    2.16    0.23
  -5  -1  -4    1.92    0.19
  -5   1  -5    2.43    0.26
   5   1   5    2.70    0.18
  -5   1  -5    2.75    0.17
  -5   1  -5    2.72    0.28
  -5  -1  -5    2.71    0.24
  -5  -1  -5    2.42    0.26
  -5   1  -6    7.43    0.44
  -5   1  -6    8.02    0.30
  -5   1  -6    8.49    0.45
   5   1   6    7.74    0.32
  -5  -1  -6    8.07    0.42
  -5  -1  -6    7.65    0.43
   5   1   7    4.58    0.23
  -5   1  -7    4.69    0.19
  -5   1  -7    5.20    0.38
  -5   1  -7    4.38    0.39
  -5  -1  -7    4.90    0.34
  -5  -1  -7    5.39    0.37
  -5   1  -8    6.07    0.43
  -5   1  -8    5.40    0.46
  -5  -1  -8    5.37    0.41
  -5  -1  -8    7.03    0.43
  -5   1  -9   39.32    1.42
  -5   1  -9   38.43    1.39
  -5  -1  -9   40.31    1.37
  -5  -1  -9   40.20    1.40
  -5   1 -10    0.71    0.23
  -5   1 -10    0.53    0.22
  -5  -1 -10    0.08    0.16
  -5  -1 -10    0.23    0.20
  -5   1 -11    1.55    0.31
  -5   1 -11    1.21    0.28
  -5  -1 -11    1.46    0.27
  -5  -1 -11    1.52    0.31
  -5   1 -12    0.36    0.22
  -5   1 -12    0.29    0.20
  -5  -1 -12    0.09    0.18
  -5  -1 -12    0.29    0.19
  -5   1 -13    4.92    0.52
  -5   1 -13    4.44    0.52
  -5  -1 -13    5.11    0.54
  -5  -1 -13    4.73    0.49
  -5   1 -14    1.03    0.31
  -5   1 -14    1.98    0.38
  -5  -1 -14    1.93    0.36
  -5  -1 -14    1.62    0.35
  -5   1 -15   -0.09    0.22
  -5   1 -15    0.52    0.27
  -5  -1 -15   -0.22    0.19
  -5  -1 -15   -0.33    0.21
  -5   1 -16    0.60    0.27
  -5   1 -16    0.16    0.27
  -5  -1 -16    0.43    0.29
  -5  -1 -16    0.41    0.27
  -5   1 -17    0.32    0.29
  -5   1 -17    0.17    0.30
  -5  -1 -17    0.21    0.28
  -5  -1 -17    0.93    0.33
  -5   1 -18    1.06    0.39
  -5  -1 -18    1.45    0.41
  -5  -1 -18    1.25    0.41
  -5  -1 -19    0.95    0.40
   5   2 -20    3.08    0.59
   5  -2 -20    2.51    0.58
   5   2 -19    1.54    0.46
   5  -2 -19    0.94    0.40
   5   2 -18    0.31    0.32
   5  -2 -18    0.54    0.35
   5   2 -17    1.96    0.43
   5  -2 -17    1.96    0.44
   5   2 -16    2.94    0.49
   5  -2 -16    2.77    0.48
   5   2 -15   17.01    0.98
   5  -2 -15   17.87    0.97
   5   2 -14    0.11    0.23
   5  -2 -14    0.23    0.26
   5  -2 -14    0.08    0.18
   5   2 -13    2.93    0.44
   5  -2 -13    3.47    0.36
   5  -2 -13    4.13    0.49
  -5   2  12    0.05    0.12
   5   2 -12    0.15    0.15
   5   2 -12   -0.17    0.16
   5  -2 -12   -0.13    0.20
   5  -2 -12    0.14    0.15
   5   2 -11    6.28    0.56
   5   2 -11    7.20    0.41
  -5   2  11    6.08    0.38
   5  -2 -11    6.36    0.39
   5  -2 -11    6.01    0.54
   5   2 -10    0.79    0.25
   5   2 -10    1.46    0.22
  -5   2  10    1.53    0.23
   5  -2 -10    0.91    0.26
   5  -2 -10    1.54    0.22
  -5   2   9    0.50    0.16
   5   2  -9    0.41    0.21
   5   2  -9    0.64    0.17
   5  -2  -9    0.14    0.19
  -5  -2   9    0.52    0.15
   5  -2  -9    0.24    0.14
   5   2  -8   18.19    0.78
  -5   2   8   16.93    0.68
   5   2  -8   17.71    0.68
   5  -2  -8   18.17    0.78
  -5  -2   8   16.21    0.66
   5  -2  -8   17.94    0.64
  -5   2   7    0.11    0.11
   5   2  -7   -0.07    0.11
   5  -2  -7    0.07    0.09
   5  -2  -7   -0.03    0.13
  -5  -2   7    0.19    0.11
   5   2  -6   13.22    0.59
  -5   2   6   13.69    0.56
   5  -2  -6   12.64    0.58
   5  -2  -6   13.20    0.50
  -5  -2   6   12.55    0.53
  -5   2   5    2.09    0.22
   5   2  -5    1.82    0.22
  -5  -2   5    1.68    0.20
   5  -2  -5    1.91    0.18
  -5   2   4    0.74    0.14
   5   2  -4    0.97    0.16
  -5  -2   4    0.79    0.08
  -5  -2   4    0.70    0.14
  -5   2   3   33.77    1.08
   5   2  -3   34.79    1.08
  -5  -2   3   33.73    1.07
  -5  -2   3   33.92    0.94
  -5   2   2    3.20    0.22
   5   2  -2    3.04    0.21
  -5  -2   2    2.73    0.23
  -5  -2   2    2.97    0.15
  -5   2   1   -0.04    0.07
   5   2  -1   -0.07    0.07
  -5   2   1    0.18    0.09
  -5  -2   1   -0.09    0.05
  -5  -2   1    0.05    0.08
  -5   2   0   14.62    0.55
  -5   2   0   14.91    0.57
   5   2   0   14.72    0.56
  -5  -2   0   15.32    0.51
  -5   2  -1   18.83    0.67
   5   2   1   19.64    0.68
  -5   2  -1   19.48    0.71
  -5  -2  -1   20.00    0.65
  -5  -2  -1   19.94    0.62
  -5   2  -2   89.61    2.41
   5   2   2   82.92    2.41
  -5  -2  -2   86.07    2.39
  -5  -2  -2   87.02    2.41
  -5   2  -3    3.28    0.28
  -5   2  -3    2.60    0.20
   5   2   3    2.82    0.21
  -5  -2  -3    2.52    0.24
  -5  -2  -3    2.97    0.19
   5   2   4    4.39    0.25
  -5   2  -4    3.54    0.31
  -5   2  -4    4.21    0.23
  -5  -2  -4    4.36    0.29
  -5  -2  -4    4.59    0.25
  -5   2  -5    0.81    0.12
  -5   2  -5    0.56    0.16
   5   2   5    0.93    0.14
  -5  -2  -5    0.78    0.14
  -5  -2  -5    0.89    0.17
   5   2   6   58.01    1.65
  -5   2  -6   55.77    1.81
  -5   2  -6   57.64    1.60
  -5  -2  -6   57.10    1.78
  -5  -2  -6   57.92    1.73
   5   2   7   23.02    0.74
  -5   2  -7   22.69    0.91
  -5   2  -7   22.12    0.69
  -5  -2  -7   22.59    0.89
  -5  -2  -7   22.78    0.83
  -5   2  -8    1.77    0.28
   5   2   8    1.53    0.17
  -5   2  -8    0.99    0.23
  -5   2  -8    1.50    0.12
  -5  -2  -8    1.09    0.21
  -5  -2  -8    1.37    0.26
  -5   2  -9    1.21    0.26
  -5   2  -9    1.47    0.28
  -5  -2  -9    1.02    0.25
  -5  -2  -9    1.00    0.21
  -5   2 -10    0.43    0.21
  -5   2 -10    0.37    0.21
  -5  -2 -10    0.53    0.22
  -5  -2 -10    0.22    0.17
  -5   2 -11    0.04    0.17
  -5   2 -11    0.05    0.19
  -5  -2 -11   -0.03    0.15
  -5  -2 -11    0.08    0.18
  -5   2 -12    1.01    0.27
  -5   2 -12    0.87    0.26
  -5  -2 -12    1.57    0.31
  -5  -2 -12    0.92    0.25
  -5   2 -13    0.26    0.21
  -5  -2 -13    0.55    0.25
  -5  -2 -13    0.38    0.22
  -5   2 -14    3.58    0.49
  -5  -2 -14    3.59    0.50
  -5  -2 -14    3.56    0.44
  -5   2 -15    5.96    0.65
  -5  -2 -15    7.49    0.66
  -5  -2 -15    8.81    0.64
  -5   2 -16    0.67    0.32
  -5  -2 -16    0.52    0.28
  -5  -2 -16    0.14    0.24
  -5   2 -17    0.39    0.31
  -5  -2 -17    0.42    0.31
  -5  -2 -17    0.40    0.30
  -5   2 -18    0.07    0.30
  -5  -2 -18    0.11    0.26
  -5  -2 -18    0.25    0.30
   5   3 -19   -0.14    0.32
   5  -3 -19   -0.32    0.29
   5   3 -18    0.60    0.35
   5  -3 -18    0.13    0.32
   5   3 -17    1.02    0.37
   5  -3 -17    1.03    0.38
   5   3 -16    3.35    0.53
   5  -3 -16    3.30    0.50
   5   3 -15    0.02    0.23
   5  -3 -15    0.07    0.24
   5  -3 -15    0.15    0.22
   5   3 -14    6.63    0.66
   5  -3 -14    5.69    0.50
   5  -3 -14    7.21    0.66
  -5   3  13    2.22    0.29
   5   3 -13    1.23    0.33
   5  -3 -13    2.35    0.38
   5  -3 -13    1.47    0.28
  -5   3  12    2.18    0.28
   5   3 -12    1.58    0.25
   5   3 -12    2.00    0.36
   5  -3 -12    1.66    0.33
   5  -3 -12    1.55    0.26
   5   3 -11    0.51    0.25
   5   3 -11    1.02    0.21
  -5   3  11    1.28    0.23
   5  -3 -11    1.41    0.29
   5  -3 -11    1.09    0.22
   5   3 -10    0.45    0.18
   5   3 -10    0.20    0.20
  -5   3  10    0.40    0.17
   5  -3 -10    0.44    0.18
   5  -3 -10    0.27    0.21
   5   3  -9    2.65    0.29
  -5   3   9    2.31    0.28
   5   3  -9    2.51    0.34
   5  -3  -9    1.92    0.25
   5  -3  -9    2.66    0.33
  -5   3   8    9.51    0.50
   5   3  -8   10.27    0.50
   5   3  -8    8.48    0.52
   5  -3  -8    9.70    0.55
   5  -3  -8   10.26    0.48
   5   3  -7    0.62    0.15
  -5   3   7    0.73    0.17
   5   3  -7    0.56    0.17
   5  -3  -7    0.49    0.17
   5  -3  -7    0.39    0.15
   5   3  -6    0.88    0.17
   5   3  -6    0.96    0.19
  -5   3   6    0.67    0.17
   5  -3  -6    0.85    0.19
   5  -3  -6    0.82    0.16
  -5   3   5    0.31    0.14
   5   3  -5    0.71    0.16
   5   3  -5    1.14    0.19
   5  -3  -5    0.63    0.15
  -5   3   4    4.24    0.30
   5   3  -4    4.72    0.31
   5   3  -4    4.48    0.29
   5   3  -3   92.29    2.60
   5   3  -3   93.36    2.63
  -5   3   3   89.93    2.62
  -5  -3   3   91.71    2.48
   5   3  -2   21.82    0.79
   5   3  -2   22.74    0.74
  -5   3   2   22.04    0.79
  -5  -3   2   22.09    0.69
   5   3  -1    0.10    0.07
   5   3  -1    0.03    0.10
  -5   3   1    0.16    0.10
  -5   3   1    0.01    0.09
  -5  -3   1    0.01    0.07
  -5   3   0    0.88    0.15
  -5   3   0    0.47    0.13
   5   3   0    0.85    0.15
  -5  -3   0    1.06    0.14
  -5   3  -1   47.89    1.44
   5   3   1   47.50    1.45
  -5   3  -1   47.80    1.48
  -5  -3  -1   47.55    1.41
   5   3   2   24.60    0.84
  -5   3  -2   24.74    0.83
  -5   3  -2   23.72    0.87
  -5  -3  -2   25.05    0.73
  -5  -3  -2   23.92    0.82
   5   3   3    5.96    0.33
  -5   3  -3    6.58    0.33
  -5   3  -3    6.04    0.36
  -5  -3  -3    6.37    0.26
  -5  -3  -3    6.15    0.34
  -5   3  -4   20.99    0.71
   5   3   4   19.66    0.73
  -5   3  -4   19.97    0.79
  -5  -3  -4   20.61    0.77
  -5  -3  -4   20.72    0.66
  -5   3  -5   -0.07    0.09
   5   3   5    0.09    0.11
  -5   3  -5    0.19    0.12
  -5  -3  -5   -0.03    0.08
  -5  -3  -5    0.08    0.12
   5   3   6    4.35    0.29
  -5   3  -6    4.48    0.26
  -5   3  -6    3.82    0.38
  -5  -3  -6    4.76    0.28
  -5  -3  -6    4.00    0.37
   5   3   7    3.42    0.28
  -5   3  -7    3.28    0.22
  -5   3  -7    2.87    0.34
  -5  -3  -7    3.44    0.29
  -5  -3  -7    3.06    0.35
  -5   3  -8   18.92    0.61
   5   3   8   19.23    0.68
  -5   3  -8   17.70    0.82
  -5  -3  -8   17.80    0.72
  -5  -3  -8   17.44    0.80
  -5   3  -9    3.29    0.40
   5   3   9    3.08    0.26
  -5  -3  -9    3.15    0.39
  -5  -3  -9    2.91    0.31
  -5   3 -10   36.61    1.39
  -5  -3 -10   35.30    1.35
  -5  -3 -10   35.23    1.25
  -5   3 -11    0.29    0.21
  -5  -3 -11    0.28    0.18
  -5  -3 -11    0.35    0.22
  -5   3 -12    0.73    0.27
  -5  -3 -12    0.10    0.17
  -5  -3 -12    0.31    0.22
  -5   3 -13    0.89    0.29
  -5  -3 -13    0.16    0.22
  -5  -3 -13    0.48    0.22
  -5   3 -14    2.61    0.44
  -5  -3 -14    3.43    0.47
  -5  -3 -14    2.78    0.39
  -5   3 -15    1.65    0.39
  -5  -3 -15    2.06    0.40
  -5  -3 -15    1.22    0.34
  -5   3 -16    4.91    0.62
  -5  -3 -16    5.79    0.65
  -5   3 -17    0.23    0.32
  -5  -3 -17    0.68    0.31
  -5   3 -18    0.84    0.38
  -5  -3 -18    1.26    0.40
   5   4 -19    0.98    0.40
   5  -4 -19    0.54    0.37
   5   4 -18    1.95    0.45
   5  -4 -18    1.30    0.41
   5   4 -17    0.42    0.31
   5  -4 -17    0.83    0.36
   5   4 -16    0.00    0.25
   5  -4 -16    0.24    0.29
   5   4 -15    1.29    0.35
   5  -4 -15    0.48    0.29
   5  -4 -15    0.89    0.27
   5   4 -14   -0.13    0.21
   5  -4 -14   -0.22    0.17
   5  -4 -14   -0.13    0.21
   5   4 -13    2.18    0.39
  -5   4  13    2.31    0.32
   5  -4 -13    2.95    0.37
   5  -4 -13    3.24    0.44
  -5   4  12    0.05    0.15
   5   4 -12    0.03    0.20
   5   4 -12    0.32    0.17
   5  -4 -12   -0.05    0.16
   5  -4 -12    0.27    0.21
   5   4 -11   -0.08    0.16
  -5   4  11    0.31    0.18
   5   4 -11    0.14    0.20
   5  -4 -11    0.06    0.20
   5  -4 -11    0.02    0.17
  -5   4  10   10.44    0.57
   5   4 -10   11.20    0.57
   5   4 -10   11.52    0.67
   5  -4 -10   11.29    0.64
   5  -4 -10   11.52    0.59
   5   4  -9    0.13    0.16
  -5   4   9    0.36    0.17
   5   4  -9    0.47    0.21
   5  -4  -9    0.11    0.18
   5  -4  -9    0.48    0.19
  -5   4   8    1.23    0.23
   5   4  -8    2.02    0.30
   5   4  -8    1.64    0.25
   5  -4  -8    1.71    0.27
   5  -4  -8    1.31    0.23
   5   4  -7   12.16    0.56
  -5   4   7   10.66    0.55
   5   4  -7   11.45    0.58
   5  -4  -7    9.95    0.55
   5  -4  -7   11.12    0.53
   5   4  -6    8.69    0.46
  -5   4   6    8.09    0.46
   5   4  -6    6.64    0.42
   5  -4  -6    8.33    0.44
   5   4  -5    0.95    0.19
   5   4  -5    1.01    0.18
  -5   4   5    0.57    0.18
   5  -4  -5    0.77    0.18
  -5   4   4    8.58    0.46
   5   4  -4    7.62    0.40
   5   4  -4    8.37    0.45
   5   4  -3    0.40    0.12
  -5   4   3    0.67    0.17
   5   4  -3    0.50    0.16
  -5  -4   3    0.34    0.11
  -5   4   2    4.10    0.28
   5   4  -2    3.89    0.34
   5   4  -2    3.65    0.23
  -5   4   2    4.32    0.31
  -5  -4   2    3.73    0.24
  -5   4   1    0.09    0.10
   5   4  -1    0.02    0.07
   5   4  -1    0.10    0.11
  -5   4   1   -0.05    0.12
  -5  -4   1   -0.03    0.09
   5   4   0    8.63    0.32
  -5   4   0    8.98    0.44
   5   4   0    8.88    0.46
  -5   4   0    9.95    0.47
  -5  -4   0    9.41    0.42
  -5   4  -1    2.29    0.25
   5   4   1    2.11    0.12
   5   4   1    2.06    0.25
  -5   4  -1    2.15    0.24
  -5  -4  -1    2.27    0.23
   5   4   2    0.20    0.13
  -5   4  -2    0.30    0.13
  -5   4  -2    0.30    0.12
  -5  -4  -2    0.11    0.11
  -5   4  -3   30.65    1.01
  -5   4  -3   30.01    1.07
   5   4   3   28.19    1.02
  -5  -4  -3   30.56    0.86
  -5  -4  -3   31.32    1.04
   5   4   4    5.10    0.34
  -5   4  -4    5.30    0.36
  -5   4  -4    5.66    0.34
  -5  -4  -4    4.74    0.22
  -5  -4  -4    5.44    0.36
  -5   4  -5    2.28    0.29
  -5   4  -5    3.17    0.28
   5   4   5    2.43    0.27
  -5  -4  -5    2.60    0.18
  -5  -4  -5    2.37    0.28
  -5   4  -6    3.42    0.37
   5   4   6    3.33    0.31
  -5   4  -6    3.64    0.27
  -5  -4  -6    3.58    0.37
  -5  -4  -6    3.62    0.24
  -5   4  -7    7.51    0.39
   5   4   7    8.39    0.45
  -5   4  -7    8.84    0.54
  -5  -4  -7    8.19    0.39
  -5  -4  -7    7.79    0.50
   5   4   8   -0.06    0.15
  -5   4  -8    0.02    0.17
  -5   4  -8   -0.16    0.11
  -5  -4  -8    0.05    0.16
  -5  -4  -8   -0.12    0.11
  -5   4  -9    2.80    0.38
   5   4   9    2.86    0.30
  -5  -4  -9    2.76    0.39
  -5  -4  -9    2.38    0.29
  -5   4 -10    3.17    0.41
  -5  -4 -10    3.20    0.42
  -5  -4 -10    3.78    0.35
  -5   4 -11    3.49    0.44
  -5  -4 -11    3.44    0.45
  -5  -4 -11    4.28    0.39
  -5   4 -12    0.42    0.24
  -5  -4 -12    0.52    0.24
  -5  -4 -12    0.11    0.17
  -5   4 -13    0.19    0.22
  -5  -4 -13    0.07    0.22
  -5   4 -14    5.48    0.61
  -5  -4 -14    5.20    0.61
  -5   4 -15    3.70    0.54
  -5  -4 -15    4.37    0.56
  -5   4 -16    4.75    0.62
  -5  -4 -16    4.69    0.60
  -5   4 -17   -0.11    0.28
  -5  -4 -17    0.17    0.30
  -5   4 -18   -0.11    0.30
  -5  -4 -18    0.19    0.30
   5   5 -19    0.62    0.39
   5   5 -18    0.09    0.27
   5  -5 -18    0.46    0.35
   5   5 -17    1.84    0.43
   5  -5 -17    1.16    0.41
   5   5 -16    0.38    0.29
   5  -5 -16    0.30    0.28
   5  -5 -16    0.25    0.32
   5   5 -15    0.09    0.26
   5  -5 -15    0.12    0.27
   5  -5 -15   -0.06    0.22
   5   5 -14    0.56    0.26
   5  -5 -14    0.51    0.27
   5  -5 -14    0.48    0.25
   5   5 -13   -0.19    0.17
  -5   5  13    0.33    0.21
   5  -5 -13    0.09    0.24
   5  -5 -13    0.18    0.21
   5   5 -12    0.37    0.21
  -5   5  12    0.12    0.19
   5   5 -12    0.25    0.22
   5  -5 -12    0.57    0.27
   5  -5 -12    0.19    0.20
  -5   5  11    4.77    0.46
   5   5 -11    4.38    0.42
   5   5 -11    4.48    0.50
   5  -5 -11    4.48    0.45
   5  -5 -11    4.60    0.48
  -5   5  10    0.35    0.19
   5   5 -10    0.28    0.19
   5   5 -10   -0.03    0.18
   5  -5 -10    0.16    0.21
   5  -5 -10    0.16    0.18
   5   5  -9   14.73    0.68
   5   5  -9   14.15    0.73
  -5   5   9   13.10    0.68
   5  -5  -9   14.00    0.69
   5  -5  -9   13.09    0.70
   5   5  -8    0.00    0.15
   5   5  -8   -0.04    0.15
  -5   5   8    0.18    0.17
   5  -5  -8    0.24    0.18
   5  -5  -8   -0.03    0.16
  -5   5   7    0.25    0.18
   5   5  -7    0.64    0.20
   5   5  -7    0.42    0.17
   5  -5  -7    0.29    0.18
   5  -5  -7    0.76    0.21
  -5   5   6    9.46    0.55
   5   5  -6   10.90    0.56
   5   5  -6    9.96    0.52
   5  -5  -6   11.32    0.56
   5   5  -5    5.30    0.38
  -5   5   5    4.49    0.41
   5   5  -5    4.09    0.35
   5  -5  -5    4.43    0.39
  -5   5   4    3.01    0.34
   5   5  -4    2.89    0.27
   5   5  -4    2.61    0.31
   5   5  -3    0.15    0.13
  -5   5   3    0.14    0.14
   5   5  -3    0.13    0.11
  -5  -5   3    0.20    0.13
   5   5  -2    4.02    0.36
   5   5  -2    4.05    0.24
  -5   5   2    3.65    0.36
  -5   5   2    4.14    0.30
  -5  -5   2    3.88    0.28
  -5   5   1    4.35    0.31
   5   5  -1    4.55    0.34
  -5   5   1    4.36    0.38
   5   5  -1    4.45    0.22
  -5  -5   1    4.61    0.31
   5   5   0    2.61    0.14
   5   5   0    2.69    0.31
  -5   5   0    3.11    0.29
  -5   5   0    2.64    0.30
  -5  -5   0    2.86    0.27
  -5   5  -1    2.16    0.25
   5   5   1    2.61    0.29
  -5   5  -1    2.44    0.28
  -5  -5  -1    2.31    0.26
   5   5   2    3.00    0.32
  -5   5  -2    3.17    0.32
  -5   5  -2    3.36    0.33
  -5  -5  -2    3.65    0.33
   5   5   3    2.71    0.31
  -5   5  -3    3.33    0.32
  -5   5  -3    2.91    0.31
  -5  -5  -3    2.71    0.30
  -5   5  -4    8.66    0.50
  -5   5  -4    9.34    0.49
   5   5   4    8.62    0.50
  -5  -5  -4    9.34    0.51
  -5   5  -5    3.58    0.38
   5   5   5    3.74    0.37
  -5   5  -5    3.14    0.31
  -5  -5  -5    3.61    0.37
  -5  -5  -5    3.28    0.17
  -5   5  -6    0.35    0.19
  -5   5  -6    0.34    0.16
   5   5   6    0.38    0.18
  -5  -5  -6    0.57    0.11
  -5  -5  -6    0.53    0.21
  -5   5  -7    0.06    0.17
  -5   5  -7    0.01    0.15
   5   5   7    0.22    0.19
  -5  -5  -7    0.33    0.19
  -5   5  -8    2.75    0.29
  -5   5  -8    2.81    0.37
   5   5   8    3.08    0.35
  -5  -5  -8    2.73    0.38
  -5   5  -9   22.15    1.02
   5   5   9   24.33    0.91
  -5  -5  -9   23.53    1.03
  -5   5 -10    5.75    0.56
  -5  -5 -10    5.79    0.56
  -5   5 -11    1.04    0.29
  -5  -5 -11    1.31    0.31
  -5   5 -12    1.42    0.32
  -5  -5 -12    1.71    0.36
  -5   5 -13    1.75    0.39
  -5  -5 -13    1.21    0.32
  -5   5 -14    0.08    0.22
  -5  -5 -14   -0.11    0.21
  -5   5 -15    0.45    0.29
  -5  -5 -15    0.44    0.29
  -5   5 -16    0.91    0.36
  -5  -5 -16    1.60    0.41
  -5   5 -17    2.33    0.48
  -5  -5 -17    2.54    0.49
   5   6 -18    2.00    0.49
   5   6 -17    1.43    0.40
   5   6 -16    0.92    0.36
   5  -6 -16    0.35    0.31
   5   6 -15    1.30    0.36
   5  -6 -15    1.41    0.39
   5  -6 -15    1.37    0.35
   5   6 -14    0.07    0.24
   5  -6 -14    0.39    0.27
   5  -6 -14    0.25    0.25
  -5   6  13    0.69    0.27
   5   6 -13    0.87    0.30
   5  -6 -13    1.00    0.30
   5  -6 -13    0.93    0.30
   5   6 -12    0.13    0.22
   5   6 -12    0.11    0.21
  -5   6  12    0.14    0.21
   5  -6 -12    0.08    0.22
   5  -6 -12    0.31    0.25
   5   6 -11    5.57    0.50
  -5   6  11    5.41    0.52
   5   6 -11    5.88    0.56
   5  -6 -11    5.01    0.52
   5  -6 -11    5.54    0.52
  -5   6  10   24.56    1.04
   5   6 -10   23.43    1.06
   5   6 -10   24.80    1.01
   5  -6 -10   23.52    1.02
   5  -6 -10   24.87    1.04
   5   6  -9    0.18    0.18
  -5   6   9    0.33    0.21
   5   6  -9    0.24    0.20
   5  -6  -9   -0.11    0.19
   5  -6  -9    0.34    0.20
   5   6  -8    0.75    0.24
  -5   6   8    0.99    0.26
   5   6  -8    0.54    0.22
   5  -6  -8    0.57    0.23
   5  -6  -8    0.73    0.25
   5   6  -7    3.03    0.38
   5   6  -7    2.76    0.33
  -5   6   7    2.54    0.35
   5  -6  -7    2.44    0.32
   5  -6  -7    2.69    0.36
  -5   6   6    3.79    0.43
   5   6  -6    4.67    0.44
   5   6  -6    4.44    0.39
   5  -6  -6    4.03    0.42
   5   6  -5    0.26    0.15
  -5   6   5    0.65    0.22
   5   6  -5    0.50    0.21
   5  -6  -5    0.66    0.22
  -5   6   4    0.36    0.21
   5   6  -4    0.99    0.18
   5   6  -4    0.78    0.22
   5   6  -3    8.71    0.41
  -5   6   3    8.86    0.54
   5   6  -3    9.28    0.53
  -5  -6   3    8.17    0.45
   5   6  -2    4.06    0.40
  -5   6   2    3.82    0.40
   5   6  -2    3.58    0.24
  -5   6   2    3.83    0.33
  -5  -6   2    4.21    0.36
  -5   6   1    1.79    0.24
   5   6  -1    1.32    0.13
   5   6  -1    1.48    0.28
  -5   6   1    1.43    0.27
  -5  -6   1    1.72    0.25
   5   6   0    6.65    0.46
  -5   6   0    5.83    0.40
  -5   6   0    5.98    0.44
  -5  -6   0    5.76    0.38
  -5   6  -1    1.84    0.28
  -5   6  -1    1.70    0.24
   5   6   1    2.86    0.35
  -5  -6  -1    2.30    0.29
  -5   6  -2   26.54    1.02
  -5   6  -2   26.03    1.00
   5   6   2   27.68    1.05
  -5  -6  -2   26.30    0.99
  -5   6  -3   -0.05    0.12
   5   6   3    0.13    0.18
  -5   6  -3    0.06    0.17
  -5  -6  -3    0.13    0.16
  -5   6  -4    1.46    0.26
  -5   6  -4    1.41    0.26
   5   6   4    1.35    0.28
  -5  -6  -4    1.55    0.27
  -5   6  -5    2.59    0.34
   5   6   5    2.98    0.37
  -5   6  -5    2.85    0.34
  -5  -6  -5    2.39    0.34
  -5   6  -6    0.84    0.23
  -5   6  -6    0.91    0.24
   5   6   6    1.57    0.28
  -5  -6  -6    1.22    0.27
  -5   6  -7    0.69    0.23
   5   6   7    1.16    0.28
  -5   6  -7    1.53    0.27
  -5  -6  -7    0.84    0.25
  -5   6  -8    7.35    0.46
   5   6   8    9.24    0.56
  -5   6  -8    7.30    0.63
  -5  -6  -8    8.51    0.57
  -5   6  -9   -0.03    0.19
   5   6   9   -0.16    0.19
  -5  -6  -9    0.10    0.18
  -5   6 -10   19.73    1.00
  -5  -6 -10   22.47    1.04
  -5   6 -11   -0.04    0.19
  -5  -6 -11    0.21    0.21
  -5   6 -12    2.41    0.41
  -5  -6 -12    2.13    0.40
  -5   6 -13    2.97    0.47
  -5  -6 -13    3.02    0.48
  -5   6 -14    5.52    0.62
  -5  -6 -14    4.70    0.60
  -5   6 -15    1.62    0.39
  -5  -6 -15    0.91    0.36
  -5   6 -16    0.64    0.34
  -5  -6 -16    1.13    0.39
  -5   6 -17    0.82    0.37
  -5  -6 -17    1.12    0.40
   5   7 -17    4.22    0.62
   5   7 -16    2.25    0.47
   5  -7 -16    2.76    0.47
   5   7 -15   -0.07    0.25
   5  -7 -15    0.02    0.27
   5   7 -14    0.78    0.30
   5  -7 -14    1.01    0.33
   5   7 -13    0.66    0.30
  -5   7  13    1.40    0.34
   5  -7 -13    1.65    0.37
   5   7 -12    0.23    0.23
  -5   7  12   -0.22    0.21
   5   7 -12    0.06    0.22
   5  -7 -12    0.03    0.23
   5  -7 -12    0.25    0.24
   5   7 -11    5.12    0.54
   5   7 -11    5.47    0.54
  -5   7  11    6.54    0.60
   5  -7 -11    5.53    0.55
   5  -7 -11    5.67    0.54
   5   7 -10   -0.04    0.20
  -5   7  10   -0.10    0.19
   5   7 -10   -0.09    0.19
   5  -7 -10   -0.01    0.20
   5  -7 -10   -0.10    0.19
   5   7  -9    5.71    0.54
  -5   7   9    6.03    0.56
   5   7  -9    5.54    0.52
   5  -7  -9    5.76    0.50
   5  -7  -9    5.80    0.56
   5   7  -8    9.79    0.60
   5   7  -8   10.61    0.64
  -5   7   8    9.65    0.63
   5  -7  -8   10.60    0.63
   5  -7  -8   10.33    0.59
   5   7  -7   18.51    0.84
   5   7  -7   15.71    0.75
  -5   7   7   16.03    0.84
   5  -7  -7   16.33    0.76
   5  -7  -7   17.34    0.84
  -5   7   6    7.27    0.53
   5   7  -6    7.18    0.46
   5   7  -6    7.86    0.54
   5  -7  -6    7.26    0.60
   5   7  -5   -0.19    0.13
  -5   7   5   -0.12    0.19
   5   7  -5    0.17    0.21
   5  -7  -5    0.33    0.23
   5   7  -4   14.60    0.76
  -5   7   4   16.31    0.80
   5   7  -4   14.75    0.62
  -5   7   3    0.68    0.25
   5   7  -3    0.81    0.16
   5   7  -3    0.58    0.25
  -5  -7   3    0.81    0.22
   5   7  -2    9.00    0.38
  -5   7   2    8.48    0.58
  -5   7   2    9.39    0.51
   5   7  -2    9.64    0.58
  -5  -7   2    9.52    0.53
   5   7  -1   30.83    1.20
  -5   7   1   30.89    1.19
  -5   7   1   29.81    1.09
  -5  -7   1   30.66    1.11
  -5   7   0   23.56    0.99
  -5   7   0   24.44    0.93
   5   7   0   22.33    0.98
  -5  -7   0   23.01    0.93
  -5   7  -1   11.76    0.66
  -5   7  -1   12.59    0.62
   5   7   1   12.85    0.70
  -5  -7  -1   13.25    0.65
  -5   7  -2    1.50    0.26
   5   7   2    1.74    0.33
  -5   7  -2    1.73    0.30
  -5  -7  -2    1.42    0.28
  -5   7  -3    8.58    0.55
  -5   7  -3    8.50    0.53
   5   7   3    8.96    0.59
  -5  -7  -3    7.82    0.52
  -5   7  -4   33.09    1.21
  -5   7  -4   30.30    1.20
   5   7   4   32.99    1.26
  -5  -7  -4   31.02    1.20
  -5   7  -5    4.19    0.42
  -5   7  -5    3.95    0.43
   5   7   5    4.53    0.48
  -5  -7  -5    3.81    0.44
   5   7   6    0.26    0.22
  -5   7  -6    0.23    0.20
  -5   7  -6    0.94    0.24
  -5  -7  -6    0.26    0.21
  -5   7  -7    4.49    0.48
   5   7   7    5.30    0.51
  -5   7  -7    3.31    0.39
  -5  -7  -7    4.32    0.47
   5   7   8    7.30    0.55
  -5   7  -8    7.28    0.63
  -5   7  -8    7.19    0.49
  -5  -7  -8    7.06    0.62
  -5   7  -9    0.19    0.21
   5   7   9    0.04    0.22
  -5  -7  -9    0.21    0.22
  -5   7 -10    4.03    0.50
  -5  -7 -10    3.98    0.50
  -5   7 -11   16.02    0.91
  -5  -7 -11   15.30    0.89
  -5   7 -12   -0.32    0.17
  -5  -7 -12    0.11    0.24
  -5   7 -13    2.79    0.48
  -5  -7 -13    2.51    0.46
  -5   7 -14    0.70    0.31
  -5  -7 -14    0.62    0.32
  -5   7 -15    0.99    0.37
  -5  -7 -15    0.66    0.33
  -5   7 -16    4.10    0.61
  -5  -7 -16    2.42    0.51
   5   8 -16   -0.01    0.29
   5  -8 -16    0.37    0.32
   5   8 -15    1.06    0.36
   5  -8 -15    0.91    0.36
   5   8 -14    0.65    0.32
   5  -8 -14    1.52    0.38
   5   8 -13   -0.23    0.22
  -5   8  13    0.09    0.26
   5  -8 -13    0.05    0.27
   5   8 -12    6.06    0.61
  -5   8  12    5.41    0.59
   5  -8 -12    5.19    0.60
   5   8 -11    1.15    0.32
  -5   8  11    1.11    0.33
   5   8 -11    0.96    0.31
   5  -8 -11    0.88    0.31
   5   8 -10    0.67    0.27
  -5   8  10    0.54    0.29
   5   8 -10    0.79    0.27
   5  -8 -10    0.97    0.32
   5   8  -9    0.63    0.23
  -5   8   9   -0.07    0.23
   5   8  -9    0.30    0.24
   5  -8  -9    0.31    0.24
  -5   8   8    2.77    0.42
   5   8  -8    2.37    0.38
   5   8  -8    2.16    0.33
   5  -8  -8    2.38    0.39
   5   8  -7    2.50    0.33
  -5   8   7    1.67    0.34
   5   8  -7    2.59    0.39
   5  -8  -7    2.27    0.33
   5  -8  -7    2.10    0.38
  -5   8   6    1.05    0.29
   5   8  -6    1.23    0.24
   5   8  -6    1.60    0.34
   5  -8  -6    1.35    0.33
   5   8  -5    3.99    0.48
  -5   8   5    4.47    0.51
   5   8  -5    3.76    0.36
   5  -8  -5    4.15    0.49
   5   8  -4   23.20    1.04
  -5   8   4   24.60    1.08
   5   8  -3    0.86    0.26
  -5   8   3    0.99    0.29
  -5  -8   3    0.83    0.24
   5   8  -2    3.76    0.47
  -5   8   2    4.10    0.48
  -5  -8   2    5.07    0.47
   5   8  -1    4.36    0.49
  -5   8   1    4.01    0.46
  -5   8   1    4.70    0.41
  -5  -8   1    4.55    0.44
  -5   8   0   27.53    1.15
   5   8   0   28.16    1.17
  -5   8   0   25.72    1.04
  -5  -8   0   29.92    1.12
   5   8   1    3.01    0.41
  -5   8  -1    3.04    0.35
  -5   8  -1    3.03    0.39
  -5  -8  -1    2.45    0.36
  -5   8  -2    0.84    0.22
  -5   8  -2    0.61    0.25
   5   8   2    1.10    0.31
  -5  -8  -2    1.01    0.27
   5   8   3    0.19    0.23
  -5   8  -3    0.11    0.17
  -5   8  -3   -0.30    0.16
  -5  -8  -3    0.18    0.20
   5   8   4    9.37    0.64
  -5   8  -4    9.53    0.59
  -5   8  -4    8.40    0.57
  -5  -8  -4    9.83    0.61
  -5   8  -5   14.28    0.75
  -5   8  -5   13.58    0.73
   5   8   5   14.80    0.81
  -5  -8  -5   14.29    0.77
   5   8   6   10.25    0.68
  -5   8  -6   10.56    0.65
  -5   8  -6   10.91    0.63
  -5  -8  -6   10.89    0.67
  -5   8  -7    0.00    0.18
   5   8   7    0.06    0.22
  -5   8  -7    0.02    0.20
  -5  -8  -7   -0.34    0.16
  -5   8  -8    1.65    0.31
  -5   8  -8    1.21    0.31
   5   8   8    1.70    0.36
  -5  -8  -8    1.06    0.29
  -5   8  -9    0.15    0.21
   5   8   9    0.01    0.22
  -5  -8  -9   -0.01    0.21
  -5   8 -10    1.48    0.34
  -5  -8 -10    1.66    0.36
  -5   8 -11   -0.03    0.22
  -5  -8 -11    0.10    0.25
  -5   8 -12    3.42    0.51
  -5  -8 -12    4.09    0.55
  -5   8 -13   -0.03    0.25
  -5  -8 -13   -0.15    0.24
  -5   8 -14    2.42    0.47
  -5  -8 -14    1.28    0.40
  -5   8 -15    0.10    0.28
  -5  -8 -15   -0.18    0.27
   5   9 -15    0.61    0.33
   5  -9 -15    1.05    0.38
   5   9 -14    0.30    0.28
   5  -9 -14    0.07    0.29
   5   9 -13    0.25    0.28
  -5   9  13   -0.10    0.28
   5  -9 -13    0.32    0.29
  -5   9  12    1.41    0.39
   5   9 -12    0.88    0.31
   5  -9 -12    1.46    0.38
  -5   9  11    0.43    0.29
   5   9 -11    0.52    0.30
   5   9 -11    0.43    0.26
   5  -9 -11    0.01    0.24
   5   9 -10    0.05    0.25
  -5   9  10   -0.07    0.23
   5   9 -10   -0.18    0.19
   5  -9 -10   -0.34    0.22
  -5   9   9    6.80    0.66
   5   9  -9    7.20    0.55
   5   9  -9    6.44    0.64
   5  -9  -9    7.26    0.68
  -5   9   8    0.31    0.27
   5   9  -8    0.03    0.23
   5  -9  -8    0.36    0.28
   5   9  -7    6.91    0.65
  -5   9   7    7.00    0.66
   5  -9  -7    5.21    0.59
   5   9  -6    0.89    0.31
  -5   9   6    1.65    0.36
   5  -9  -6    1.48    0.36
  -5   9   5    5.78    0.59
   5   9  -5    6.66    0.63
   5  -9  -5    5.09    0.57
   5   9  -4    0.55    0.26
  -5   9   4   -0.10    0.21
  -5  -9   4    0.63    0.26
   5   9  -3    0.87    0.30
  -5   9   3    0.90    0.31
  -5  -9   3    1.24    0.29
  -5   9   2    3.22    0.44
   5   9  -2    3.62    0.48
  -5  -9   2    2.81    0.40
   5   9  -1    0.51    0.26
  -5   9   1    1.38    0.32
  -5   9   1    1.54    0.26
  -5  -9   1    1.35    0.30
  -5   9   0   -0.15    0.15
  -5   9   0   -0.05    0.18
   5   9   0    0.12    0.23
  -5  -9   0    0.01    0.18
   5   9   1    0.04    0.22
  -5   9  -1    0.08    0.17
  -5   9  -1   -0.15    0.19
  -5  -9  -1    0.12    0.21
  -5   9  -2    1.71    0.33
  -5   9  -2    1.11    0.25
   5   9   2    1.23    0.33
  -5  -9  -2    2.02    0.34
  -5   9  -3    0.01    0.17
   5   9   3    0.09    0.23
  -5   9  -3   -0.01    0.20
  -5  -9  -3    0.15    0.22
  -5   9  -4    1.71    0.35
   5   9   4    2.34    0.41
  -5   9  -4    2.21    0.34
  -5  -9  -4    1.79    0.34
  -5   9  -5    0.15    0.21
   5   9   5    0.64    0.28
  -5   9  -5    0.35    0.24
  -5  -9  -5    0.12    0.23
  -5   9  -6    7.74    0.58
   5   9   6    7.93    0.70
  -5   9  -6    7.09    0.62
  -5  -9  -6    7.19    0.66
  -5   9  -7   -0.16    0.18
  -5   9  -7    0.05    0.23
   5   9   7    0.51    0.28
  -5  -9  -7    0.12    0.23
   5   9   8   -0.32    0.22
  -5   9  -8   -0.14    0.22
  -5   9  -8   -0.11    0.19
  -5  -9  -8    0.56    0.27
  -5   9  -9    1.05    0.30
   5   9   9    1.64    0.38
  -5  -9  -9    1.74    0.37
  -5   9 -10    4.27    0.54
  -5  -9 -10    3.82    0.53
  -5   9 -11    0.75    0.30
  -5  -9 -11    0.22    0.27
  -5   9 -12    0.15    0.27
  -5  -9 -12    0.14    0.29
  -5   9 -13    1.63    0.41
  -5  -9 -13    2.73    0.49
  -5   9 -14    0.58    0.33
  -5  -9 -14    0.80    0.36
   5 -10 -14    1.42    0.43
  -5  10  13    1.28    0.41
   5 -10 -13    1.00    0.37
  -5  10  12    0.53    0.35
   5 -10 -12    1.29    0.41
   5  10 -11    0.62    0.31
  -5  10  11    0.27    0.31
   5 -10 -11    0.48    0.32
  -5  10  10    6.41    0.68
   5  10 -10    7.17    0.69
   5 -10 -10    5.57    0.65
   5  10  -9    0.48    0.30
  -5  10   9    0.55    0.32
   5 -10  -9    0.69    0.34
  -5  10   8    0.49    0.29
   5  10  -8   -0.12    0.27
   5 -10  -8    0.09    0.25
   5  10  -7    1.03    0.33
  -5  10   7    0.81    0.32
   5 -10  -7    0.44    0.29
   5  10  -6    0.46    0.27
  -5  10   6    0.01    0.24
   5 -10  -6   -0.30    0.22
  -5  10   5    9.59    0.72
   5  10  -5    9.84    0.71
  -5 -10   5    8.83    0.61
   5 -10  -5    8.50    0.76
  -5  10   4    0.34    0.26
   5  10  -4    0.55    0.29
  -5 -10   4    0.07    0.23
   5 -10  -4    0.51    0.29
   5  10  -3    0.33    0.27
  -5  10   3    0.82    0.31
  -5 -10   3   -0.02    0.23
  -5  10   2    8.42    0.73
   5  10  -2    8.67    0.75
  -5 -10   2    9.07    0.62
  -5  10   1    2.85    0.44
   5  10  -1    2.68    0.45
  -5 -10   1    3.09    0.43
  -5  10   0    0.56    0.27
   5  10   0    0.10    0.24
  -5  10   0   -0.07    0.18
  -5 -10   0   -0.39    0.21
  -5  10  -1   -0.16    0.17
  -5  10  -1   -0.13    0.21
   5  10   1   -0.06    0.24
  -5 -10  -1    0.17    0.23
   5  10   2    3.62    0.50
  -5  10  -2    3.26    0.41
  -5  10  -2    3.79    0.49
  -5 -10  -2    3.35    0.46
  -5  10  -3    0.74    0.30
   5  10   3    0.31    0.28
  -5  10  -3    0.99    0.27
  -5 -10  -3    1.10    0.31
  -5  10  -4    0.08    0.20
   5  10   4   -0.10    0.23
  -5  10  -4   -0.08    0.23
  -5 -10  -4   -0.19    0.22
  -5  10  -5    3.48    0.45
  -5  10  -5    3.88    0.49
   5  10   5    3.57    0.51
  -5 -10  -5    2.35    0.41
   5  10   6    0.18    0.27
  -5  10  -6    0.19    0.22
  -5  10  -6   -0.20    0.21
  -5 -10  -6   -0.34    0.19
   5  10   7    0.46    0.31
  -5  10  -7   -0.05    0.23
  -5  10  -7    0.42    0.26
  -5 -10  -7   -0.19    0.21
  -5  10  -8    3.30    0.47
   5  10   8    3.02    0.51
  -5  10  -8    2.38    0.42
  -5 -10  -8    2.62    0.47
  -5  10  -9    0.21    0.24
   5  10   9    0.05    0.29
  -5 -10  -9    0.21    0.26
  -5  10 -10    0.94    0.32
  -5 -10 -10    1.22    0.36
  -5  10 -11   -0.06    0.24
  -5 -10 -11   -0.24    0.25
  -5  10 -12    2.04    0.43
  -5 -10 -12    2.23    0.48
  -5  11  12   -0.04    0.34
   5 -11 -12    0.52    0.34
  -5  11  11    1.11    0.43
   5  11 -11    1.76    0.44
   5 -11 -11    1.52    0.43
  -5  11  10    0.02    0.30
   5  11 -10   -0.13    0.30
   5 -11 -10    0.00    0.29
   5  11  -9    1.77    0.44
  -5  11   9    1.55    0.43
   5 -11  -9    1.29    0.40
  -5  11   8    0.13    0.28
   5  11  -8    0.09    0.28
   5 -11  -8    0.05    0.28
   5  11  -7    1.63    0.42
  -5  11   7    1.90    0.42
   5 -11  -7    1.93    0.45
   5  11  -6    5.16    0.62
  -5  11   6    4.33    0.58
   5 -11  -6    5.03    0.62
  -5 -11   6    4.51    0.53
   5  11  -5    0.13    0.27
  -5  11   5   -0.06    0.23
  -5 -11   5    0.16    0.27
   5 -11  -5    0.03    0.29
  -5  11   4    0.59    0.32
   5  11  -4    0.87    0.34
   5 -11  -4    0.60    0.32
  -5 -11   4    0.28    0.29
   5  11  -3    1.12    0.37
  -5  11   3    1.01    0.35
  -5 -11   3    0.81    0.32
   5 -11  -3    0.05    0.27
  -5  11   2    0.49    0.29
   5  11  -2    0.92    0.33
  -5 -11   2    0.97    0.30
  -5  11   1    2.88    0.47
   5  11  -1    3.46    0.50
  -5 -11   1    3.75    0.48
  -5  11   0    0.99    0.32
   5  11   0    0.77    0.32
  -5 -11   0    0.63    0.29
  -5  11  -1    3.38    0.49
   5  11   1    3.14    0.50
  -5 -11  -1    3.80    0.51
   5  11   2    0.18    0.29
  -5  11  -2    0.28    0.26
  -5 -11  -2    0.57    0.29
   5  11   3    1.45    0.38
  -5  11  -3    1.12    0.36
  -5 -11  -3    1.20    0.34
   5  11   4    0.50    0.32
  -5  11  -4    0.36    0.24
  -5  11  -4    0.28    0.29
  -5 -11  -4    0.19    0.26
  -5  11  -5    0.59    0.28
  -5  11  -5    0.62    0.32
   5  11   5    0.76    0.35
  -5 -11  -5    0.53    0.29
  -5  11  -6    0.51    0.30
   5  11   6    0.65    0.35
  -5  11  -6    0.53    0.27
  -5 -11  -6    0.93    0.34
  -5  11  -7    2.32    0.43
  -5  11  -7    1.48    0.39
   5  11   7    1.62    0.43
  -5 -11  -7    2.14    0.44
   5  11   8    0.20    0.30
  -5  11  -8    0.03    0.25
  -5 -11  -8   -0.51    0.23
  -5  11  -9   -0.25    0.23
   5  11   9    0.16    0.32
  -5 -11  -9    0.06    0.29
  -5  11 -10    0.36    0.30
  -5 -11 -10    0.38    0.30
  -5  11 -11    3.65    0.53
  -5 -11 -11    2.21    0.47
   5  12 -10    1.60    0.47
  -5  12  10    1.65    0.46
   5 -12 -10    1.87    0.48
  -5  12   9    0.42    0.35
   5  12  -9    0.17    0.33
   5 -12  -9    0.25    0.34
   5  12  -8    3.10    0.56
  -5  12   8    2.24    0.50
   5 -12  -8    2.60    0.51
   5  12  -7   -0.08    0.29
  -5  12   7    0.13    0.30
   5 -12  -7    0.35    0.33
   5  12  -6    0.78    0.37
  -5  12   6    0.49    0.33
  -5 -12   6    0.81    0.36
   5 -12  -6    0.37    0.33
   5  12  -5    1.00    0.38
  -5  12   5    0.41    0.34
   5 -12  -5    1.09    0.38
  -5 -12   5    1.00    0.37
   5  12  -4    0.91    0.38
  -5  12   4    0.29    0.30
   5 -12  -4    0.22    0.32
  -5 -12   4    0.60    0.33
  -5  12   3    0.63    0.32
   5  12  -3    0.27    0.31
  -5 -12   3    0.78    0.34
   5 -12  -3    0.29    0.34
  -5  12   2    3.71    0.55
   5  12  -2    2.91    0.52
  -5 -12   2    4.76    0.57
   5  12  -1    0.98    0.36
  -5  12   1    0.91    0.35
  -5 -12   1    1.66    0.40
   5  12   0    2.31    0.48
  -5  12   0    1.93    0.42
  -5 -12   0    1.83    0.41
  -5  12  -1    0.49    0.31
   5  12   1    0.77    0.34
  -5 -12  -1   -0.02    0.28
  -5  12  -2    3.55    0.55
   5  12   2    2.63    0.51
  -5 -12  -2    3.55    0.53
  -5  12  -3    0.49    0.34
   5  12   3   -0.17    0.25
  -5 -12  -3    0.36    0.32
  -5  12  -4    0.91    0.36
   5  12   4    0.62    0.36
  -5 -12  -4    0.44    0.32
   5  12   5    0.64    0.36
  -5  12  -5    0.05    0.30
  -5 -12  -5    0.67    0.34
   5  12   6    1.81    0.46
  -5  12  -6    1.26    0.39
  -5 -12  -6    2.16    0.46
  -5  12  -7   -0.15    0.30
   5  12   7    0.22    0.33
  -5 -12  -7    0.27    0.30
   5  12   8    2.63    0.56
  -5 -12  -8    1.94    0.46
   5  12   9   -0.17    0.34
  -5 -12  -9    0.02    0.29
  -5  13   7    2.06    0.50
   5  13  -7    1.51    0.47
   5 -13  -7    1.45    0.46
  -5  13   6    0.84    0.38
   5  13  -6    0.75    0.37
   5 -13  -6    0.38    0.38
  -5  13   5    0.70    0.36
   5  13  -5    0.04    0.33
   5 -13  -5   -0.19    0.34
  -5 -13   5    0.81    0.36
  -5  13   4    0.18    0.31
   5  13  -4    0.48    0.36
   5 -13  -4    0.24    0.34
  -5 -13   4    0.17    0.33
  -5  13   3    0.51    0.35
   5  13  -3    0.98    0.40
  -5 -13   3    0.68    0.37
   5 -13  -3    1.03    0.43
  -5  13   2    0.31    0.33
   5  13  -2   -0.29    0.28
  -5 -13   2   -0.15    0.29
   5 -13  -2   -0.05    0.31
  -5  13   1    0.84    0.38
   5  13  -1    1.24    0.41
  -5 -13   1    0.73    0.36
   5  13   0    1.53    0.44
  -5  13   0    1.01    0.40
  -5 -13   0    1.03    0.39
   5  13   1    1.01    0.39
  -5  13  -1    0.63    0.36
  -5 -13  -1    0.88    0.35
  -5  13  -2    0.01    0.31
   5  13   2    0.02    0.33
  -5 -13  -2    0.55    0.34
   5  13   3    2.82    0.56
  -5  13  -3    3.31    0.57
  -5 -13  -3    3.69    0.58
  -5  13  -4    0.43    0.37
   5  13   4    0.20    0.35
  -5 -13  -4    0.70    0.35
   5  13   5   -0.07    0.33
  -5  13  -5    0.10    0.34
  -5 -13  -5   -0.21    0.28
  -5  13  -6    0.07    0.36
   5  13   6    0.19    0.36
  -5 -13  -6    0.65    0.37
   6   0 -20    0.32    0.39
   6   0 -19   -0.11    0.30
   6   0 -18    1.93    0.49
   6   0 -17    0.26    0.30
   6   0 -16    3.46    0.53
   6   0 -15    0.09    0.25
   6   0 -14    6.34    0.64
  -6   0  13   -0.01    0.14
   6   0 -13    0.25    0.24
   6   0 -12   10.73    0.69
  -6   0  12    9.49    0.50
   6   0 -11   -0.14    0.20
   6   0 -11   -0.14    0.11
  -6   0  11   -0.18    0.10
  -6   0  10    0.26    0.15
   6   0 -10    0.52    0.13
   6   0 -10   -0.10    0.19
  -6   0   9   -0.14    0.10
   6   0  -9    0.03    0.15
   6   0  -9    0.03    0.09
   6   0  -8   10.64    0.38
  -6   0   8   10.84    0.50
   6   0  -8   10.77    0.59
  -6   0   7    0.07    0.11
   6   0  -7    0.06    0.14
   6   0  -7   -0.03    0.06
   6   0  -6    5.55    0.36
  -6   0   6    5.50    0.32
   6   0  -6    4.91    0.19
  -6   0   5    0.07    0.09
   6   0  -5   -0.11    0.11
  -6   0   4    5.15    0.31
  -6   0   3    0.05    0.09
  -6   0   2    1.68    0.19
  -6   0   1    0.06    0.07
  -6   0   0    0.18    0.08
  -6   0   0    0.09    0.08
  -6   0   0    0.11    0.08
  -6   0  -1   -0.03    0.07
  -6   0  -1   -0.07    0.06
  -6   0  -1   -0.03    0.06
  -6   0  -2   37.04    1.19
  -6   0  -2   37.74    1.17
  -6   0  -2   39.08    1.15
  -6   0  -3   -0.05    0.09
  -6   0  -3    0.07    0.10
  -6   0  -3    0.01    0.07
  -6   0  -4    2.25    0.19
  -6   0  -4    2.12    0.24
  -6   0  -4    2.00    0.22
  -6   0  -5    0.10    0.11
  -6   0  -5   -0.09    0.09
  -6   0  -5    0.00    0.07
  -6   0  -6    3.42    0.33
  -6   0  -6    3.33    0.19
  -6   0  -6    3.18    0.31
  -6   0  -7   -0.24    0.09
  -6   0  -7   -0.02    0.14
   6   0   7   -0.12    0.07
  -6   0  -8    9.68    0.55
  -6   0  -8   10.70    0.58
  -6   0  -9   -0.05    0.15
  -6   0  -9    0.08    0.17
  -6   0 -10   33.65    1.29
  -6   0 -10   34.77    1.31
  -6   0 -11    0.12    0.20
  -6   0 -11    0.10    0.17
  -6   0 -12    0.03    0.18
  -6   0 -12   -0.19    0.17
  -6   0 -13    0.03    0.20
  -6   0 -13   -0.01    0.19
  -6   0 -14   13.54    0.80
  -6   0 -14   12.24    0.77
  -6   0 -15   -0.13    0.23
  -6   0 -15   -0.19    0.23
  -6   0 -16    3.32    0.53
  -6   0 -16    3.53    0.52
  -6   0 -17   -0.11    0.25
  -6   0 -17   -0.27    0.26
  -6   0 -18    0.83    0.36
  -6   0 -18    0.93    0.38
   6   1 -20   -0.17    0.32
   6  -1 -20    0.02    0.36
   6   1 -19    0.17    0.32
   6  -1 -19   -0.03    0.31
   6   1 -18    2.74    0.52
   6  -1 -18    3.65    0.57
   6   1 -17    1.01    0.40
   6  -1 -17    1.06    0.38
   6   1 -16    1.96    0.42
   6  -1 -16    0.92    0.36
   6   1 -15    7.50    0.74
   6  -1 -15    9.26    0.79
   6   1 -14    1.26    0.35
   6  -1 -14    1.61    0.38
  -6   1  13    6.16    0.40
   6   1 -13    6.30    0.61
   6  -1 -13    5.62    0.59
  -6  -1  13    6.09    0.39
   6   1 -12    0.03    0.22
  -6   1  12    0.01    0.13
  -6  -1  12    0.18    0.15
   6  -1 -12    0.06    0.13
   6  -1 -12    0.20    0.23
  -6   1  11    2.25    0.27
   6   1 -11    1.54    0.33
   6  -1 -11    2.03    0.24
   6  -1 -11    2.24    0.38
  -6  -1  11    2.44    0.27
   6   1 -10    4.98    0.49
  -6   1  10    5.81    0.37
  -6  -1  10    5.12    0.35
   6  -1 -10    5.52    0.50
   6  -1 -10    4.65    0.30
   6   1  -9    3.92    0.43
  -6   1   9    5.09    0.34
   6  -1  -9    4.85    0.46
  -6  -1   9    4.91    0.34
   6  -1  -9    4.44    0.26
  -6   1   8   20.63    0.78
   6   1  -8   20.26    0.87
  -6  -1   8   19.99    0.76
   6  -1  -8   20.03    0.67
   6  -1  -8   22.20    0.88
   6   1  -7   17.09    0.74
  -6   1   7   16.58    0.67
  -6  -1   7   17.28    0.67
   6  -1  -7   17.52    0.57
   6  -1  -7   17.19    0.75
  -6   1   6    3.03    0.28
   6   1  -6    4.32    0.37
   6  -1  -6    3.75    0.34
   6  -1  -6    3.53    0.19
  -6  -1   6    4.35    0.28
   6   1  -5   14.12    0.60
  -6   1   5   13.50    0.56
   6  -1  -5   13.59    0.45
  -6  -1   5   13.50    0.55
   6   1  -4   20.93    0.78
  -6   1   4   21.66    0.76
  -6  -1   4   20.69    0.75
  -6   1   3   50.06    1.55
  -6  -1   3   53.82    1.56
  -6   1   2   73.76    2.09
  -6  -1   2   71.47    1.94
  -6  -1   2   72.84    2.08
  -6   1   1    3.53    0.25
  -6   1   1    4.06    0.25
  -6  -1   1    3.71    0.19
  -6  -1   1    3.78    0.24
  -6   1   0   21.24    0.73
  -6   1   0   21.10    0.75
  -6  -1   0   21.68    0.68
  -6  -1   0   21.34    0.71
  -6  -1   0   21.85    0.74
  -6   1  -1   46.75    1.36
  -6   1  -1   44.49    1.40
  -6  -1  -1   46.68    1.36
  -6  -1  -1   44.71    1.36
  -6  -1  -1   45.50    1.34
  -6   1  -2    1.20    0.18
  -6   1  -2    1.62    0.17
  -6  -1  -2    1.29    0.17
  -6  -1  -2    1.37    0.16
  -6  -1  -2    1.70    0.17
  -6   1  -3    5.26    0.32
  -6   1  -3    5.72    0.28
  -6   1  -3    5.17    0.32
  -6  -1  -3    5.26    0.32
  -6  -1  -3    5.68    0.28
  -6  -1  -3    4.89    0.29
   6   1   4    1.23    0.15
  -6   1  -4    1.27    0.14
  -6   1  -4    1.27    0.19
  -6   1  -4    1.10    0.18
  -6  -1  -4    1.20    0.19
  -6  -1  -4    1.44    0.16
  -6  -1  -4    1.30    0.18
   6   1   5   14.69    0.54
  -6   1  -5   15.13    0.52
  -6   1  -5   15.76    0.65
  -6   1  -5   15.29    0.65
  -6  -1  -5   15.01    0.64
  -6  -1  -5   15.50    0.61
  -6   1  -6   16.34    0.71
  -6   1  -6   16.42    0.54
  -6   1  -6   16.13    0.70
   6   1   6   15.95    0.56
  -6  -1  -6   16.35    0.69
  -6  -1  -6   16.38    0.66
  -6   1  -7   18.71    0.59
  -6   1  -7   18.93    0.81
  -6   1  -7   20.14    0.82
   6   1   7   18.29    0.62
  -6  -1  -7   19.64    0.80
  -6  -1  -7   19.84    0.78
  -6   1  -8    6.93    0.46
  -6   1  -8    6.99    0.48
   6   1   8    7.02    0.30
  -6  -1  -8    6.21    0.42
  -6  -1  -8    7.09    0.46
  -6   1  -9    2.84    0.35
  -6   1  -9    4.06    0.43
  -6  -1  -9    2.83    0.37
  -6  -1  -9    3.58    0.37
  -6   1 -10    1.56    0.32
  -6   1 -10    1.74    0.31
  -6  -1 -10    1.93    0.30
  -6  -1 -10    1.33    0.29
  -6   1 -11    1.24    0.29
  -6   1 -11    2.09    0.36
  -6  -1 -11    1.81    0.33
  -6  -1 -11    2.08    0.33
  -6   1 -12    0.53    0.25
  -6   1 -12    0.10    0.20
  -6  -1 -12    0.49    0.23
  -6  -1 -12    0.29    0.22
  -6   1 -13    0.00    0.20
  -6   1 -13    0.09    0.23
  -6  -1 -13    0.28    0.23
  -6  -1 -13   -0.01    0.19
  -6   1 -14    8.91    0.76
  -6   1 -14    7.82    0.71
  -6  -1 -14    9.25    0.65
  -6  -1 -14    8.14    0.72
  -6   1 -15    9.58    0.71
  -6   1 -15    9.12    0.79
  -6  -1 -15    8.23    0.72
  -6  -1 -15    9.25    0.68
  -6   1 -16    0.30    0.26
  -6   1 -16   -0.14    0.25
  -6  -1 -16   -0.09    0.23
  -6  -1 -16   -0.34    0.20
  -6   1 -17    3.17    0.53
  -6   1 -17    3.44    0.54
  -6  -1 -17    3.81    0.57
  -6  -1 -17    3.69    0.54
  -6   1 -18   -0.12    0.27
  -6  -1 -18    0.48    0.31
  -6  -1 -18   -0.18    0.29
   6   2 -20    0.08    0.33
   6  -2 -20   -0.26    0.36
   6   2 -19    4.62    0.68
   6  -2 -19    4.47    0.67
   6   2 -18    0.19    0.30
   6  -2 -18    0.13    0.31
   6   2 -17    0.64    0.31
   6  -2 -17    0.91    0.37
   6   2 -16    0.71    0.33
   6  -2 -16    0.30    0.27
   6   2 -15    0.58    0.28
   6  -2 -15    0.43    0.28
   6   2 -14    5.38    0.61
   6  -2 -14    5.90    0.61
   6   2 -13   -0.17    0.20
  -6   2  13    0.06    0.13
   6  -2 -13    0.40    0.24
   6  -2 -13    0.29    0.17
  -6   2  12    5.59    0.40
   6   2 -12    5.10    0.54
   6   2 -12    7.08    0.43
   6  -2 -12    6.03    0.40
   6  -2 -12    4.89    0.52
  -6   2  11    1.00    0.21
   6   2 -11    0.95    0.21
   6   2 -11    1.59    0.33
   6  -2 -11    0.70    0.19
   6  -2 -11    0.93    0.29
   6   2 -10   24.24    0.91
   6   2 -10   24.18    1.05
  -6   2  10   25.34    0.92
   6  -2 -10   24.15    0.85
   6  -2 -10   22.75    1.01
  -6  -2  10   24.72    0.90
   6   2  -9   22.54    0.99
  -6   2   9   24.08    0.90
   6  -2  -9   23.08    0.99
   6  -2  -9   23.87    0.82
  -6  -2   9   26.02    0.89
   6   2  -8    0.20    0.16
  -6   2   8    0.06    0.12
   6  -2  -8    0.01    0.15
   6  -2  -8    0.10    0.11
  -6  -2   8    0.02    0.11
  -6   2   7   25.85    0.93
   6   2  -7   25.78    0.99
   6  -2  -7   25.66    0.99
  -6  -2   7   26.37    0.92
   6  -2  -7   26.91    0.85
   6   2  -6    0.47    0.17
  -6   2   6    0.61    0.16
   6  -2  -6    0.74    0.18
   6  -2  -6    0.60    0.13
  -6  -2   6    0.45    0.13
   6   2  -5    0.76    0.18
  -6   2   5    0.62    0.15
   6  -2  -5    0.69    0.13
  -6  -2   5    0.49    0.13
  -6   2   4    8.24    0.40
   6   2  -4    7.18    0.39
  -6  -2   4    7.58    0.39
  -6   2   3   25.99    0.88
   6   2  -3   25.66    0.86
  -6  -2   3   25.64    0.72
  -6  -2   3   24.00    0.86
  -6   2   2   72.57    2.11
  -6  -2   2   72.80    2.10
  -6  -2   2   72.58    1.96
  -6   2   1    0.29    0.11
  -6   2   1    0.17    0.11
  -6  -2   1    0.31    0.08
  -6  -2   1    0.13    0.09
  -6   2   0   11.99    0.50
   6   2   0   13.33    0.53
  -6   2   0   11.53    0.52
  -6  -2   0   12.76    0.46
  -6  -2   0   12.74    0.51
  -6   2  -1    7.76    0.38
   6   2   1    8.03    0.39
  -6   2  -1    8.49    0.40
  -6  -2  -1    8.17    0.34
  -6  -2  -1    8.33    0.36
  -6   2  -2   43.97    1.43
   6   2   2   45.68    1.38
  -6   2  -2   45.09    1.36
  -6  -2  -2   45.66    1.34
  -6  -2  -2   46.65    1.38
  -6   2  -3    2.35    0.21
   6   2   3    2.57    0.23
  -6   2  -3    2.46    0.26
  -6  -2  -3    2.68    0.20
  -6  -2  -3    2.53    0.25
  -6   2  -4   10.40    0.51
  -6   2  -4   10.97    0.43
   6   2   4    9.60    0.43
  -6  -2  -4   10.69    0.44
  -6  -2  -4    9.75    0.48
  -6   2  -5    0.42    0.16
   6   2   5    0.15    0.10
  -6   2  -5    0.41    0.10
  -6  -2  -5    0.43    0.15
  -6  -2  -5    0.13    0.10
  -6   2  -6    0.71    0.18
   6   2   6    0.95    0.15
  -6   2  -6    1.03    0.13
  -6  -2  -6    1.33    0.19
  -6  -2  -6    1.07    0.21
   6   2   7    7.64    0.35
  -6   2  -7    6.78    0.31
  -6   2  -7    7.21    0.48
  -6  -2  -7    6.95    0.45
  -6  -2  -7    7.50    0.41
   6   2   8   27.01    0.85
  -6   2  -8   26.55    1.06
  -6   2  -8   26.67    0.79
  -6  -2  -8   25.99    1.04
  -6  -2  -8   25.34    0.96
  -6   2  -9   11.69    0.65
  -6   2  -9   10.89    0.64
  -6  -2  -9   10.95    0.64
  -6  -2  -9   10.84    0.56
  -6   2 -10    2.66    0.37
  -6   2 -10    3.26    0.40
  -6  -2 -10    3.03    0.35
  -6  -2 -10    2.85    0.38
  -6   2 -11    6.36    0.57
  -6   2 -11    5.45    0.54
  -6  -2 -11    7.43    0.53
  -6  -2 -11    7.28    0.49
  -6   2 -12    0.20    0.19
  -6  -2 -12    0.29    0.23
  -6  -2 -12    0.19    0.19
  -6   2 -13    2.33    0.40
  -6  -2 -13    2.90    0.43
  -6  -2 -13    3.17    0.41
  -6   2 -14    3.08    0.47
  -6  -2 -14    3.02    0.46
  -6  -2 -14    2.91    0.44
  -6   2 -15    1.81    0.40
  -6  -2 -15    1.01    0.34
  -6  -2 -15    1.39    0.35
  -6   2 -16    1.68    0.39
  -6  -2 -16    3.63    0.50
  -6  -2 -16    1.71    0.42
  -6   2 -17    0.27    0.30
  -6  -2 -17    0.25    0.29
  -6  -2 -17    0.35    0.30
  -6   2 -18    0.49    0.34
  -6  -2 -18    0.91    0.36
   6   3 -19   -0.20    0.31
   6  -3 -19   -0.06    0.32
   6   3 -18    1.85    0.46
   6  -3 -18    2.38    0.50
   6   3 -17   -0.04    0.27
   6  -3 -17    0.37    0.33
   6   3 -16    0.44    0.30
   6  -3 -16    0.23    0.28
   6   3 -15    1.26    0.35
   6  -3 -15    1.56    0.39
   6   3 -14    1.93    0.39
   6  -3 -14    2.22    0.34
   6  -3 -14    2.61    0.44
  -6   3  13    0.70    0.20
   6   3 -13   -0.01    0.22
   6  -3 -13    0.91    0.22
   6  -3 -13    0.68    0.28
  -6   3  12    2.40    0.31
   6   3 -12    2.28    0.30
   6   3 -12    1.77    0.36
   6  -3 -12    1.60    0.26
   6  -3 -12    1.57    0.32
   6   3 -11    6.01    0.57
   6   3 -11    5.74    0.42
  -6   3  11    6.75    0.44
   6  -3 -11    7.61    0.53
   6  -3 -11    6.46    0.42
   6   3 -10   13.23    0.61
   6   3 -10   11.79    0.68
  -6   3  10   12.60    0.61
   6  -3 -10   12.07    0.56
   6  -3 -10   12.11    0.69
   6   3  -9    2.35    0.29
   6   3  -9    3.28    0.38
  -6   3   9    2.28    0.29
   6  -3  -9    1.69    0.30
   6  -3  -9    2.39    0.27
  -6   3   8    3.79    0.36
   6   3  -8    4.13    0.41
   6   3  -8    3.92    0.36
   6  -3  -8    4.16    0.41
   6  -3  -8    4.03    0.33
  -6   3   7   20.27    0.79
   6   3  -7   19.47    0.82
   6   3  -7   19.95    0.79
   6  -3  -7   19.13    0.72
   6  -3  -7   20.37    0.84
  -6   3   6    0.72    0.18
   6   3  -6    0.18    0.14
   6   3  -6    0.46    0.15
   6  -3  -6    0.63    0.15
   6   3  -5   20.93    0.78
   6   3  -5   20.01    0.78
  -6   3   5   21.36    0.79
  -6  -3   5   19.15    0.61
   6   3  -4   14.25    0.58
   6   3  -4   13.14    0.59
  -6   3   4   13.73    0.60
  -6  -3   4   14.10    0.45
   6   3  -3    0.02    0.10
  -6   3   3    0.32    0.14
   6   3  -3    0.27    0.11
  -6  -3   3    0.04    0.07
   6   3  -2   30.77    0.98
  -6   3   2   30.43    1.05
  -6   3   2   31.80    1.05
   6   3  -2   30.73    1.05
  -6  -3   2   31.23    0.92
  -6   3   1   13.08    0.56
  -6   3   1   14.41    0.58
   6   3  -1   12.72    0.49
   6   3  -1   13.03    0.56
  -6  -3   1   13.51    0.48
   6   3   0    0.92    0.17
  -6   3   0    0.87    0.17
  -6   3   0    0.49    0.14
  -6  -3   0    0.97    0.14
  -6   3  -1    3.95    0.29
  -6   3  -1    5.16    0.31
   6   3   1    3.79    0.29
  -6  -3  -1    4.22    0.27
  -6   3  -2   13.77    0.60
  -6   3  -2   13.71    0.56
   6   3   2   14.52    0.58
  -6  -3  -2   13.53    0.48
  -6  -3  -2   14.70    0.57
  -6   3  -3    0.06    0.10
   6   3   3    0.05    0.11
  -6   3  -3    0.03    0.11
  -6  -3  -3    0.00    0.07
  -6  -3  -3    0.08    0.10
  -6   3  -4   10.26    0.52
   6   3   4    9.84    0.46
  -6   3  -4   10.76    0.45
  -6  -3  -4    9.79    0.41
  -6  -3  -4   10.37    0.50
  -6   3  -5   14.83    0.57
   6   3   5   14.75    0.60
  -6   3  -5   15.26    0.69
  -6  -3  -5   15.64    0.66
  -6  -3  -5   14.70    0.56
   6   3   6   22.81    0.80
  -6   3  -6   22.88    0.76
  -6   3  -6   21.41    0.91
  -6  -3  -6   20.79    0.87
  -6  -3  -6   23.88    0.80
  -6   3  -7    0.20    0.18
  -6   3  -7    0.13    0.10
   6   3   7   -0.13    0.12
  -6  -3  -7   -0.15    0.13
  -6  -3  -7    0.12    0.13
  -6   3  -8    2.46    0.21
   6   3   8    2.56    0.26
  -6   3  -8    2.98    0.37
  -6  -3  -8    2.09    0.25
  -6  -3  -8    2.82    0.36
  -6   3  -9    7.39    0.55
  -6  -3  -9    7.84    0.46
  -6  -3  -9    7.52    0.53
  -6   3 -10   21.73    1.01
  -6  -3 -10   21.13    0.88
  -6  -3 -10   23.89    1.01
  -6   3 -11    1.00    0.27
  -6  -3 -11    0.70    0.27
  -6  -3 -11    1.07    0.24
  -6   3 -12    1.74    0.33
  -6  -3 -12    0.85    0.25
  -6  -3 -12    1.15    0.30
  -6   3 -13    0.31    0.24
  -6  -3 -13    0.03    0.20
  -6  -3 -13   -0.05    0.20
  -6   3 -14    6.36    0.64
  -6  -3 -14    6.78    0.59
  -6  -3 -14    5.70    0.62
  -6   3 -15    0.09    0.27
  -6  -3 -15   -0.28    0.21
  -6   3 -16    0.35    0.30
  -6  -3 -16    0.37    0.26
  -6   3 -17    0.97    0.39
  -6  -3 -17    0.47    0.31
  -6   3 -18    2.74    0.54
  -6  -3 -18    2.06    0.47
   6   4 -19   -0.25    0.29
   6  -4 -19   -0.15    0.32
   6   4 -18   -0.10    0.29
   6  -4 -18    0.16    0.34
   6   4 -17    1.23    0.38
   6  -4 -17    1.51    0.43
   6   4 -16    2.10    0.45
   6  -4 -16    1.77    0.43
   6   4 -15   -0.06    0.24
   6  -4 -15    0.14    0.25
   6   4 -14    1.40    0.35
   6  -4 -14    1.56    0.37
   6  -4 -14    1.70    0.32
   6   4 -13    4.68    0.56
   6  -4 -13    6.70    0.49
   6  -4 -13    5.95    0.59
   6   4 -12   12.86    0.77
  -6   4  12   12.52    0.65
   6   4 -12   12.03    0.62
   6  -4 -12   13.94    0.77
   6  -4 -12   11.46    0.63
   6   4 -11    0.32    0.19
   6   4 -11    0.08    0.21
  -6   4  11    0.23    0.19
   6  -4 -11    0.17    0.18
   6  -4 -11    0.37    0.23
  -6   4  10   14.27    0.70
   6   4 -10   16.31    0.73
   6   4 -10   14.91    0.79
   6  -4 -10   15.42    0.79
   6  -4 -10   16.47    0.71
  -6   4   9   21.19    0.87
   6   4  -9   21.12    0.86
   6   4  -9   22.06    0.94
   6  -4  -9   19.86    0.82
   6  -4  -9   19.96    0.91
   6   4  -8    2.69    0.33
   6   4  -8    3.13    0.36
  -6   4   8    3.11    0.34
   6  -4  -8    3.05    0.36
   6  -4  -8    3.12    0.32
   6   4  -7    0.36    0.18
   6   4  -7    0.26    0.17
  -6   4   7    0.05    0.14
   6  -4  -7    0.14    0.17
   6  -4  -7    0.09    0.15
  -6   4   6   30.80    1.13
   6   4  -6   30.86    1.11
   6   4  -6   32.36    1.13
   6  -4  -6   31.42    1.07
   6   4  -5    0.12    0.13
   6   4  -5    0.10    0.14
  -6   4   5    0.24    0.15
  -6   4   4   11.52    0.56
   6   4  -4   12.09    0.52
   6   4  -4   11.61    0.57
  -6  -4   4   11.59    0.44
   6   4  -3    4.35    0.37
  -6   4   3    4.87    0.35
   6   4  -3    3.85    0.27
  -6  -4   3    4.40    0.25
   6   4  -2    9.27    0.49
  -6   4   2   10.12    0.49
  -6   4   2   10.00    0.51
   6   4  -2   10.54    0.43
  -6  -4   2   10.54    0.42
   6   4  -1   47.60    1.40
  -6   4   1   50.26    1.54
  -6   4   1   48.56    1.53
   6   4  -1   46.88    1.53
  -6  -4   1   47.63    1.43
  -6   4   0    5.96    0.37
   6   4   0    5.29    0.36
  -6   4   0    5.04    0.35
   6   4   0    5.35    0.24
  -6  -4   0    5.41    0.31
  -6   4  -1    0.33    0.13
  -6   4  -1    0.51    0.15
   6   4   1   -0.01    0.11
  -6  -4  -1    0.20    0.11
   6   4   2    6.57    0.39
  -6   4  -2    5.87    0.38
  -6   4  -2    5.66    0.35
  -6  -4  -2    5.40    0.35
  -6   4  -3    5.85    0.35
  -6   4  -3    5.79    0.38
   6   4   3    5.20    0.36
  -6  -4  -3    6.13    0.37
  -6  -4  -3    5.76    0.24
  -6   4  -4    2.83    0.31
  -6   4  -4    3.15    0.29
   6   4   4    3.37    0.32
  -6  -4  -4    3.12    0.32
  -6  -4  -4    3.66    0.20
  -6   4  -5   -0.06    0.11
   6   4   5    0.12    0.13
  -6   4  -5    0.14    0.15
  -6  -4  -5    0.01    0.08
  -6  -4  -5   -0.22    0.11
  -6   4  -6    3.00    0.37
   6   4   6    3.35    0.33
  -6   4  -6    3.34    0.29
  -6  -4  -6    3.50    0.37
  -6  -4  -6    3.00    0.23
  -6   4  -7    0.30    0.18
  -6   4  -7    0.16    0.13
   6   4   7    0.06    0.16
  -6  -4  -7    0.09    0.11
  -6  -4  -7    0.16    0.16
   6   4   8   15.81    0.68
  -6   4  -8   15.72    0.81
  -6   4  -8   16.81    0.62
  -6  -4  -8   15.76    0.78
  -6  -4  -8   16.59    0.66
  -6   4  -9    4.87    0.51
   6   4   9    5.22    0.40
  -6  -4  -9    5.47    0.52
  -6  -4  -9    5.55    0.37
  -6   4 -10   -0.01    0.17
  -6  -4 -10    0.14    0.16
  -6  -4 -10    0.15    0.22
  -6   4 -11    1.51    0.34
  -6  -4 -11    1.35    0.25
  -6  -4 -11    1.37    0.32
  -6   4 -12    1.20    0.32
  -6  -4 -12    0.97    0.29
  -6   4 -13    0.03    0.22
  -6  -4 -13    0.63    0.28
  -6   4 -14    2.14    0.42
  -6  -4 -14    1.87    0.40
  -6   4 -15    2.10    0.43
  -6  -4 -15    0.96    0.35
  -6   4 -16    2.24    0.46
  -6  -4 -16    1.84    0.42
  -6   4 -17    1.91    0.46
  -6  -4 -17    1.76    0.45
   6   5 -18    0.21    0.33
   6  -5 -18    0.26    0.36
   6   5 -17    0.30    0.31
   6  -5 -17    0.51    0.35
   6   5 -16    0.92    0.34
   6  -5 -16    1.15    0.38
   6   5 -15    4.75    0.60
   6  -5 -15    3.90    0.48
   6  -5 -15    5.54    0.61
   6   5 -14   -0.03    0.23
   6  -5 -14    0.27    0.22
   6  -5 -14   -0.10    0.24
   6   5 -13    5.89    0.60
  -6   5  13    5.45    0.51
   6  -5 -13    5.26    0.56
   6  -5 -13    5.44    0.52
   6   5 -12    1.28    0.28
  -6   5  12    1.13    0.28
   6   5 -12    1.10    0.31
   6  -5 -12    1.41    0.33
   6  -5 -12    0.89    0.25
  -6   5  11    4.80    0.47
   6   5 -11    4.91    0.46
   6   5 -11    5.35    0.53
   6  -5 -11    4.75    0.49
   6  -5 -11    3.97    0.43
   6   5 -10    0.17    0.19
  -6   5  10    0.08    0.17
   6   5 -10    0.05    0.18
   6  -5 -10    0.20    0.19
   6  -5 -10   -0.04    0.20
   6   5  -9    0.86    0.25
  -6   5   9    0.65    0.24
   6   5  -9    0.64    0.23
   6  -5  -9    0.91    0.25
   6  -5  -9    0.85    0.23
   6   5  -8    4.44    0.43
  -6   5   8    4.22    0.43
   6   5  -8    4.35    0.43
   6  -5  -8    4.77    0.43
   6  -5  -8    4.54    0.43
   6   5  -7    1.95    0.31
  -6   5   7    2.22    0.32
   6   5  -7    2.60    0.32
   6  -5  -7    2.25    0.32
   6  -5  -7    2.31    0.31
   6   5  -6    0.20    0.17
   6   5  -6    0.64    0.19
  -6   5   6    0.08    0.16
   6  -5  -6    0.31    0.20
   6   5  -5    2.01    0.26
   6   5  -5    1.76    0.28
  -6   5   5    1.54    0.27
   6   5  -4   19.25    0.82
   6   5  -4   18.73    0.73
  -6   5   4   20.27    0.84
  -6  -5   4   20.05    0.71
  -6   5   3   39.07    1.39
   6   5  -3   43.97    1.42
   6   5  -3   41.95    1.29
  -6  -5   3   40.34    1.27
  -6   5   2    2.18    0.26
  -6   5   2    2.11    0.28
   6   5  -2    1.59    0.18
   6   5  -2    1.69    0.27
  -6  -5   2    2.27    0.24
  -6   5   1    4.97    0.35
   6   5  -1    4.22    0.39
   6   5  -1    4.27    0.23
  -6   5   1    3.64    0.36
  -6  -5   1    4.13    0.29
   6   5   0    6.13    0.25
   6   5   0    6.26    0.41
  -6   5   0    7.52    0.43
  -6   5   0    6.39    0.42
  -6  -5   0    6.17    0.36
  -6   5  -1    1.86    0.26
  -6   5  -1    1.81    0.24
   6   5   1    2.14    0.28
  -6  -5  -1    1.88    0.24
   6   5   2    0.65    0.19
  -6   5  -2    0.75    0.19
  -6   5  -2    0.68    0.19
  -6  -5  -2    0.78    0.18
  -6   5  -3    1.55    0.24
   6   5   3    1.66    0.27
  -6   5  -3    1.42    0.24
  -6  -5  -3    1.69    0.25
  -6   5  -4    1.09    0.22
   6   5   4    1.18    0.24
  -6   5  -4    1.22    0.23
  -6  -5  -4    1.44    0.24
  -6   5  -5   38.68    1.29
  -6   5  -5   39.24    1.40
   6   5   5   39.88    1.34
  -6  -5  -5   37.13    1.34
  -6   5  -6   15.21    0.77
   6   5   6   16.04    0.73
  -6   5  -6   16.79    0.68
  -6  -5  -6   16.56    0.77
  -6   5  -7    0.30    0.16
  -6   5  -7    0.56    0.21
   6   5   7    0.77    0.22
  -6  -5  -7    0.63    0.22
  -6   5  -8    9.63    0.62
   6   5   8   11.14    0.57
  -6   5  -8    9.95    0.50
  -6  -5  -8   10.58    0.63
   6   5   9   11.99    0.60
  -6   5  -9   11.00    0.68
  -6  -5  -9   10.78    0.67
  -6   5 -10    0.64    0.27
  -6  -5 -10    0.33    0.22
  -6   5 -11    1.48    0.35
  -6  -5 -11    1.41    0.33
  -6   5 -12    0.08    0.23
  -6  -5 -12    0.58    0.27
  -6   5 -13    0.44    0.27
  -6  -5 -13    0.33    0.26
  -6   5 -14    0.22    0.27
  -6  -5 -14    0.55    0.29
  -6   5 -15    3.06    0.52
  -6  -5 -15    2.29    0.46
  -6   5 -16    0.86    0.34
  -6  -5 -16    0.80    0.35
  -6   5 -17    5.19    0.67
  -6  -5 -17    3.33    0.55
   6   6 -18   -0.40    0.23
   6   6 -17    0.01    0.27
   6   6 -16    1.98    0.45
   6  -6 -16    1.64    0.42
   6   6 -15    0.71    0.31
   6  -6 -15    0.71    0.30
   6  -6 -15    0.24    0.29
   6   6 -14    4.81    0.59
   6  -6 -14    3.95    0.53
   6  -6 -14    4.41    0.52
   6   6 -13    0.13    0.23
  -6   6  13    0.32    0.23
   6  -6 -13    0.40    0.25
   6   6 -12    1.98    0.38
   6   6 -12    2.77    0.39
  -6   6  12    2.36    0.38
   6  -6 -12    2.92    0.43
   6  -6 -12    2.97    0.41
   6   6 -11    4.60    0.51
  -6   6  11    5.19    0.51
   6   6 -11    4.72    0.48
   6  -6 -11    4.13    0.48
   6  -6 -11    4.54    0.48
   6   6 -10    1.76    0.31
  -6   6  10    1.22    0.30
   6   6 -10    1.10    0.28
   6  -6 -10    1.55    0.32
   6  -6 -10    1.41    0.31
   6   6  -9   17.58    0.85
  -6   6   9   16.59    0.85
   6   6  -9   19.20    0.87
   6  -6  -9   20.00    0.87
   6  -6  -9   18.40    0.86
   6   6  -8    1.03    0.27
   6   6  -8    0.40    0.20
  -6   6   8    0.34    0.22
   6  -6  -8    0.55    0.22
   6  -6  -8    0.69    0.24
   6   6  -7    2.05    0.33
   6   6  -7    1.57    0.28
  -6   6   7    1.67    0.32
   6  -6  -7    1.73    0.31
   6  -6  -7    2.12    0.31
  -6   6   6    5.00    0.47
   6   6  -6    4.00    0.37
   6   6  -6    3.81    0.42
   6  -6  -6    3.89    0.42
  -6   6   5    7.67    0.52
   6   6  -5    7.08    0.50
   6   6  -5    6.79    0.42
  -6   6   4   25.71    1.04
   6   6  -4   24.76    0.89
   6   6  -4   25.93    1.03
  -6  -6   4   24.43    0.89
   6   6  -3   24.91    0.85
   6   6  -3   24.15    1.00
  -6   6   3   24.74    1.01
  -6  -6   3   25.06    0.89
   6   6  -2   27.56    1.10
  -6   6   2   29.34    1.11
   6   6  -2   29.33    0.92
  -6   6   2   29.30    1.06
  -6  -6   2   28.37    1.00
   6   6  -1    1.06    0.12
  -6   6   1    1.18    0.23
  -6   6   1    0.82    0.23
   6   6  -1    0.72    0.23
  -6  -6   1    0.55    0.18
   6   6   0    8.69    0.54
  -6   6   0    8.36    0.49
  -6   6   0    9.27    0.54
  -6  -6   0    8.52    0.48
  -6   6  -1   57.70    1.80
   6   6   1   54.19    1.81
  -6   6  -1   53.85    1.78
  -6  -6  -1   54.98    1.74
  -6   6  -2    3.70    0.38
  -6   6  -2    3.57    0.37
   6   6   2    3.36    0.39
  -6  -6  -2    4.00    0.38
  -6   6  -3    8.47    0.52
  -6   6  -3   10.00    0.55
   6   6   3   11.21    0.60
  -6  -6  -3    8.78    0.52
   6   6   4    6.41    0.52
  -6   6  -4    4.65    0.42
  -6   6  -4    5.55    0.48
  -6  -6  -4    5.45    0.47
   6   6   5    3.70    0.40
  -6   6  -5    4.50    0.44
  -6   6  -5    4.14    0.39
  -6  -6  -5    4.28    0.43
  -6   6  -6   13.51    0.66
  -6   6  -6   13.59    0.72
   6   6   6   14.41    0.72
  -6  -6  -6   14.55    0.73
  -6   6  -7    2.16    0.35
  -6   6  -7    1.84    0.29
   6   6   7    1.67    0.31
  -6  -6  -7    1.82    0.33
   6   6   8   11.40    0.64
  -6   6  -8   11.10    0.69
  -6   6  -8   13.04    0.61
  -6  -6  -8   11.94    0.69
  -6   6  -9    0.33    0.22
   6   6   9    0.91    0.26
  -6  -6  -9    0.67    0.26
  -6   6 -10    4.61    0.53
  -6  -6 -10    4.47    0.52
  -6   6 -11    0.43    0.26
  -6  -6 -11    0.73    0.29
  -6   6 -12    1.91    0.37
  -6  -6 -12    1.71    0.37
  -6   6 -13    4.83    0.60
  -6  -6 -13    4.84    0.60
  -6   6 -14    0.50    0.30
  -6  -6 -14    0.54    0.29
  -6   6 -15    3.21    0.54
  -6  -6 -15    2.69    0.48
  -6   6 -16    6.74    0.76
  -6  -6 -16    8.04    0.82
   6   7 -17    0.52    0.33
   6   7 -16    0.82    0.35
   6   7 -15    1.59    0.40
   6  -7 -15    1.94    0.42
   6   7 -14    0.93    0.33
   6  -7 -14    1.15    0.35
   6   7 -13    4.81    0.56
  -6   7  13    4.39    0.52
   6  -7 -13    4.34    0.52
   6  -7 -13    3.51    0.48
   6   7 -12    1.13    0.32
  -6   7  12    1.22    0.32
   6   7 -12    1.49    0.34
   6  -7 -12    1.08    0.33
   6  -7 -12    1.48    0.35
   6   7 -11    7.24    0.62
   6   7 -11    8.04    0.60
  -6   7  11    7.27    0.66
   6  -7 -11    8.10    0.61
   6  -7 -11    7.80    0.67
   6   7 -10    4.64    0.50
  -6   7  10    5.28    0.55
   6   7 -10    4.48    0.49
   6  -7 -10    4.50    0.50
   6  -7 -10    4.26    0.48
   6   7  -9    0.34    0.23
   6   7  -9    0.42    0.22
  -6   7   9    0.50    0.25
   6  -7  -9    0.31    0.23
   6  -7  -9    0.82    0.26
   6   7  -8    0.69    0.23
   6   7  -8    0.60    0.25
  -6   7   8    0.35    0.23
   6  -7  -8    0.81    0.25
   6  -7  -8    0.70    0.27
   6   7  -7    0.19    0.22
   6   7  -7    0.20    0.19
  -6   7   7   -0.21    0.20
   6  -7  -7    0.44    0.22
   6  -7  -7    0.41    0.24
  -6   7   6    1.20    0.30
   6   7  -6    1.65    0.26
   6   7  -6    1.68    0.31
   6  -7  -6    1.92    0.35
   6   7  -5   30.44    1.07
   6   7  -5   30.63    1.21
  -6   7   5   28.29    1.20
   6   7  -4    0.65    0.25
   6   7  -4    0.58    0.17
  -6   7   4    0.27    0.20
  -6  -7   4    0.60    0.20
  -6   7   3    0.16    0.21
   6   7  -3    0.07    0.11
   6   7  -3    0.31    0.22
  -6  -7   3    0.14    0.17
   6   7  -2   10.74    0.65
  -6   7   2   11.40    0.66
  -6   7   2   11.59    0.59
  -6  -7   2   10.49    0.56
  -6   7   1   31.27    1.22
   6   7  -1   31.45    1.24
  -6   7   1   31.74    1.15
  -6  -7   1   30.98    1.13
   6   7   0    0.59    0.25
  -6   7   0    0.84    0.26
  -6   7   0    0.73    0.20
  -6  -7   0    0.75    0.22
  -6   7  -1    5.01    0.47
   6   7   1    4.30    0.46
  -6   7  -1    4.09    0.40
  -6  -7  -1    4.75    0.44
  -6   7  -2    4.09    0.43
   6   7   2    4.39    0.47
  -6   7  -2    5.15    0.45
  -6  -7  -2    3.98    0.42
   6   7   3    0.30    0.23
  -6   7  -3    0.01    0.16
  -6   7  -3   -0.15    0.18
  -6  -7  -3    0.09    0.18
   6   7   4    1.14    0.30
  -6   7  -4    1.22    0.26
  -6   7  -4    1.31    0.28
  -6  -7  -4    0.65    0.24
  -6   7  -5   -0.05    0.18
  -6   7  -5   -0.08    0.17
   6   7   5    0.06    0.20
  -6  -7  -5   -0.04    0.18
  -6   7  -6    3.28    0.38
  -6   7  -6    3.69    0.43
   6   7   6    3.87    0.44
  -6  -7  -6    2.91    0.39
  -6   7  -7   25.94    1.02
  -6   7  -7   24.96    1.11
   6   7   7   27.05    1.10
  -6  -7  -7   24.03    1.09
   6   7   8    2.01    0.36
  -6   7  -8    1.78    0.31
  -6   7  -8    2.13    0.37
  -6  -7  -8    1.79    0.35
  -6   7  -9    0.12    0.21
   6   7   9    0.46    0.24
  -6  -7  -9    0.57    0.27
  -6   7 -10    6.28    0.63
  -6  -7 -10    6.88    0.65
  -6   7 -11    5.31    0.59
  -6  -7 -11    6.12    0.64
  -6   7 -12    0.23    0.23
  -6  -7 -12    0.22    0.27
  -6   7 -13    0.10    0.25
  -6  -7 -13    0.16    0.28
  -6   7 -14    0.63    0.33
  -6  -7 -14    0.56    0.34
  -6   7 -15    0.30    0.30
  -6  -7 -15    0.38    0.32
   6   8 -16    1.18    0.39
   6   8 -15    0.46    0.31
   6  -8 -15    0.17    0.30
   6   8 -14    0.17    0.27
   6  -8 -14   -0.06    0.27
   6   8 -13   -0.08    0.23
  -6   8  13   -0.04    0.24
   6  -8 -13    0.30    0.28
   6   8 -12    1.21    0.33
   6   8 -12    0.67    0.31
  -6   8  12    1.09    0.33
   6  -8 -12    1.17    0.36
  -6   8  11    2.50    0.42
   6   8 -11    2.36    0.39
   6   8 -11    2.04    0.39
   6  -8 -11    3.18    0.47
   6   8 -10    3.87    0.46
  -6   8  10    3.75    0.50
   6   8 -10    3.10    0.46
   6  -8 -10    4.80    0.54
  -6   8   9   -0.15    0.22
   6   8  -9    0.17    0.19
   6   8  -9    0.20    0.24
   6  -8  -9    0.06    0.21
   6  -8  -9   -0.04    0.23
   6   8  -8    1.08    0.31
   6   8  -8    1.07    0.26
  -6   8   8    0.37    0.25
   6  -8  -8    0.52    0.28
   6  -8  -8    0.89    0.25
  -6   8   7    0.16    0.20
   6   8  -7    0.10    0.18
   6   8  -7    0.38    0.25
   6  -8  -7    0.45    0.22
   6  -8  -7    0.47    0.26
   6   8  -6   10.72    0.70
   6   8  -6   12.31    0.60
  -6   8   6   10.84    0.71
   6  -8  -6   13.12    0.74
   6   8  -5    1.14    0.30
  -6   8   5    0.98    0.30
   6  -8  -5    0.98    0.31
  -6  -8   5    1.15    0.26
  -6   8   4   11.65    0.71
   6   8  -4   10.24    0.66
  -6  -8   4   11.28    0.60
  -6   8   3    3.43    0.44
   6   8  -3    4.43    0.49
  -6  -8   3    4.65    0.44
  -6   8   2    4.57    0.49
   6   8  -2    5.44    0.55
  -6  -8   2    5.57    0.48
  -6   8   1    0.64    0.26
   6   8  -1    1.59    0.33
  -6   8   1    0.67    0.21
  -6  -8   1    1.02    0.26
   6   8   0   14.60    0.80
  -6   8   0   15.84    0.74
  -6   8   0   14.68    0.78
  -6  -8   0   16.08    0.76
   6   8   1    3.26    0.44
  -6   8  -1    4.05    0.46
  -6   8  -1    4.56    0.44
  -6  -8  -1    3.98    0.43
   6   8   2   25.75    1.11
  -6   8  -2   23.40    1.04
  -6   8  -2   22.85    1.00
  -6  -8  -2   25.76    1.04
  -6   8  -3    0.03    0.20
  -6   8  -3    0.21    0.18
   6   8   3    0.09    0.22
  -6  -8  -3    0.44    0.23
   6   8   4    0.16    0.23
  -6   8  -4    0.23    0.21
  -6   8  -4    0.15    0.23
  -6  -8  -4    0.44    0.23
  -6   8  -5    1.39    0.30
   6   8   5    1.04    0.30
  -6   8  -5    1.65    0.32
  -6  -8  -5    1.36    0.30
  -6   8  -6   12.15    0.69
  -6   8  -6   14.08    0.77
   6   8   6   13.09    0.76
  -6  -8  -6   11.64    0.72
  -6   8  -7    1.79    0.35
  -6   8  -7    1.58    0.32
   6   8   7    2.41    0.41
  -6  -8  -7    1.69    0.34
  -6   8  -8    0.03    0.20
   6   8   8   -0.21    0.21
  -6   8  -8    0.00    0.20
  -6  -8  -8   -0.06    0.21
   6   8   9    2.16    0.40
  -6   8  -9    0.88    0.27
  -6  -8  -9    1.14    0.33
  -6   8 -10    0.39    0.26
  -6  -8 -10   -0.16    0.21
  -6   8 -11    0.72    0.30
  -6  -8 -11    0.51    0.27
  -6   8 -12    0.19    0.25
  -6  -8 -12   -0.14    0.22
  -6   8 -13    0.82    0.34
  -6  -8 -13    1.44    0.38
  -6   8 -14    7.98    0.81
  -6  -8 -14    8.79    0.84
  -6  -8 -15    0.40    0.34
   6   9 -15    0.35    0.33
   6  -9 -15    0.47    0.33
   6   9 -14    0.43    0.30
   6  -9 -14    0.29    0.30
  -6   9  13    1.24    0.42
   6   9 -13    1.86    0.39
   6  -9 -13    1.98    0.45
   6   9 -12   -0.04    0.28
  -6   9  12    0.12    0.28
   6   9 -12   -0.03    0.24
   6  -9 -12    0.07    0.28
   6   9 -11    0.29    0.28
  -6   9  11   -0.07    0.26
   6   9 -11    0.20    0.24
   6  -9 -11    0.42    0.30
   6   9 -10    5.27    0.55
   6   9 -10    4.59    0.56
  -6   9  10    3.88    0.54
   6  -9 -10    5.00    0.59
  -6   9   9    1.11    0.34
   6   9  -9    0.57    0.30
   6  -9  -9    0.66    0.30
  -6   9   8    0.07    0.23
   6   9  -8   -0.27    0.20
   6  -9  -8    0.08    0.27
  -6   9   7    1.71    0.39
   6   9  -7    1.70    0.37
   6  -9  -7    1.72    0.39
   6   9  -6    8.98    0.66
  -6   9   6   11.44    0.74
   6  -9  -6    9.14    0.67
  -6  -9   6    8.00    0.56
   6   9  -5    0.62    0.28
  -6   9   5    0.87    0.30
   6  -9  -5    0.21    0.26
  -6  -9   5    0.41    0.25
   6   9  -4    2.08    0.38
  -6   9   4    1.66    0.36
  -6  -9   4    1.76    0.32
   6   9  -3    3.17    0.46
  -6   9   3    2.45    0.40
  -6  -9   3    2.87    0.39
   6   9  -2    0.29    0.24
  -6   9   2   -0.18    0.20
  -6  -9   2    0.23    0.22
  -6   9   1   -0.01    0.19
   6   9  -1    0.25    0.24
  -6   9   1    0.06    0.17
  -6  -9   1   -0.06    0.18
   6   9   0    4.19    0.51
  -6   9   0    3.44    0.40
  -6   9   0    3.68    0.46
  -6  -9   0    4.33    0.46
  -6   9  -1    0.81    0.23
   6   9   1    0.58    0.29
  -6   9  -1    0.06    0.24
  -6  -9  -1   -0.05    0.19
   6   9   2    7.08    0.67
  -6   9  -2    7.04    0.53
  -6   9  -2    7.42    0.64
  -6  -9  -2    7.73    0.55
  -6   9  -3    1.79    0.35
  -6   9  -3    1.37    0.29
   6   9   3    2.03    0.38
  -6  -9  -3    2.41    0.38
  -6   9  -4   -0.04    0.20
  -6   9  -4    0.14    0.24
   6   9   4    0.13    0.25
  -6  -9  -4    0.31    0.22
  -6   9  -5    2.58    0.40
   6   9   5    3.79    0.50
  -6   9  -5    3.02    0.42
  -6  -9  -5    2.85    0.42
  -6   9  -6    4.69    0.54
   6   9   6    5.34    0.59
  -6   9  -6    4.69    0.51
  -6  -9  -6    5.30    0.57
  -6   9  -7    0.55    0.25
   6   9   7    0.74    0.30
  -6   9  -7    0.75    0.29
  -6  -9  -7    0.46    0.27
  -6   9  -8    4.88    0.54
   6   9   8    4.96    0.57
  -6  -9  -8    2.96    0.47
  -6   9  -9    3.31    0.47
   6   9   9    2.82    0.46
  -6  -9  -9    2.53    0.44
  -6   9 -10   -0.03    0.22
  -6  -9 -10    0.05    0.26
  -6   9 -11    0.20    0.25
  -6  -9 -11    0.56    0.29
  -6   9 -12    2.16    0.44
  -6  -9 -12    1.74    0.41
  -6   9 -13    2.46    0.46
  -6  -9 -13    2.26    0.49
   6 -10 -14   -0.26    0.30
  -6  10  13    0.33    0.35
   6 -10 -13    0.15    0.31
  -6  10  12    6.66    0.73
   6 -10 -12    5.92    0.70
  -6  10  11    2.97    0.53
   6  10 -11    3.63    0.54
   6 -10 -11    3.71    0.55
  -6  10  10    1.75    0.43
   6  10 -10    2.94    0.48
   6 -10 -10    1.94    0.44
   6  10  -9   -0.04    0.26
  -6  10   9    0.51    0.29
   6 -10  -9   -0.19    0.26
  -6  10   8    1.98    0.42
   6  10  -8    1.49    0.38
   6 -10  -8    0.94    0.32
  -6  10   7    3.52    0.52
   6  10  -7    2.94    0.48
   6 -10  -7    3.20    0.49
   6  10  -6    1.12    0.36
  -6  10   6    0.45    0.28
  -6 -10   6    1.15    0.32
   6 -10  -6    0.96    0.36
   6  10  -5    0.17    0.29
  -6  10   5    0.86    0.30
  -6 -10   5    0.22    0.25
   6 -10  -5    0.58    0.30
  -6  10   4    2.87    0.47
   6  10  -4    3.34    0.50
  -6 -10   4    4.33    0.48
  -6  10   3    1.70    0.39
   6  10  -3    1.95    0.40
  -6 -10   3    2.13    0.37
  -6  10   2    0.15    0.24
   6  10  -2    0.09    0.23
  -6 -10   2   -0.10    0.21
  -6  10   1   -0.20    0.17
   6  10  -1    0.12    0.26
  -6  10   1   -0.01    0.20
  -6 -10   1   -0.05    0.20
  -6  10   0    2.27    0.41
  -6  10   0    1.89    0.33
   6  10   0    2.06    0.43
  -6 -10   0    2.38    0.39
  -6  10  -1    6.64    0.65
  -6  10  -1    6.76    0.51
   6  10   1    5.90    0.64
  -6 -10  -1    6.22    0.59
  -6  10  -2    1.31    0.37
  -6  10  -2    1.61    0.32
   6  10   2    1.02    0.34
  -6 -10  -2    1.99    0.39
  -6  10  -3    1.07    0.32
   6  10   3    0.12    0.26
  -6  10  -3    0.29    0.23
  -6 -10  -3    0.65    0.27
  -6  10  -4    1.66    0.33
   6  10   4    1.68    0.39
  -6  10  -4    1.33    0.36
  -6 -10  -4    1.40    0.34
  -6  10  -5    1.14    0.33
   6  10   5    1.41    0.38
  -6  10  -5    1.05    0.31
  -6 -10  -5    1.06    0.31
  -6  10  -6    1.60    0.36
  -6  10  -6    1.63    0.34
   6  10   6    1.96    0.41
  -6 -10  -6    1.65    0.37
   6  10   7    0.46    0.33
  -6  10  -7    0.87    0.32
  -6  10  -7    0.25    0.27
  -6 -10  -7    0.63    0.29
   6  10   8    3.86    0.55
  -6  10  -8    4.58    0.57
  -6 -10  -8    3.32    0.50
   6  10   9    0.75    0.35
  -6  10  -9    0.23    0.27
  -6 -10  -9    0.70    0.33
  -6  10 -10   -0.09    0.23
  -6 -10 -10   -0.08    0.25
  -6  10 -11    1.25    0.37
  -6 -10 -11    1.52    0.41
  -6  10 -12    2.50    0.49
  -6 -10 -12    2.27    0.48
  -6  11  12    0.96    0.39
   6 -11 -12    1.06    0.38
  -6  11  11    3.44    0.59
   6  11 -11    3.41    0.55
   6 -11 -11    3.58    0.59
  -6  11  10   -0.11    0.29
   6  11 -10    0.03    0.29
   6 -11 -10    0.40    0.35
  -6  11   9   -0.24    0.26
   6  11  -9   -0.11    0.27
   6 -11  -9    0.02    0.30
   6  11  -8    0.76    0.35
  -6  11   8    1.19    0.38
   6 -11  -8    0.86    0.37
   6  11  -7    0.11    0.28
  -6  11   7   -0.18    0.25
   6 -11  -7   -0.29    0.27
   6  11  -6    0.41    0.32
  -6  11   6    0.12    0.28
   6 -11  -6    0.33    0.33
  -6  11   5    4.25    0.55
   6  11  -5    3.37    0.53
  -6 -11   5    5.29    0.56
   6 -11  -5    3.03    0.54
   6  11  -4    0.12    0.27
  -6  11   4    0.18    0.28
   6 -11  -4    0.25    0.28
  -6 -11   4   -0.01    0.24
  -6  11   3    1.71    0.40
   6  11  -3    1.32    0.38
  -6 -11   3    1.39    0.36
  -6  11   2    2.11    0.41
   6  11  -2    1.22    0.37
  -6 -11   2    1.48    0.36
   6  11  -1    1.57    0.39
  -6  11   1    0.92    0.34
  -6 -11   1    0.84    0.30
  -6  11   0    0.27    0.26
   6  11   0    0.28    0.28
  -6 -11   0    0.48    0.28
  -6  11  -1    0.80    0.34
   6  11   1    1.34    0.38
  -6 -11  -1    0.91    0.31
  -6  11  -2    0.54    0.31
   6  11   2    0.80    0.33
  -6 -11  -2    0.51    0.31
  -6  11  -3    1.56    0.36
  -6  11  -3    1.41    0.37
   6  11   3    1.32    0.39
  -6 -11  -3    0.85    0.32
  -6  11  -4    4.34    0.51
   6  11   4    4.37    0.60
  -6  11  -4    3.23    0.50
  -6 -11  -4    3.68    0.52
  -6  11  -5    0.94    0.35
   6  11   5    1.69    0.42
  -6  11  -5    1.48    0.34
  -6 -11  -5    1.67    0.38
   6  11   6    1.72    0.44
  -6  11  -6    1.91    0.42
  -6  11  -6    2.14    0.41
  -6 -11  -6    1.67    0.41
  -6  11  -7    3.96    0.54
  -6  11  -7    3.19    0.50
   6  11   7    3.60    0.58
  -6 -11  -7    3.98    0.56
  -6  11  -8    0.34    0.29
   6  11   8    0.33    0.35
  -6 -11  -8    0.34    0.29
  -6  11  -9    0.22    0.30
   6  11   9    0.61    0.39
  -6 -11  -9    0.91    0.35
  -6  11 -10    1.64    0.44
  -6 -11 -10    1.19    0.41
   6  12 -10    0.66    0.42
  -6  12  10    0.73    0.40
   6 -12 -10    0.68    0.38
  -6  12   9    0.18    0.33
   6  12  -9    0.52    0.35
   6 -12  -9    0.04    0.31
   6  12  -8    0.52    0.35
  -6  12   8    0.41    0.32
   6 -12  -8    0.35    0.36
  -6  12   7    0.62    0.35
   6  12  -7   -0.19    0.29
   6 -12  -7   -0.10    0.29
  -6  12   6    0.91    0.39
   6  12  -6    1.44    0.43
   6 -12  -6    1.39    0.44
   6  12  -5    0.36    0.34
  -6  12   5    0.02    0.28
   6 -12  -5    0.16    0.32
  -6 -12   5    0.28    0.30
   6  12  -4    5.31    0.67
  -6  12   4    4.89    0.63
  -6 -12   4    5.87    0.62
   6 -12  -4    3.93    0.60
   6  12  -3    0.27    0.30
  -6  12   3    0.13    0.29
   6 -12  -3    0.18    0.32
  -6 -12   3    0.37    0.30
  -6  12   2    1.85    0.44
   6  12  -2    1.45    0.41
  -6 -12   2    1.79    0.40
   6  12  -1   -0.04    0.26
  -6  12   1    0.35    0.31
  -6 -12   1    0.03    0.27
  -6  12   0    0.44    0.31
   6  12   0    0.33    0.31
  -6 -12   0    0.47    0.29
  -6  12  -1    1.13    0.37
   6  12   1    1.65    0.44
  -6 -12  -1    1.53    0.39
   6  12   2   -0.04    0.29
  -6  12  -2   -0.16    0.27
  -6 -12  -2    0.38    0.30
   6  12   3    1.36    0.44
  -6  12  -3    0.79    0.35
  -6 -12  -3    1.26    0.39
  -6  12  -4    3.70    0.56
   6  12   4    5.88    0.70
  -6 -12  -4    4.67    0.60
   6  12   5    0.10    0.33
  -6  12  -5    0.12    0.30
  -6 -12  -5   -0.15    0.26
  -6  12  -6    1.21    0.41
   6  12   6    0.75    0.39
  -6 -12  -6    0.38    0.31
   6  12   7    0.09    0.33
  -6  12  -7    0.27    0.33
  -6 -12  -7    0.11    0.29
   6  12   8    0.53    0.40
  -6 -12  -8    1.27    0.40
  -6  13   6    0.55    0.38
   6  13  -6    1.58    0.46
   6 -13  -6    0.40    0.38
  -6  13   5    1.78    0.47
   6  13  -5    1.42    0.46
   6 -13  -5    1.42    0.45
  -6  13   4    0.34    0.33
   6  13  -4   -0.05    0.31
  -6 -13   4    0.15    0.31
   6 -13  -4    0.05    0.36
  -6  13   3    1.91    0.47
   6  13  -3    2.76    0.54
  -6 -13   3    2.69    0.49
   6 -13  -3    2.02    0.50
  -6  13   2    0.28    0.31
   6  13  -2   -0.40    0.29
  -6 -13   2    0.17    0.33
   6 -13  -2   -0.19    0.31
  -6  13   1    0.42    0.33
   6  13  -1    0.28    0.34
  -6 -13   1    0.63    0.33
   6  13   0    1.14    0.42
  -6  13   0    1.23    0.42
  -6 -13   0    1.07    0.39
  -6  13  -1    2.54    0.50
   6  13   1    0.81    0.39
  -6 -13  -1    1.95    0.46
  -6  13  -2    0.12    0.30
   6  13   2    0.15    0.34
  -6 -13  -2    0.00    0.32
  -6  13  -3    0.66    0.37
   6  13   3    0.27    0.34
  -6 -13  -3    0.55    0.35
   6  13   4    0.11    0.34
  -6  13  -4    0.07    0.32
  -6 -13  -4   -0.02    0.29
  -6  13  -5    2.73    0.53
   6  13   5    1.86    0.51
  -6 -13  -5    2.25    0.49
   7   0 -20    0.30    0.40
   7   0 -19   -0.18    0.31
   7   0 -18   12.06    1.03
   7   0 -17   -0.03    0.29
   7   0 -16    0.72    0.31
   7   0 -15   -0.20    0.23
   7   0 -14   -0.44    0.20
   7   0 -13   -0.16    0.21
  -7   0  13   -0.14    0.13
  -7   0  12    3.57    0.36
   7   0 -12    3.44    0.45
   7   0 -11   -0.04    0.21
  -7   0  11    0.16    0.14
   7   0 -10   19.69    0.65
  -7   0  10   20.91    0.80
   7   0 -10   19.11    0.91
  -7   0   9   -0.06    0.11
   7   0  -9    0.10    0.08
   7   0  -9    0.06    0.16
   7   0  -8    0.32    0.20
   7   0  -8    0.73    0.09
  -7   0   8    0.62    0.16
  -7   0   7   -0.17    0.10
   7   0  -7   -0.03    0.14
   7   0  -6   18.45    0.76
  -7   0   6   17.65    0.71
   7   0  -5    0.02    0.11
  -7   0   5    0.05    0.10
  -7   0   4   18.96    0.72
  -7   0   3   -0.03    0.08
  -7   0   2   25.21    0.87
  -7   0   1    0.01    0.08
  -7   0   0   59.62    1.78
  -7   0   0   59.12    1.75
  -7   0   0   60.27    1.70
  -7   0  -1   -0.12    0.07
  -7   0  -1    0.08    0.08
  -7   0  -1   -0.04    0.08
  -7   0  -2    0.21    0.11
  -7   0  -2    0.30    0.11
  -7   0  -2    0.17    0.10
  -7   0  -3    0.08    0.08
  -7   0  -3    0.11    0.10
  -7   0  -3    0.03    0.09
  -7   0  -4    3.78    0.32
  -7   0  -4    3.22    0.22
  -7   0  -4    3.96    0.34
  -7   0  -5    0.03    0.12
  -7   0  -5   -0.07    0.09
  -7   0  -5    0.17    0.09
  -7   0  -6    0.92    0.21
  -7   0  -6    0.63    0.16
  -7   0  -6    0.67    0.12
   7   0   7    0.03    0.09
  -7   0  -7   -0.10    0.14
  -7   0  -7    0.02    0.14
  -7   0  -8   28.09    1.07
  -7   0  -8   26.31    1.06
  -7   0  -9   -0.01    0.16
  -7   0  -9    0.03    0.18
  -7   0 -10    9.36    0.60
  -7   0 -10    9.55    0.59
  -7   0 -11    0.31    0.19
  -7   0 -11    0.03    0.18
  -7   0 -12    6.15    0.57
  -7   0 -12    5.83    0.58
  -7   0 -13   -0.03    0.20
  -7   0 -13    0.29    0.24
  -7   0 -14    8.19    0.74
  -7   0 -14    7.40    0.68
  -7   0 -15    0.15    0.25
  -7   0 -15   -0.22    0.23
  -7   0 -16    0.27    0.30
  -7   0 -16   -0.06    0.26
  -7   0 -17   -0.32    0.25
  -7   0 -17    0.17    0.29
  -7   0 -18    2.37    0.49
  -7   0 -18    2.78    0.53
   7   1 -20    2.90    0.59
   7  -1 -20    2.27    0.56
   7   1 -19    2.58    0.55
   7  -1 -19    2.23    0.52
   7   1 -18    0.39    0.33
   7  -1 -18   -0.18    0.28
   7   1 -17    4.11    0.61
   7  -1 -17    1.78    0.46
   7   1 -16    1.11    0.37
   7  -1 -16    0.49    0.30
   7   1 -15    0.12    0.27
   7  -1 -15    0.00    0.24
   7   1 -14    0.43    0.27
   7  -1 -14    0.28    0.24
  -7   1  13    1.26    0.24
   7   1 -13    0.82    0.32
   7  -1 -13    0.92    0.30
  -7  -1  13    0.87    0.21
  -7   1  12   32.51    1.16
   7   1 -12   30.73    1.34
   7  -1 -12   33.70    1.37
  -7  -1  12   33.28    1.15
  -7   1  11    5.32    0.39
   7   1 -11    5.51    0.54
  -7  -1  11    5.66    0.39
   7  -1 -11    5.39    0.54
   7  -1 -11    5.28    0.33
  -7   1  10    1.40    0.24
   7   1 -10    1.21    0.28
  -7  -1  10    1.38    0.23
   7  -1 -10    1.02    0.17
   7  -1 -10    0.81    0.27
  -7   1   9   10.16    0.51
   7   1  -9    9.50    0.60
   7  -1  -9    8.99    0.39
   7  -1  -9   10.35    0.62
  -7  -1   9   11.34    0.53
  -7   1   8    4.99    0.36
   7   1  -8    5.55    0.48
  -7  -1   8    4.49    0.33
   7  -1  -8    5.23    0.26
   7  -1  -8    5.73    0.48
  -7   1   7   25.18    0.94
   7   1  -7   26.50    1.02
   7  -1  -7   26.62    1.02
  -7  -1   7   26.87    0.94
   7  -1  -7   26.02    0.79
   7   1  -6   62.99    2.01
  -7   1   6   64.68    1.95
   7  -1  -6   66.06    2.03
  -7  -1   6   65.71    1.95
   7  -1  -6   64.11    1.77
   7   1  -5    2.44    0.28
  -7   1   5    1.82    0.22
   7  -1  -5    1.75    0.15
  -7  -1   5    2.07    0.24
   7   1  -4   25.61    0.91
  -7   1   4   23.54    0.87
  -7  -1   4   26.06    0.89
  -7   1   3    5.97    0.36
  -7  -1   3    7.12    0.37
  -7   1   2   21.45    0.77
  -7  -1   2   21.52    0.64
  -7  -1   2   21.38    0.77
  -7   1   1   10.42    0.48
  -7   1   1   11.57    0.49
  -7  -1   1   10.27    0.46
  -7  -1   1   10.99    0.39
  -7   1   0   20.82    0.75
  -7   1   0   20.50    0.72
  -7  -1   0   19.36    0.66
  -7  -1   0   20.13    0.72
  -7  -1   0   19.31    0.70
  -7   1  -1   10.07    0.45
  -7   1  -1   10.77    0.49
  -7  -1  -1   10.97    0.46
  -7  -1  -1   10.53    0.45
  -7  -1  -1   10.75    0.44
  -7   1  -2    0.08    0.11
  -7   1  -2    0.10    0.09
  -7  -1  -2    0.19    0.10
  -7  -1  -2    0.34    0.11
  -7  -1  -2    0.06    0.09
  -7   1  -3    0.75    0.13
  -7   1  -3    0.30    0.13
  -7   1  -3    0.56    0.15
  -7  -1  -3    0.55    0.12
  -7  -1  -3    0.44    0.14
  -7  -1  -3    0.41    0.12
  -7   1  -4    0.17    0.12
  -7   1  -4   -0.03    0.09
  -7   1  -4    0.03    0.08
  -7  -1  -4   -0.04    0.10
  -7  -1  -4   -0.07    0.09
  -7  -1  -4   -0.06    0.07
  -7   1  -5   33.14    1.14
  -7   1  -5   32.41    1.14
   7   1   5   31.84    1.02
  -7   1  -5   32.67    1.00
  -7  -1  -5   33.54    1.13
  -7  -1  -5   31.69    1.10
  -7   1  -6    0.36    0.10
  -7   1  -6    0.09    0.13
   7   1   6    0.08    0.10
  -7   1  -6    0.51    0.17
  -7  -1  -6    0.57    0.18
  -7  -1  -6    0.28    0.14
   7   1   7   13.84    0.52
  -7   1  -7   14.35    0.50
  -7   1  -7   14.39    0.69
  -7   1  -7   15.04    0.70
  -7  -1  -7   14.45    0.69
  -7  -1  -7   14.36    0.66
   7   1   8   14.83    0.53
  -7   1  -8   15.41    0.74
  -7   1  -8   16.24    0.75
  -7  -1  -8   14.37    0.69
  -7  -1  -8   14.29    0.72
  -7   1  -9    3.94    0.43
  -7   1  -9    3.93    0.43
  -7  -1  -9    4.71    0.47
  -7  -1  -9    4.90    0.44
  -7   1 -10    0.25    0.20
  -7   1 -10    0.17    0.18
  -7  -1 -10    0.46    0.21
  -7  -1 -10    0.77    0.23
  -7   1 -11   11.13    0.68
  -7   1 -11   10.52    0.65
  -7  -1 -11   12.65    0.68
  -7  -1 -11    9.64    0.65
  -7   1 -12    2.02    0.36
  -7   1 -12    2.52    0.40
  -7  -1 -12    2.48    0.39
  -7  -1 -12    2.66    0.38
  -7   1 -13   12.38    0.75
  -7   1 -13   11.86    0.75
  -7  -1 -13   10.31    0.68
  -7  -1 -13    9.27    0.67
  -7   1 -14   -0.01    0.24
  -7   1 -14    0.12    0.27
  -7  -1 -14   -0.08    0.22
  -7  -1 -14    0.06    0.23
  -7   1 -15    2.37    0.45
  -7   1 -15    3.31    0.51
  -7  -1 -15    2.52    0.46
  -7  -1 -15    3.34    0.49
  -7   1 -16   -0.22    0.25
  -7   1 -16    0.22    0.27
  -7  -1 -16    0.17    0.26
  -7  -1 -16   -0.27    0.23
  -7   1 -17    0.15    0.30
  -7  -1 -17    0.04    0.28
  -7  -1 -17   -0.20    0.25
  -7   1 -18    1.37    0.43
  -7  -1 -18    0.69    0.37
  -7  -1 -18    1.46    0.42
   7   2 -19    0.96    0.42
   7  -2 -19    0.64    0.42
   7   2 -18    0.81    0.36
   7  -2 -18    0.80    0.37
   7   2 -17    0.08    0.28
   7  -2 -17    0.20    0.32
   7   2 -16    1.95    0.43
   7  -2 -16    2.02    0.45
   7   2 -15    3.15    0.50
   7  -2 -15    3.72    0.52
   7   2 -14    2.44    0.43
   7  -2 -14    3.41    0.49
   7   2 -13    4.12    0.40
   7   2 -13    3.95    0.50
  -7   2  13    4.12    0.40
   7  -2 -13    3.70    0.49
  -7   2  12    0.60    0.20
   7   2 -12    0.47    0.25
   7   2 -12    0.48    0.20
   7  -2 -12    0.88    0.19
   7  -2 -12    0.49    0.23
  -7   2  11   21.40    0.88
   7   2 -11   22.78    1.03
   7   2 -11   23.05    0.90
  -7  -2  11   22.42    0.88
   7  -2 -11   22.06    1.01
   7  -2 -11   21.82    0.80
  -7   2  10    0.13    0.14
   7   2 -10    0.18    0.19
   7  -2 -10   -0.14    0.20
  -7  -2  10   -0.19    0.12
   7  -2 -10    0.06    0.12
  -7   2   9    1.88    0.27
   7   2  -9    2.29    0.35
   7  -2  -9    1.96    0.33
  -7  -2   9    1.95    0.26
   7  -2  -9    2.12    0.22
  -7   2   8    7.06    0.44
   7   2  -8    8.87    0.54
   7  -2  -8    8.14    0.38
   7  -2  -8    7.91    0.53
  -7  -2   8    8.11    0.46
   7   2  -7    0.32    0.16
  -7   2   7    0.40    0.15
  -7  -2   7    0.27    0.14
   7  -2  -7    0.47    0.18
   7  -2  -7    0.65    0.14
  -7   2   6   17.08    0.71
   7   2  -6   17.04    0.74
  -7  -2   6   17.95    0.71
   7  -2  -6   16.75    0.60
   7   2  -5   24.14    0.90
  -7   2   5   23.95    0.88
  -7  -2   5   22.90    0.86
  -7   2   4   12.89    0.57
   7   2  -4   13.03    0.57
  -7  -2   4   12.36    0.55
  -7   2   3    0.41    0.14
   7   2  -3    0.48    0.14
  -7  -2   3    0.65    0.08
  -7  -2   3    0.64    0.15
  -7   2   2   88.87    2.52
  -7  -2   2   88.48    2.36
  -7  -2   2   84.58    2.51
  -7   2   1   21.36    0.79
  -7   2   1   21.07    0.77
  -7  -2   1   21.08    0.68
  -7  -2   1   22.11    0.78
  -7   2   0   20.00    0.75
  -7   2   0   18.47    0.71
  -7  -2   0   19.78    0.65
  -7  -2   0   18.79    0.71
  -7   2  -1   22.43    0.77
   7   2   1   22.15    0.79
  -7   2  -1   21.86    0.81
  -7  -2  -1   21.13    0.73
  -7  -2  -1   20.13    0.76
  -7  -2  -1   21.57    0.72
  -7   2  -2   16.73    0.62
   7   2   2   15.82    0.63
  -7   2  -2   17.47    0.69
  -7  -2  -2   16.06    0.59
  -7  -2  -2   15.75    0.62
   7   2   3    4.02    0.27
  -7   2  -3    3.74    0.34
  -7   2  -3    4.25    0.27
  -7  -2  -3    4.65    0.27
  -7  -2  -3    4.08    0.33
  -7   2  -4   17.69    0.76
  -7   2  -4   19.56    0.68
   7   2   4   18.90    0.70
  -7  -2  -4   19.85    0.70
  -7  -2  -4   18.50    0.74
  -7   2  -5    0.55    0.18
   7   2   5    0.48    0.13
  -7   2  -5    0.72    0.14
  -7  -2  -5    0.57    0.16
  -7  -2  -5    0.52    0.15
  -7   2  -6    0.80    0.20
   7   2   6    1.21    0.18
  -7   2  -6    1.35    0.16
  -7  -2  -6    1.16    0.22
  -7  -2  -6    1.04    0.19
  -7   2  -7   14.31    0.52
  -7   2  -7   14.36    0.71
   7   2   7   13.60    0.55
  -7  -2  -7   13.96    0.62
  -7  -2  -7   14.24    0.69
  -7   2  -8    3.76    0.41
   7   2   8    3.43    0.28
  -7  -2  -8    3.98    0.37
  -7  -2  -8    3.50    0.40
  -7   2  -9    0.77    0.23
  -7  -2  -9    0.79    0.21
  -7  -2  -9    0.75    0.24
  -7   2 -10    3.25    0.41
  -7  -2 -10    3.32    0.41
  -7  -2 -10    2.97    0.36
  -7   2 -11    0.15    0.18
  -7  -2 -11   -0.07    0.17
  -7  -2 -11   -0.24    0.17
  -7   2 -12    3.01    0.44
  -7  -2 -12    2.40    0.36
  -7  -2 -12    3.17    0.45
  -7   2 -13   -0.19    0.19
  -7  -2 -13   -0.19    0.19
  -7  -2 -13    0.06    0.21
  -7   2 -14    1.67    0.39
  -7  -2 -14    0.74    0.28
  -7  -2 -14    1.75    0.36
  -7   2 -15    2.05    0.42
  -7  -2 -15    1.95    0.38
  -7  -2 -15    2.30    0.43
  -7   2 -16    0.15    0.28
  -7  -2 -16    0.16    0.28
  -7  -2 -16    0.15    0.28
  -7   2 -17    2.95    0.52
  -7  -2 -17    2.54    0.49
  -7   2 -18    1.17    0.41
  -7  -2 -18    1.06    0.42
   7   3 -19    1.09    0.43
   7  -3 -19    0.73    0.42
   7   3 -18    1.07    0.38
   7  -3 -18    1.54    0.45
   7   3 -17   -0.06    0.29
   7  -3 -17    0.13    0.32
   7   3 -16    0.97    0.36
   7  -3 -16    0.86    0.35
   7   3 -15    1.09    0.33
   7  -3 -15    0.16    0.27
   7   3 -14    3.85    0.52
   7  -3 -14    3.59    0.51
   7   3 -13    5.44    0.58
   7   3 -13    5.11    0.47
  -7   3  13    5.09    0.45
   7  -3 -13    4.91    0.56
   7   3 -12    4.43    0.43
   7   3 -12    4.59    0.52
  -7   3  12    5.22    0.45
   7  -3 -12    4.94    0.37
   7  -3 -12    4.24    0.49
  -7   3  11    1.22    0.25
   7   3 -11    1.18    0.25
   7  -3 -11    0.65    0.19
   7  -3 -11    0.58    0.26
  -7   3  10    3.08    0.35
   7   3 -10    2.10    0.36
   7   3 -10    3.40    0.36
   7  -3 -10    2.01    0.34
   7  -3 -10    2.76    0.29
   7   3  -9    5.57    0.41
  -7   3   9    5.53    0.40
   7   3  -9    4.35    0.45
   7  -3  -9    4.78    0.48
   7  -3  -9    5.33    0.35
   7   3  -8    1.78    0.29
   7   3  -8    1.82    0.27
  -7   3   8    2.49    0.30
   7  -3  -8    1.59    0.23
   7  -3  -8    1.84    0.30
  -7   3   7    0.66    0.18
   7   3  -7    0.46    0.20
   7   3  -7    0.07    0.14
   7  -3  -7    0.32    0.15
   7  -3  -7    0.51    0.19
  -7   3   6   38.28    1.33
   7   3  -6   39.89    1.34
   7   3  -6   40.75    1.36
   7  -3  -6   39.59    1.24
   7   3  -5    1.51    0.24
  -7   3   5    1.36    0.22
   7   3  -5    1.27    0.21
  -7  -3   5    1.70    0.12
   7   3  -4    4.42    0.31
   7   3  -4    4.48    0.38
  -7   3   4    4.60    0.33
  -7  -3   4    4.37    0.20
  -7   3   3    9.99    0.50
   7   3  -3    9.45    0.49
   7   3  -3    9.72    0.45
  -7  -3   3    9.18    0.35
   7   3  -2   24.27    0.85
  -7   3   2   24.72    0.91
   7   3  -2   27.39    0.94
  -7  -3   2   25.03    0.78
  -7   3   1    9.19    0.47
   7   3  -1    9.74    0.49
  -7   3   1    9.65    0.49
  -7  -3   1   10.13    0.40
  -7   3   0    3.87    0.29
  -7   3   0    3.67    0.32
   7   3   0    3.78    0.33
  -7  -3   0    4.02    0.25
  -7   3  -1   15.94    0.69
  -7   3  -1   18.18    0.68
   7   3   1   17.17    0.69
  -7  -3  -1   16.39    0.63
  -7   3  -2   78.84    2.40
  -7   3  -2   79.32    2.31
   7   3   2   78.63    2.33
  -7  -3  -2   80.66    2.24
  -7  -3  -2   80.56    2.30
  -7   3  -3    4.62    0.35
   7   3   3    4.52    0.31
  -7   3  -3    4.72    0.31
  -7  -3  -3    4.26    0.31
  -7  -3  -3    4.36    0.25
  -7   3  -4   10.52    0.48
  -7   3  -4   11.69    0.58
   7   3   4   10.83    0.50
  -7  -3  -4   11.05    0.45
  -7  -3  -4   11.20    0.54
  -7   3  -5   10.16    0.57
   7   3   5    9.86    0.48
  -7   3  -5   10.50    0.46
  -7  -3  -5   10.50    0.45
  -7  -3  -5    9.93    0.53
   7   3   6   49.67    1.52
  -7   3  -6   48.42    1.47
  -7   3  -6   49.10    1.68
  -7  -3  -6   49.54    1.51
  -7  -3  -6   48.18    1.61
  -7   3  -7    1.45    0.18
   7   3   7    1.91    0.24
  -7   3  -7    1.29    0.26
  -7  -3  -7    1.42    0.27
  -7  -3  -7    1.70    0.22
  -7   3  -8   11.85    0.66
   7   3   8   10.30    0.50
  -7  -3  -8   11.13    0.63
  -7  -3  -8   10.92    0.54
  -7   3  -9    6.52    0.57
  -7  -3  -9    5.39    0.52
  -7  -3  -9    6.09    0.42
  -7   3 -10    0.04    0.19
  -7  -3 -10    0.21    0.20
  -7  -3 -10    0.30    0.17
  -7   3 -11    0.12    0.20
  -7  -3 -11    0.14    0.17
  -7  -3 -11    0.09    0.20
  -7   3 -12    0.06    0.20
  -7  -3 -12    0.03    0.21
  -7  -3 -12    0.12    0.19
  -7   3 -13    0.40    0.26
  -7  -3 -13   -0.04    0.21
  -7  -3 -13    0.28    0.23
  -7   3 -14    5.40    0.62
  -7  -3 -14    5.95    0.63
  -7   3 -15    0.27    0.28
  -7  -3 -15   -0.02    0.24
  -7   3 -16    3.49    0.55
  -7  -3 -16    2.16    0.46
  -7   3 -17    0.01    0.30
  -7  -3 -17    0.04    0.26
   7   4 -19    0.12    0.35
   7  -4 -19   -0.01    0.33
   7   4 -18    2.86    0.56
   7  -4 -18    4.49    0.66
   7   4 -17    2.55    0.49
   7  -4 -17    1.27    0.41
   7   4 -16    0.14    0.29
   7  -4 -16    0.70    0.34
   7   4 -15    0.13    0.25
   7  -4 -15   -0.29    0.24
   7   4 -14    5.45    0.60
   7  -4 -14    5.80    0.61
   7   4 -13    8.54    0.54
  -7   4  13    5.86    0.52
   7   4 -13    6.46    0.64
   7  -4 -13    7.23    0.66
   7  -4 -13    6.80    0.49
  -7   4  12    5.72    0.51
   7   4 -12    7.18    0.49
   7   4 -12    6.82    0.63
   7  -4 -12    6.04    0.58
   7  -4 -12    6.06    0.45
  -7   4  11   -0.21    0.14
   7   4 -11   -0.08    0.19
   7   4 -11   -0.05    0.17
   7  -4 -11   -0.04    0.15
   7  -4 -11    0.18    0.22
  -7   4  10   -0.01    0.16
   7   4 -10   -0.01    0.17
   7   4 -10   -0.24    0.17
   7  -4 -10   -0.07    0.20
   7  -4 -10    0.35    0.17
   7   4  -9    1.95    0.30
  -7   4   9    1.63    0.28
   7   4  -9    1.05    0.27
   7  -4  -9    1.94    0.28
   7  -4  -9    1.74    0.33
   7   4  -8    3.05    0.36
   7   4  -8    4.04    0.41
  -7   4   8    3.20    0.37
   7  -4  -8    3.50    0.34
   7  -4  -8    3.39    0.39
   7   4  -7    5.87    0.47
  -7   4   7    4.88    0.43
   7   4  -7    4.96    0.43
   7  -4  -7    5.26    0.45
   7  -4  -7    3.77    0.35
   7   4  -6    5.60    0.41
  -7   4   6    5.62    0.42
   7   4  -6    6.12    0.41
   7  -4  -6    5.89    0.38
  -7  -4   6    4.90    0.26
   7   4  -5    3.91    0.38
   7   4  -5    4.16    0.35
  -7   4   5    3.54    0.36
  -7  -4   5    3.41    0.21
   7   4  -4    1.92    0.24
  -7   4   4    1.87    0.27
   7   4  -4    2.77    0.32
  -7  -4   4    2.08    0.18
   7   4  -3    3.76    0.36
  -7   4   3    4.12    0.38
   7   4  -3    3.68    0.28
  -7  -4   3    3.81    0.23
  -7   4   2   47.43    1.51
   7   4  -2   46.50    1.52
   7   4  -2   44.83    1.40
  -7   4   2   46.36    1.51
  -7  -4   2   46.25    1.37
  -7   4   1   13.16    0.60
   7   4  -1   12.29    0.49
  -7   4   1   12.91    0.60
   7   4  -1   13.78    0.62
  -7  -4   1   12.84    0.51
   7   4   0    1.31    0.15
  -7   4   0    1.59    0.23
  -7   4   0    1.75    0.25
   7   4   0    1.34    0.23
  -7  -4   0    1.16    0.18
  -7   4  -1    8.75    0.48
   7   4   1    9.12    0.49
  -7   4  -1    9.50    0.48
  -7  -4  -1    9.57    0.44
  -7   4  -2    0.10    0.12
   7   4   2    0.18    0.14
  -7   4  -2    0.11    0.12
  -7  -4  -2    0.55    0.15
  -7   4  -3   11.92    0.59
   7   4   3   11.62    0.57
  -7   4  -3   11.76    0.55
  -7  -4  -3   11.76    0.55
  -7  -4  -3   11.17    0.42
   7   4   4    1.69    0.26
  -7   4  -4    1.86    0.28
  -7   4  -4    1.47    0.22
  -7  -4  -4    1.56    0.24
  -7  -4  -4    1.70    0.16
  -7   4  -5   16.21    0.66
   7   4   5   17.17    0.70
  -7   4  -5   17.08    0.78
  -7  -4  -5   16.40    0.73
  -7  -4  -5   15.89    0.58
  -7   4  -6    0.62    0.21
   7   4   6    1.35    0.24
  -7   4  -6    0.77    0.18
  -7  -4  -6    1.31    0.25
  -7  -4  -6    0.98    0.16
  -7   4  -7    3.77    0.31
  -7   4  -7    3.81    0.43
   7   4   7    3.75    0.36
  -7  -4  -7    3.45    0.40
  -7  -4  -7    3.73    0.30
   7   4   8   15.94    0.69
  -7   4  -8   15.13    0.81
  -7  -4  -8   17.60    0.83
  -7  -4  -8   16.21    0.66
  -7   4  -9    0.67    0.24
  -7  -4  -9    0.51    0.23
  -7  -4  -9    0.42    0.16
  -7   4 -10    0.23    0.22
  -7  -4 -10   -0.07    0.18
  -7   4 -11    1.42    0.33
  -7  -4 -11    1.70    0.35
  -7   4 -12    1.67    0.37
  -7  -4 -12    2.57    0.42
  -7   4 -13    1.10    0.33
  -7  -4 -13    0.09    0.24
  -7   4 -14    4.33    0.57
  -7  -4 -14    4.22    0.55
  -7   4 -15    0.22    0.28
  -7  -4 -15    0.29    0.27
  -7   4 -16    1.35    0.42
  -7  -4 -16    0.82    0.36
  -7   4 -17   -0.29    0.28
  -7  -4 -17    0.22    0.27
   7   5 -18    0.69    0.38
   7  -5 -18    0.95    0.43
   7   5 -17    1.12    0.40
   7  -5 -17    0.62    0.36
   7   5 -16    2.55    0.49
   7  -5 -16    2.95    0.52
   7   5 -15    1.13    0.34
   7  -5 -15    1.13    0.38
   7   5 -14    0.27    0.26
   7  -5 -14    0.03    0.25
   7   5 -13    0.99    0.33
   7   5 -13    1.73    0.32
  -7   5  13    1.77    0.33
   7  -5 -13    1.17    0.33
   7  -5 -13    1.58    0.32
   7   5 -12   -0.12    0.21
  -7   5  12    0.14    0.20
   7   5 -12    0.25    0.21
   7  -5 -12    0.00    0.22
   7  -5 -12    0.18    0.20
   7   5 -11   -0.04    0.18
   7   5 -11    0.37    0.22
  -7   5  11    0.44    0.23
   7  -5 -11    0.22    0.20
   7  -5 -11   -0.05    0.20
  -7   5  10    1.00    0.26
   7   5 -10    0.01    0.19
   7   5 -10    0.27    0.21
   7  -5 -10    0.15    0.19
   7  -5 -10    0.00    0.20
   7   5  -9   14.88    0.74
  -7   5   9   16.38    0.78
   7   5  -9   15.06    0.78
   7  -5  -9   16.59    0.74
   7  -5  -9   14.19    0.77
  -7   5   8    5.24    0.49
   7   5  -8    5.89    0.50
   7   5  -8    6.24    0.52
   7  -5  -8    6.50    0.49
   7  -5  -8    6.68    0.45
   7   5  -7   25.06    0.99
   7   5  -7   24.89    1.00
  -7   5   7   23.65    1.01
   7  -5  -7   24.08    0.94
   7   5  -6    0.10    0.17
  -7   5   6   -0.04    0.16
   7   5  -6    0.04    0.14
  -7  -5   6    0.06    0.13
   7  -5  -6    0.09    0.17
  -7   5   5    0.53    0.20
   7   5  -5    0.07    0.16
   7   5  -5    0.01    0.14
  -7  -5   5    0.39    0.13
   7   5  -4    1.47    0.27
   7   5  -4    1.31    0.21
  -7   5   4    1.35    0.26
  -7  -5   4    1.27    0.19
   7   5  -3   19.93    0.84
   7   5  -3   19.77    0.72
  -7   5   3   19.62    0.84
  -7  -5   3   19.45    0.70
  -7   5   2    7.96    0.49
  -7   5   2    7.67    0.46
   7   5  -2    7.60    0.37
   7   5  -2    7.81    0.49
  -7  -5   2    7.27    0.39
   7   5  -1   17.41    0.60
  -7   5   1   17.04    0.74
  -7   5   1   16.13    0.74
   7   5  -1   17.49    0.77
  -7  -5   1   17.46    0.67
  -7   5   0    1.63    0.26
   7   5   0    1.07    0.13
  -7   5   0    0.98    0.21
   7   5   0    0.97    0.23
  -7  -5   0    1.23    0.20
  -7   5  -1    1.13    0.23
   7   5   1    0.40    0.19
   7   5   1    1.24    0.12
  -7   5  -1    1.22    0.23
  -7  -5  -1    1.04    0.20
  -7   5  -2    4.21    0.38
  -7   5  -2    3.16    0.34
   7   5   2    4.37    0.40
  -7  -5  -2    4.23    0.37
  -7   5  -3    3.42    0.34
  -7   5  -3    3.89    0.38
   7   5   3    3.16    0.35
  -7  -5  -3    4.37    0.39
  -7   5  -4    9.54    0.50
  -7   5  -4    8.43    0.53
   7   5   4    8.65    0.53
  -7  -5  -4    8.94    0.52
   7   5   5    2.06    0.31
  -7   5  -5    2.20    0.32
  -7   5  -5    2.14    0.28
  -7  -5  -5    2.19    0.32
  -7   5  -6   -0.03    0.15
  -7   5  -6   -0.06    0.13
   7   5   6   -0.13    0.16
  -7  -5  -6    0.01    0.17
  -7   5  -7    3.76    0.42
  -7   5  -7    3.45    0.33
   7   5   7    3.60    0.38
  -7  -5  -7    3.56    0.42
  -7   5  -8    1.70    0.31
   7   5   8    1.02    0.25
  -7  -5  -8    1.93    0.33
  -7   5  -9    2.70    0.39
  -7  -5  -9    3.25    0.43
  -7   5 -10   -0.17    0.18
  -7  -5 -10   -0.21    0.17
  -7   5 -11   13.34    0.82
  -7  -5 -11   12.50    0.77
  -7   5 -12   -0.25    0.18
  -7  -5 -12    0.31    0.26
  -7   5 -13    5.25    0.61
  -7  -5 -13    5.49    0.61
  -7   5 -14    0.51    0.30
  -7  -5 -14   -0.18    0.24
  -7   5 -15    3.70    0.58
  -7  -5 -15    3.77    0.56
  -7   5 -16    0.33    0.33
  -7  -5 -16    0.59    0.35
   7   6 -18    2.34    0.49
   7   6 -17    0.59    0.35
   7  -6 -17    0.18    0.34
   7   6 -16    0.80    0.36
   7  -6 -16    0.89    0.38
   7   6 -15    7.60    0.76
   7  -6 -15    9.36    0.80
   7   6 -14    2.71    0.47
  -7   6  14    2.06    0.38
   7  -6 -14    1.65    0.41
   7  -6 -14    2.75    0.41
  -7   6  13    7.23    0.65
   7   6 -13    8.88    0.67
   7  -6 -13    7.41    0.67
   7  -6 -13    8.54    0.59
   7   6 -12    0.35    0.25
   7   6 -12    0.27    0.23
  -7   6  12   -0.04    0.20
   7  -6 -12    0.14    0.21
   7  -6 -12    0.10    0.24
  -7   6  11    0.07    0.23
   7   6 -11    0.61    0.26
   7   6 -11    0.62    0.26
   7  -6 -11    0.80    0.29
   7  -6 -11    0.26    0.23
  -7   6  10    6.92    0.61
   7   6 -10    7.85    0.55
   7   6 -10    7.44    0.63
   7  -6 -10    7.91    0.55
   7  -6 -10    7.88    0.57
   7   6  -9    2.42    0.37
   7   6  -9    1.88    0.32
  -7   6   9    1.92    0.34
   7  -6  -9    1.53    0.32
   7  -6  -9    1.94    0.34
   7   6  -8   17.76    0.83
   7   6  -8   17.69    0.84
  -7   6   8   16.36    0.84
   7  -6  -8   16.35    0.80
   7  -6  -8   18.69    0.85
  -7   6   7   10.99    0.66
   7   6  -7   12.33    0.64
   7   6  -7   11.69    0.67
   7  -6  -7   11.34    0.64
   7   6  -6   22.91    0.98
   7   6  -6   22.40    0.90
  -7   6   6   22.69    0.99
  -7  -6   6   21.84    0.81
   7  -6  -6   23.46    0.96
   7   6  -5   10.16    0.62
   7   6  -5   10.89    0.54
  -7   6   5   10.24    0.61
  -7  -6   5   10.37    0.49
   7   6  -4    9.02    0.57
   7   6  -4    9.48    0.47
  -7   6   4    8.69    0.57
  -7  -6   4    9.18    0.46
  -7   6   3    9.81    0.57
   7   6  -3    6.98    0.50
   7   6  -3    8.22    0.41
  -7  -6   3    7.42    0.42
  -7   6   2    5.46    0.41
   7   6  -2    6.03    0.51
   7   6  -2    5.44    0.31
  -7   6   2    5.02    0.47
  -7  -6   2    5.56    0.36
  -7   6   1    0.89    0.24
   7   6  -1    0.43    0.22
  -7   6   1    0.63    0.20
   7   6  -1    0.37    0.11
  -7  -6   1    0.52    0.18
  -7   6   0    0.29    0.20
  -7   6   0    0.50    0.19
   7   6   0    0.59    0.23
  -7  -6   0    0.46    0.18
  -7   6  -1    9.33    0.55
  -7   6  -1    9.05    0.54
   7   6   1    7.51    0.53
  -7  -6  -1    9.14    0.50
  -7   6  -2   29.81    1.17
  -7   6  -2   31.58    1.17
   7   6   2   31.06    1.19
  -7  -6  -2   32.14    1.14
  -7   6  -3    6.38    0.53
   7   6   3    6.39    0.53
  -7   6  -3    5.82    0.44
  -7  -6  -3    6.27    0.45
  -7   6  -4   14.75    0.74
   7   6   4   13.71    0.72
  -7   6  -4   13.41    0.66
  -7  -6  -4   13.19    0.68
  -7   6  -5    0.01    0.15
   7   6   5   -0.11    0.19
  -7   6  -5   -0.24    0.14
  -7  -6  -5   -0.02    0.16
  -7   6  -6   21.64    0.97
  -7   6  -6   20.57    0.85
   7   6   6   19.82    0.91
  -7  -6  -6   20.77    0.93
  -7   6  -7    2.24    0.30
  -7   6  -7    1.97    0.35
   7   6   7    2.61    0.36
  -7  -6  -7    2.26    0.36
   7   6   8    1.06    0.29
  -7   6  -8    0.97    0.29
  -7  -6  -8    1.12    0.29
  -7   6  -9    1.47    0.33
   7   6   9    1.24    0.28
  -7  -6  -9    0.96    0.30
  -7   6 -10    1.83    0.37
  -7  -6 -10    1.75    0.36
  -7   6 -11    0.00    0.21
  -7  -6 -11    0.07    0.22
  -7   6 -12    4.61    0.57
  -7  -6 -12    3.97    0.54
  -7   6 -13    0.07    0.23
  -7  -6 -13   -0.04    0.22
  -7   6 -14    4.41    0.60
  -7  -6 -14    3.97    0.56
  -7   6 -15    2.85    0.52
  -7  -6 -15    3.65    0.57
  -7   6 -16    0.13    0.30
  -7  -6 -16    0.39    0.33
   7   7 -17    4.28    0.62
   7   7 -16    0.99    0.38
   7   7 -15    2.14    0.45
   7   7 -14   -0.24    0.22
   7  -7 -14   -0.07    0.27
   7  -7 -14    0.27    0.26
   7   7 -13    1.13    0.34
  -7   7  13    0.81    0.31
   7  -7 -13    0.83    0.32
   7  -7 -13    0.69    0.30
  -7   7  12    3.40    0.49
   7   7 -12    4.14    0.50
   7   7 -12    3.19    0.46
   7  -7 -12    3.14    0.45
   7  -7 -12    2.84    0.44
  -7   7  11   -0.08    0.21
   7   7 -11    0.13    0.23
   7   7 -11   -0.07    0.22
   7  -7 -11    0.13    0.23
   7  -7 -11   -0.14    0.23
   7   7 -10    5.19    0.53
   7   7 -10    5.47    0.55
  -7   7  10    5.52    0.58
   7  -7 -10    4.88    0.53
   7  -7 -10    5.78    0.57
   7   7  -9    7.96    0.58
   7   7  -9    8.67    0.59
  -7   7   9   10.02    0.66
   7  -7  -9    7.70    0.59
   7  -7  -9    8.88    0.61
   7   7  -8   -0.07    0.18
  -7   7   8   -0.22    0.19
   7   7  -8    0.40    0.24
   7  -7  -8   -0.10    0.22
   7  -7  -8    0.27    0.21
   7   7  -7    0.00    0.16
   7   7  -7    0.35    0.22
  -7   7   7    0.46    0.24
   7  -7  -7    0.20    0.24
   7   7  -6    3.89    0.46
  -7   7   6    4.37    0.48
   7   7  -6    4.51    0.41
   7  -7  -6    4.14    0.47
  -7  -7   6    4.90    0.40
  -7   7   5   37.41    1.43
   7   7  -5   37.84    1.43
   7   7  -5   38.02    1.28
  -7  -7   5   36.50    1.25
   7   7  -4    0.24    0.16
   7   7  -4    0.36    0.22
  -7   7   4    0.46    0.23
  -7  -7   4    0.76    0.21
   7   7  -3    0.02    0.18
  -7   7   3    0.06    0.19
  -7  -7   3    0.17    0.16
  -7   7   2    2.66    0.33
   7   7  -2    2.92    0.41
  -7   7   2    2.63    0.38
  -7  -7   2    2.96    0.33
   7   7  -1    0.55    0.23
  -7   7   1    0.35    0.23
  -7   7   1    0.23    0.18
  -7  -7   1    0.54    0.20
  -7   7   0    0.15    0.21
  -7   7   0    0.10    0.17
   7   7   0    0.18    0.22
  -7  -7   0   -0.09    0.15
  -7   7  -1    1.73    0.30
  -7   7  -1    1.82    0.31
   7   7   1    1.80    0.33
  -7  -7  -1    1.68    0.29
   7   7   2    7.86    0.56
  -7   7  -2    6.11    0.53
  -7   7  -2    7.09    0.50
  -7  -7  -2    7.71    0.50
  -7   7  -3   23.25    1.01
  -7   7  -3   22.82    0.98
   7   7   3   23.49    1.03
  -7  -7  -3   22.84    0.97
  -7   7  -4    1.16    0.27
   7   7   4    1.05    0.29
  -7   7  -4    0.71    0.25
  -7  -7  -4    0.55    0.24
   7   7   5    0.19    0.21
  -7   7  -5   -0.15    0.16
  -7   7  -5   -0.23    0.17
  -7  -7  -5    0.37    0.22
  -7   7  -6    5.06    0.47
   7   7   6    5.43    0.53
  -7   7  -6    6.04    0.56
  -7  -7  -6    5.30    0.53
  -7   7  -7   12.58    0.66
  -7   7  -7   12.42    0.74
   7   7   7   14.01    0.75
  -7  -7  -7   11.71    0.71
   7   7   8    0.03    0.21
  -7   7  -8    0.11    0.21
  -7  -7  -8   -0.17    0.17
  -7   7  -9    0.47    0.26
   7   7   9    0.23    0.25
  -7  -7  -9    0.10    0.22
  -7   7 -10    0.52    0.25
  -7  -7 -10   -0.29    0.18
  -7   7 -11    0.87    0.30
  -7  -7 -11    0.39    0.27
  -7   7 -12    1.89    0.41
  -7  -7 -12    2.22    0.43
  -7   7 -13    1.62    0.40
  -7  -7 -13    1.72    0.41
  -7   7 -14    0.10    0.25
  -7  -7 -14    0.72    0.35
  -7   7 -15    0.46    0.32
  -7  -7 -15   -0.08    0.29
   7   8 -16    2.24    0.49
   7   8 -15    0.76    0.34
   7   8 -14    4.18    0.56
   7  -8 -14    5.35    0.61
   7   8 -13    0.10    0.26
  -7   8  13   -0.17    0.23
   7  -8 -13   -0.23    0.24
   7   8 -12   -0.04    0.25
   7   8 -12   -0.16    0.22
  -7   8  12   -0.01    0.25
   7  -8 -12   -0.06    0.24
  -7   8  11    2.77    0.46
   7   8 -11    2.23    0.40
   7   8 -11    2.90    0.45
   7  -8 -11    2.86    0.46
   7   8 -10    3.73    0.46
   7   8 -10    3.30    0.48
  -7   8  10    3.17    0.48
   7  -8 -10    3.51    0.46
   7  -8 -10    2.95    0.46
   7   8  -9    0.45    0.28
  -7   8   9    0.42    0.28
   7   8  -9    0.50    0.23
   7  -8  -9    0.54    0.28
   7  -8  -9    0.17    0.26
  -7   8   8    3.63    0.48
   7   8  -8    3.15    0.39
   7   8  -8    2.93    0.44
   7  -8  -8    3.78    0.48
   7  -8  -8    3.75    0.44
   7   8  -7    1.23    0.27
  -7   8   7    1.48    0.34
   7   8  -7    0.97    0.30
   7  -8  -7    1.33    0.33
  -7   8   6    1.19    0.32
   7   8  -6    0.70    0.29
  -7  -8   6    0.89    0.25
   7  -8  -6    0.91    0.31
  -7   8   5    4.73    0.53
   7   8  -5    5.91    0.58
  -7  -8   5    5.80    0.43
   7   8  -4    2.86    0.43
  -7   8   4    3.22    0.43
  -7  -8   4    2.34    0.32
   7   8  -3    4.99    0.54
  -7   8   3    4.60    0.51
  -7  -8   3    4.58    0.44
   7   8  -2   12.20    0.74
  -7   8   2   10.35    0.69
  -7  -8   2   13.18    0.65
   7   8  -1    0.04    0.21
  -7   8   1    0.17    0.18
  -7   8   1    0.04    0.20
  -7  -8   1   -0.01    0.16
  -7   8   0   -0.06    0.20
   7   8   0   -0.13    0.20
  -7   8   0    0.10    0.16
  -7  -8   0    0.14    0.20
  -7   8  -1    0.00    0.19
  -7   8  -1   -0.15    0.16
   7   8   1   -0.16    0.20
  -7  -8  -1   -0.11    0.18
  -7   8  -2   15.36    0.79
  -7   8  -2   15.97    0.82
   7   8   2   16.41    0.87
  -7  -8  -2   17.10    0.80
  -7   8  -3    1.54    0.30
  -7   8  -3    1.42    0.31
   7   8   3    2.48    0.41
  -7  -8  -3    1.11    0.29
  -7   8  -4    0.18    0.21
  -7   8  -4    0.27    0.20
   7   8   4    0.19    0.23
  -7  -8  -4   -0.04    0.19
   7   8   5    2.56    0.42
  -7   8  -5    2.62    0.39
  -7   8  -5    2.42    0.37
  -7  -8  -5    2.41    0.37
  -7   8  -6    0.26    0.23
   7   8   6    0.24    0.24
  -7   8  -6    0.57    0.25
  -7  -8  -6    0.25    0.23
   7   8   7    1.38    0.34
  -7   8  -7    0.79    0.27
  -7   8  -7    0.99    0.30
  -7  -8  -7    1.25    0.32
   7   8   8    0.08    0.24
  -7   8  -8    0.30    0.22
  -7  -8  -8   -0.14    0.20
   7   8   9    1.89    0.39
  -7   8  -9    2.58    0.42
  -7  -8  -9    2.41    0.42
  -7   8 -10    3.81    0.51
  -7  -8 -10    3.53    0.51
  -7   8 -11    2.01    0.42
  -7  -8 -11    1.00    0.35
  -7   8 -12    0.13    0.25
  -7  -8 -12    0.52    0.29
  -7   8 -13    0.11    0.27
  -7  -8 -13    0.25    0.30
  -7   8 -14    0.64    0.33
  -7  -8 -14   -0.18    0.30
   7   9 -15    1.43    0.41
   7   9 -14   -0.11    0.28
   7  -9 -14    0.06    0.31
  -7   9  13    0.07    0.28
   7   9 -13    0.03    0.26
   7  -9 -13   -0.44    0.26
  -7   9  12    5.31    0.64
   7   9 -12    5.09    0.63
   7   9 -12    6.00    0.63
   7  -9 -12    5.11    0.62
   7   9 -11    0.65    0.33
  -7   9  11    0.35    0.30
   7  -9 -11    1.07    0.37
   7   9 -10    0.01    0.26
  -7   9  10    0.50    0.30
   7  -9 -10    0.12    0.29
   7   9  -9    0.72    0.31
  -7   9   9    0.38    0.28
   7  -9  -9    0.53    0.30
  -7   9   8    0.46    0.29
   7   9  -8    0.15    0.24
   7  -9  -8   -0.02    0.27
   7   9  -7   -0.47    0.21
  -7   9   7    0.18    0.23
   7  -9  -7    0.03    0.27
   7   9  -6   -0.18    0.23
  -7   9   6    0.02    0.22
   7  -9  -6    0.56    0.29
  -7  -9   6    0.28    0.22
   7   9  -5    1.63    0.38
  -7   9   5    1.19    0.33
  -7  -9   5    2.01    0.34
   7  -9  -5    1.49    0.37
  -7   9   4   29.36    1.30
   7   9  -4   29.77    1.31
  -7  -9   4   29.73    1.15
   7   9  -3    0.23    0.24
  -7   9   3   -0.03    0.22
  -7  -9   3    0.35    0.21
  -7   9   2    0.54    0.26
   7   9  -2    0.30    0.25
  -7  -9   2   -0.04    0.20
  -7   9   1    0.51    0.22
   7   9  -1    0.21    0.25
  -7   9   1    0.29    0.25
  -7  -9   1    0.20    0.21
  -7   9   0   10.29    0.68
   7   9   0   10.83    0.72
  -7   9   0   11.14    0.64
  -7  -9   0    9.16    0.61
  -7   9  -1   -0.14    0.20
   7   9   1    0.09    0.25
  -7   9  -1   -0.10    0.18
  -7  -9  -1    0.34    0.21
  -7   9  -2    0.76    0.27
   7   9   2    1.14    0.33
  -7   9  -2    1.48    0.33
  -7  -9  -2    0.72    0.26
  -7   9  -3    0.25    0.21
   7   9   3    0.01    0.24
  -7   9  -3    0.42    0.23
  -7  -9  -3   -0.05    0.19
  -7   9  -4    5.58    0.55
  -7   9  -4    5.85    0.57
   7   9   4    6.44    0.64
  -7  -9  -4    5.74    0.56
   7   9   5    0.00    0.26
  -7   9  -5   -0.05    0.20
  -7   9  -5    0.32    0.25
  -7  -9  -5    0.38    0.24
  -7   9  -6    0.46    0.26
   7   9   6    0.01    0.25
  -7   9  -6    0.10    0.22
  -7  -9  -6   -0.20    0.20
  -7   9  -7   -0.34    0.22
  -7   9  -7    0.09    0.22
   7   9   7    0.02    0.24
  -7  -9  -7    0.05    0.22
   7   9   8    7.51    0.69
  -7   9  -8    6.94    0.68
  -7  -9  -8    6.99    0.69
   7   9   9    0.35    0.31
  -7   9  -9    0.56    0.27
  -7  -9  -9    1.23    0.35
  -7   9 -10    0.08    0.25
  -7  -9 -10    0.30    0.27
  -7   9 -11    0.06    0.25
  -7  -9 -11    0.50    0.30
  -7   9 -12    1.16    0.37
  -7  -9 -12    0.84    0.36
  -7   9 -13    0.07    0.27
  -7  -9 -13   -0.25    0.24
  -7  10  13   -0.30    0.30
   7 -10 -13    0.09    0.31
  -7  10  12    0.98    0.38
   7  10 -12    1.14    0.39
   7 -10 -12    0.85    0.36
   7  10 -11    2.30    0.48
  -7  10  11    1.62    0.43
   7 -10 -11    2.23    0.49
   7  10 -10    5.82    0.67
  -7  10  10    7.29    0.75
   7 -10 -10    6.74    0.72
   7  10  -9    0.03    0.26
  -7  10   9   -0.02    0.25
   7 -10  -9   -0.27    0.26
  -7  10   8    0.11    0.26
   7  10  -8    0.07    0.26
   7 -10  -8   -0.40    0.23
  -7  10   7    0.18    0.26
   7  10  -7    0.03    0.27
   7 -10  -7   -0.06    0.25
   7  10  -6    7.40    0.73
  -7  10   6    6.62    0.68
   7 -10  -6    6.26    0.68
  -7  10   5    2.94    0.49
   7  10  -5    2.48    0.46
  -7 -10   5    3.17    0.42
   7 -10  -5    2.72    0.47
   7  10  -4    0.19    0.22
  -7  10   4    0.54    0.26
  -7 -10   4   -0.26    0.20
   7  10  -3    4.24    0.55
  -7  10   3    3.18    0.47
  -7 -10   3    5.29    0.52
   7  10  -2    0.34    0.27
  -7  10   2   -0.09    0.22
  -7 -10   2    0.00    0.22
  -7  10   1    0.78    0.29
   7  10  -1    0.11    0.23
  -7 -10   1    1.00    0.29
  -7  10   0    0.39    0.27
   7  10   0   -0.09    0.20
  -7  10   0    0.19    0.22
  -7 -10   0    0.56    0.26
  -7  10  -1    8.20    0.58
  -7  10  -1    6.15    0.63
   7  10   1    6.94    0.71
  -7 -10  -1    6.80    0.62
   7  10   2    4.54    0.58
  -7  10  -2    5.29    0.54
  -7  10  -2    5.36    0.58
  -7 -10  -2    5.28    0.55
  -7  10  -3    5.01    0.54
  -7  10  -3    6.09    0.60
   7  10   3    5.05    0.61
  -7 -10  -3    4.82    0.54
   7  10   4    0.21    0.29
  -7  10  -4    0.09    0.22
  -7  10  -4    0.49    0.28
  -7 -10  -4    0.45    0.26
   7  10   5    2.05    0.42
  -7  10  -5    1.87    0.37
  -7  10  -5    1.00    0.31
  -7 -10  -5    0.85    0.31
  -7  10  -6    2.15    0.41
  -7  10  -6    2.31    0.43
   7  10   6    1.95    0.43
  -7 -10  -6    1.76    0.40
  -7  10  -7    1.56    0.38
  -7  10  -7    0.96    0.34
   7  10   7    1.12    0.37
  -7 -10  -7    1.16    0.35
   7  10   8    0.43    0.32
  -7  10  -8    0.29    0.28
  -7 -10  -8    0.05    0.27
  -7  10  -9    0.90    0.36
   7  10   9    1.95    0.45
  -7 -10  -9    1.36    0.39
  -7  10 -10    1.49    0.41
  -7 -10 -10    0.57    0.33
  -7  10 -11   -0.14    0.25
  -7 -10 -11   -0.03    0.28
  -7  11  12    0.71    0.41
  -7  11  11    2.36    0.51
   7  11 -11    2.23    0.50
   7 -11 -11    0.82    0.40
   7  11 -10    1.77    0.44
  -7  11  10    2.12    0.49
   7 -11 -10    2.52    0.52
  -7  11   9    2.13    0.47
   7  11  -9    1.24    0.41
   7 -11  -9    0.72    0.36
   7  11  -8   -0.37    0.25
  -7  11   8    0.09    0.29
   7 -11  -8   -0.28    0.26
  -7  11   7    0.90    0.35
   7  11  -7    1.15    0.42
   7 -11  -7    1.73    0.43
  -7  11   6    1.31    0.41
   7  11  -6    2.03    0.45
   7 -11  -6    1.03    0.41
   7  11  -5    9.19    0.83
  -7  11   5    7.22    0.74
   7 -11  -5    8.63    0.80
   7  11  -4    0.37    0.31
  -7  11   4    0.30    0.28
  -7 -11   4   -0.13    0.24
   7 -11  -4    0.46    0.34
  -7  11   3    0.10    0.26
   7  11  -3    0.25    0.28
  -7 -11   3    0.20    0.26
   7  11  -2    2.23    0.45
  -7  11   2    2.25    0.44
  -7 -11   2    3.22    0.45
  -7  11   1    1.19    0.36
   7  11  -1    0.97    0.35
  -7 -11   1    1.47    0.35
  -7  11   0    0.28    0.28
   7  11   0    0.36    0.29
  -7 -11   0    0.20    0.25
   7  11   1    1.16    0.37
  -7  11  -1    1.84    0.41
  -7 -11  -1    2.34    0.40
  -7  11  -2    0.24    0.24
  -7  11  -2    0.57    0.31
   7  11   2    0.47    0.32
  -7 -11  -2    0.63    0.31
   7  11   3    2.42    0.47
  -7  11  -3    2.61    0.44
  -7  11  -3    2.53    0.45
  -7 -11  -3    3.00    0.47
  -7  11  -4    1.33    0.38
   7  11   4    0.81    0.37
  -7  11  -4    1.28    0.34
  -7 -11  -4    1.50    0.37
  -7  11  -5   -0.06    0.27
   7  11   5    0.20    0.30
  -7  11  -5   -0.31    0.22
  -7 -11  -5    0.08    0.28
  -7  11  -6    0.65    0.33
   7  11   6    1.17    0.40
  -7  11  -6    0.91    0.32
  -7 -11  -6    0.84    0.34
  -7  11  -7    2.47    0.45
  -7  11  -7    2.00    0.42
   7  11   7    1.91    0.47
  -7 -11  -7    1.21    0.39
  -7  11  -8   -0.15    0.27
   7  11   8    0.18    0.32
  -7 -11  -8   -0.03    0.27
  -7  11  -9    0.10    0.30
  -7 -11  -9    0.12    0.30
  -7  11 -10    2.66    0.51
  -7 -11 -10    1.03    0.40
  -7  12   9    1.40    0.44
   7  12  -9    1.94    0.48
   7 -12  -9    2.11    0.49
   7  12  -8    0.34    0.34
  -7  12   8    0.27    0.35
   7 -12  -8    0.93    0.39
  -7  12   7   -0.25    0.27
   7  12  -7    0.20    0.35
   7 -12  -7   -0.20    0.30
   7  12  -6    4.62    0.64
  -7  12   6    3.23    0.56
   7 -12  -6    3.41    0.56
  -7  12   5   -0.22    0.25
   7  12  -5    0.31    0.32
   7 -12  -5   -0.23    0.30
   7  12  -4    0.18    0.29
  -7  12   4    0.17    0.29
   7 -12  -4   -0.10    0.30
   7  12  -3    0.78    0.34
  -7  12   3    0.77    0.33
  -7 -12   3    1.05    0.35
   7  12  -2    0.11    0.29
  -7  12   2   -0.02    0.29
  -7 -12   2    0.46    0.29
  -7  12   1    0.82    0.36
   7  12  -1    1.37    0.42
  -7 -12   1    0.67    0.32
  -7  12   0    1.01    0.37
   7  12   0    2.20    0.47
  -7 -12   0    1.62    0.38
  -7  12  -1   -0.29    0.26
   7  12   1    0.08    0.29
  -7 -12  -1    0.05    0.25
  -7  12  -2    1.79    0.42
   7  12   2    2.51    0.51
  -7 -12  -2    2.32    0.46
   7  12   3   -0.20    0.27
  -7  12  -3   -0.04    0.28
  -7 -12  -3    0.45    0.32
   7  12   4    1.11    0.41
  -7  12  -4    2.03    0.46
  -7 -12  -4    2.24    0.45
  -7  12  -5    0.19    0.29
   7  12   5    0.38    0.35
  -7 -12  -5    0.12    0.31
  -7  12  -6   -0.14    0.32
   7  12   6    0.24    0.34
  -7 -12  -6    0.10    0.28
   7  12   7   -0.15    0.34
  -7 -12  -7   -0.05    0.29
  -7  13   6    0.16    0.33
   7  13  -6    0.54    0.38
   7  13  -5   -0.06    0.32
  -7  13   5   -0.19    0.29
   7 -13  -5   -0.15    0.33
  -7  13   4   -0.18    0.27
   7  13  -4    0.72    0.38
   7 -13  -4   -0.09    0.31
   7  13  -3    0.37    0.36
  -7  13   3   -0.08    0.29
   7 -13  -3    0.48    0.38
   7  13  -2    0.02    0.32
  -7  13   2    0.11    0.31
  -7 -13   2    0.61    0.32
  -7  13   1   -0.26    0.28
   7  13  -1    0.59    0.36
  -7 -13   1    0.83    0.36
  -7  13   0    0.06    0.32
   7  13   0    1.46    0.44
  -7 -13   0    0.69    0.36
  -7  13  -1    1.59    0.41
   7  13   1    0.49    0.36
  -7 -13  -1    1.25    0.41
  -7  13  -2   -0.27    0.30
   7  13   2    0.51    0.36
  -7 -13  -2    0.18    0.31
   7  13   3    1.74    0.47
  -7  13  -3    0.71    0.39
  -7 -13  -3    1.11    0.40
   7  13   4    0.07    0.34
  -7  13  -4   -0.30    0.30
  -7 -13  -4    0.24    0.34
   8   0 -19    0.00    0.33
   8   0 -18    0.26    0.32
   8   0 -17    0.14    0.32
   8   0 -16    1.82    0.42
   8   0 -15    0.02    0.26
   8   0 -14    0.11    0.25
   8   0 -13    0.06    0.24
  -8   0  13    0.08    0.14
  -8   0  12   11.37    0.59
   8   0 -12   12.42    0.77
  -8   0  11   -0.24    0.12
   8   0 -11   -0.17    0.20
  -8   0  10   26.56    0.99
   8   0 -10   26.41    1.15
  -8   0   9    0.09    0.13
   8   0  -9    0.03    0.17
  -8   0   8    5.80    0.39
   8   0  -8    5.66    0.50
   8   0  -7    0.19    0.17
  -8   0   7    0.29    0.14
  -8   0   6   21.77    0.84
   8   0  -6   21.86    0.89
  -8   0   5    0.18    0.12
  -8   0   4    1.14    0.19
  -8   0   3   -0.13    0.07
  -8   0   2    0.92    0.17
  -8   0   1   -0.06    0.08
  -8   0   0    0.05    0.10
  -8   0   0    0.10    0.09
  -8   0   0    0.04    0.09
  -8   0  -1   -0.03    0.08
  -8   0  -1    0.04    0.09
  -8   0  -1    0.15    0.10
  -8   0  -2   51.74    1.61
  -8   0  -2   52.65    1.57
  -8   0  -2   50.21    1.55
  -8   0  -3    0.05    0.09
  -8   0  -3   -0.15    0.09
  -8   0  -3    0.11    0.11
  -8   0  -4    1.75    0.23
  -8   0  -4    1.78    0.20
  -8   0  -4    1.22    0.22
  -8   0  -5    0.00    0.09
  -8   0  -5    0.15    0.13
  -8   0  -5    0.26    0.15
  -8   0  -6   30.85    0.97
  -8   0  -6   30.98    1.13
  -8   0  -6   30.49    1.12
  -8   0  -7   -0.05    0.13
  -8   0  -7   -0.34    0.12
   8   0   7   -0.08    0.10
  -8   0  -8   40.41    1.48
  -8   0  -8   42.96    1.48
  -8   0  -9   -0.09    0.17
  -8   0  -9   -0.11    0.16
  -8   0 -10    0.29    0.20
  -8   0 -10    0.12    0.19
  -8   0 -11   -0.26    0.16
  -8   0 -11    0.10    0.19
  -8   0 -12    3.98    0.48
  -8   0 -12    3.87    0.49
  -8   0 -13   -0.02    0.22
  -8   0 -13   -0.03    0.21
  -8   0 -14    6.34    0.67
  -8   0 -14    6.43    0.64
  -8   0 -15   -0.34    0.22
  -8   0 -15   -0.07    0.23
  -8   0 -16    0.34    0.33
  -8   0 -16    0.12    0.27
  -8   0 -17   -0.33    0.27
  -8   0 -17    0.06    0.30
   8   1 -19    0.66    0.36
   8  -1 -19    1.01    0.41
   8   1 -18    0.00    0.28
   8  -1 -18   -0.28    0.32
   8   1 -17   -0.12    0.25
   8  -1 -17    0.12    0.28
   8   1 -16    3.83    0.57
   8  -1 -16    5.34    0.64
   8   1 -15    5.32    0.64
   8  -1 -15    6.75    0.70
   8   1 -14    0.40    0.25
  -8   1  14    0.38    0.19
   8  -1 -14    0.11    0.22
   8   1 -13    0.63    0.29
  -8   1  13    0.47    0.19
  -8  -1  13    0.43    0.18
   8  -1 -13    0.78    0.30
  -8   1  12    3.64    0.38
   8   1 -12    3.83    0.48
  -8  -1  12    3.60    0.36
   8  -1 -12    3.61    0.48
   8   1 -11   38.62    1.53
  -8   1  11   40.09    1.36
   8  -1 -11   39.10    1.52
  -8  -1  11   38.93    1.35
  -8   1  10    0.00    0.14
   8   1 -10    0.37    0.24
   8  -1 -10    0.10    0.21
  -8  -1  10    0.05    0.13
   8   1  -9    0.11    0.21
  -8   1   9    0.33    0.16
   8  -1  -9    0.63    0.12
   8  -1  -9    0.59    0.22
  -8  -1   9    0.58    0.18
   8   1  -8    1.63    0.29
  -8   1   8    1.58    0.24
   8  -1  -8    1.38    0.29
  -8  -1   8    1.17    0.21
   8  -1  -8    1.61    0.15
   8   1  -7    1.23    0.26
  -8   1   7    2.17    0.27
   8  -1  -7    1.11    0.25
  -8  -1   7    1.52    0.22
   8  -1  -7    1.56    0.14
  -8   1   6    2.33    0.28
   8   1  -6    2.48    0.31
   8  -1  -6    2.28    0.17
   8  -1  -6    2.35    0.31
  -8  -1   6    2.39    0.28
  -8   1   5    7.71    0.43
   8   1  -5    7.02    0.44
  -8  -1   5    7.58    0.42
  -8   1   4   10.57    0.51
  -8  -1   4   11.38    0.53
  -8   1   3   56.49    1.70
  -8  -1   3   53.33    1.68
  -8   1   2    8.44    0.44
  -8  -1   2    8.14    0.42
  -8  -1   2    8.81    0.33
  -8   1   1    3.33    0.30
  -8   1   1    3.65    0.31
  -8  -1   1    3.98    0.22
  -8  -1   1    3.52    0.26
  -8   1   0    6.21    0.36
  -8   1   0    6.63    0.38
  -8  -1   0    6.89    0.32
  -8  -1   0    6.80    0.36
  -8  -1   0    6.81    0.37
  -8   1  -1   11.77    0.54
  -8   1  -1   12.45    0.52
  -8  -1  -1   11.99    0.51
  -8  -1  -1   12.12    0.52
  -8  -1  -1   11.98    0.49
  -8   1  -2    6.73    0.40
  -8   1  -2    7.62    0.39
  -8  -1  -2    7.31    0.38
  -8  -1  -2    7.79    0.39
  -8  -1  -2    7.54    0.39
  -8   1  -3    2.08    0.25
  -8   1  -3    1.92    0.24
  -8   1  -3    2.11    0.22
  -8  -1  -3    1.74    0.21
  -8  -1  -3    2.35    0.26
  -8  -1  -3    1.99    0.21
  -8   1  -4    2.06    0.21
  -8   1  -4    1.86    0.25
  -8   1  -4    1.88    0.26
  -8  -1  -4    1.59    0.22
  -8  -1  -4    2.28    0.27
  -8  -1  -4    1.99    0.21
  -8   1  -5    5.57    0.40
   8   1   5    4.88    0.31
  -8   1  -5    5.19    0.30
  -8   1  -5    5.05    0.38
  -8  -1  -5    5.27    0.31
  -8  -1  -5    5.28    0.35
  -8  -1  -5    5.16    0.38
  -8   1  -6    0.60    0.13
  -8   1  -6    0.94    0.23
  -8   1  -6    0.69    0.20
   8   1   6    0.54    0.14
  -8  -1  -6    0.54    0.20
  -8  -1  -6    0.53    0.17
  -8   1  -7   27.68    0.89
  -8   1  -7   27.81    1.09
  -8   1  -7   27.80    1.10
   8   1   7   28.37    0.92
  -8  -1  -7   28.71    1.09
  -8  -1  -7   28.35    1.05
  -8   1  -8    6.06    0.51
  -8   1  -8    6.16    0.53
  -8  -1  -8    4.67    0.48
  -8  -1  -8    5.90    0.44
  -8   1  -9    5.72    0.53
  -8   1  -9    4.97    0.49
  -8  -1  -9    4.49    0.47
  -8  -1  -9    4.06    0.43
  -8   1 -10    1.45    0.32
  -8   1 -10    1.53    0.30
  -8  -1 -10    1.58    0.31
  -8  -1 -10    1.44    0.28
  -8   1 -11    9.83    0.65
  -8   1 -11    8.24    0.61
  -8  -1 -11    8.43    0.60
  -8  -1 -11    8.99    0.59
  -8   1 -12    4.24    0.52
  -8   1 -12    2.95    0.43
  -8  -1 -12    2.72    0.42
  -8  -1 -12    4.08    0.47
  -8   1 -13    0.66    0.28
  -8   1 -13    0.68    0.29
  -8  -1 -13   -0.09    0.20
  -8  -1 -13    0.61    0.28
  -8   1 -14    4.53    0.59
  -8   1 -14    4.33    0.55
  -8  -1 -14    4.12    0.53
  -8  -1 -14    3.93    0.50
  -8   1 -15    0.06    0.26
  -8   1 -15    0.35    0.27
  -8  -1 -15    0.60    0.30
  -8   1 -16    1.45    0.41
  -8  -1 -16    1.17    0.38
  -8  -1 -16    1.66    0.41
  -8   1 -17    0.94    0.38
  -8  -1 -17    1.75    0.43
  -8  -1 -17    1.88    0.46
   8   2 -19    0.50    0.37
   8  -2 -19    0.87    0.42
   8   2 -18    1.62    0.44
   8  -2 -18    1.74    0.48
   8   2 -17    5.72    0.69
   8  -2 -17    7.66    0.81
   8   2 -16    0.22    0.29
   8  -2 -16   -0.17    0.27
   8   2 -15    2.03    0.44
   8  -2 -15    2.04    0.44
   8   2 -14    0.32    0.25
  -8   2  14    0.44    0.21
   8  -2 -14    0.66    0.32
  -8   2  13    6.27    0.52
   8   2 -13    5.39    0.61
   8   2 -13    5.68    0.49
   8  -2 -13    5.81    0.60
  -8   2  12    1.55    0.27
   8   2 -12    1.06    0.25
   8   2 -12    0.98    0.30
  -8  -2  12    1.01    0.23
   8  -2 -12    1.08    0.33
   8   2 -11    0.16    0.22
  -8   2  11    0.12    0.16
  -8  -2  11   -0.01    0.14
   8  -2 -11   -0.08    0.22
   8   2 -10    2.56    0.38
  -8   2  10    2.90    0.34
   8  -2 -10    3.54    0.44
   8  -2 -10    3.56    0.28
  -8  -2  10    2.96    0.33
   8   2  -9    5.32    0.51
  -8   2   9    4.64    0.42
   8  -2  -9    4.60    0.29
   8  -2  -9    4.58    0.46
  -8  -2   9    5.05    0.38
  -8   2   8    3.25    0.34
   8   2  -8    3.19    0.37
   8  -2  -8    3.19    0.39
  -8  -2   8    2.41    0.30
   8  -2  -8    3.14    0.23
   8   2  -7    0.06    0.16
  -8   2   7    0.16    0.14
  -8  -2   7    0.06    0.12
   8  -2  -7    0.01    0.16
   8  -2  -7    0.14    0.11
   8   2  -6    5.89    0.42
  -8   2   6    5.25    0.38
  -8  -2   6    6.22    0.39
   8  -2  -6    5.58    0.30
   8   2  -5   28.25    1.06
  -8   2   5   29.96    1.06
  -8  -2   5   29.34    1.04
  -8   2   4    6.65    0.40
   8   2  -4    5.76    0.38
  -8  -2   4    6.09    0.38
  -8   2   3   -0.09    0.09
  -8  -2   3    0.17    0.06
  -8  -2   3    0.06    0.10
  -8   2   2    3.65    0.32
  -8  -2   2    3.66    0.20
  -8  -2   2    3.92    0.33
  -8   2   1    1.45    0.22
  -8   2   1    1.31    0.20
  -8  -2   1    1.29    0.20
  -8  -2   1    1.72    0.17
  -8   2   0   13.10    0.56
  -8   2   0   13.36    0.60
  -8  -2   0   12.40    0.55
  -8  -2   0   12.62    0.49
  -8   2  -1    2.65    0.28
  -8   2  -1    2.27    0.25
  -8  -2  -1    2.84    0.27
  -8  -2  -1    2.42    0.23
  -8  -2  -1    2.72    0.25
   8   2   2    0.64    0.17
  -8   2  -2    0.81    0.16
  -8   2  -2    0.61    0.16
  -8  -2  -2    0.58    0.14
  -8  -2  -2    0.54    0.13
  -8  -2  -2    0.84    0.16
   8   2   3    1.44    0.21
  -8   2  -3    1.30    0.19
  -8   2  -3    1.09    0.21
  -8  -2  -3    1.49    0.19
  -8  -2  -3    1.66    0.22
  -8   2  -4   10.93    0.47
   8   2   4   10.80    0.49
  -8   2  -4   10.98    0.56
  -8  -2  -4    9.60    0.51
  -8  -2  -4    9.79    0.47
  -8   2  -5    3.57    0.26
  -8   2  -5    2.86    0.33
   8   2   5    3.50    0.30
  -8  -2  -5    2.92    0.33
  -8  -2  -5    3.42    0.30
   8   2   6    0.14    0.13
  -8   2  -6    0.02    0.09
  -8   2  -6   -0.06    0.15
  -8  -2  -6    0.15    0.15
  -8  -2  -6    0.08    0.12
  -8   2  -7    1.10    0.16
   8   2   7    0.82    0.17
  -8   2  -7    1.17    0.26
  -8  -2  -7    0.89    0.24
  -8  -2  -7    0.86    0.20
   8   2   8    1.16    0.19
  -8   2  -8    1.01    0.25
  -8  -2  -8    0.87    0.21
  -8  -2  -8    1.23    0.27
  -8   2  -9    5.57    0.54
  -8  -2  -9    5.38    0.51
  -8  -2  -9    5.57    0.42
  -8   2 -10    1.38    0.31
  -8  -2 -10    1.33    0.29
  -8  -2 -10    0.98    0.25
  -8   2 -11    4.16    0.49
  -8  -2 -11    5.14    0.49
  -8  -2 -11    4.34    0.51
  -8   2 -12    0.85    0.30
  -8  -2 -12    0.60    0.25
  -8  -2 -12    0.72    0.28
  -8   2 -13    4.59    0.55
  -8  -2 -13    4.01    0.51
  -8  -2 -13    4.03    0.48
  -8   2 -14    0.82    0.30
  -8  -2 -14    0.34    0.26
  -8  -2 -14    0.62    0.28
  -8   2 -15    2.75    0.48
  -8  -2 -15    2.75    0.47
  -8  -2 -15    2.85    0.45
  -8   2 -16    0.11    0.29
  -8  -2 -16    0.09    0.27
  -8   2 -17   -0.48    0.27
  -8  -2 -17    0.04    0.27
   8   3 -19    0.30    0.36
   8  -3 -19   -0.88    0.29
   8   3 -18    7.33    0.82
   8  -3 -18    9.81    0.91
   8   3 -17    0.90    0.38
   8  -3 -17    1.94    0.47
   8   3 -16    0.07    0.25
   8  -3 -16    0.22    0.28
   8   3 -15    1.07    0.36
   8  -3 -15    0.75    0.33
  -8   3  14    1.17    0.27
   8   3 -14    1.42    0.36
   8  -3 -14    1.72    0.41
   8   3 -13    2.02    0.32
   8   3 -13    1.69    0.37
  -8   3  13    2.32    0.34
   8  -3 -13    1.91    0.38
   8   3 -12    0.16    0.22
   8   3 -12   -0.28    0.15
  -8   3  12   -0.18    0.15
   8  -3 -12    0.00    0.23
  -8   3  11    0.71    0.23
   8   3 -11    1.04    0.30
   8   3 -11    1.22    0.26
   8  -3 -11    0.07    0.24
   8  -3 -11    1.06    0.21
   8   3 -10   30.89    1.17
   8   3 -10   30.19    1.27
  -8   3  10   33.12    1.20
   8  -3 -10   30.95    1.28
   8  -3 -10   32.59    1.08
   8   3  -9    0.63    0.21
   8   3  -9    0.34    0.22
  -8   3   9    0.16    0.17
   8  -3  -9    0.13    0.23
   8  -3  -9    0.60    0.17
   8   3  -8    0.08    0.15
  -8   3   8   -0.10    0.13
   8   3  -8    0.19    0.18
   8  -3  -8   -0.23    0.12
   8  -3  -8    0.25    0.20
   8   3  -7    1.53    0.27
  -8   3   7    1.41    0.26
   8   3  -7    2.36    0.31
  -8  -3   7    1.63    0.25
   8  -3  -7    1.23    0.20
   8  -3  -7    2.10    0.31
   8   3  -6   26.47    0.99
   8   3  -6   24.70    0.98
  -8   3   6   24.51    0.97
   8  -3  -6   24.86    0.86
  -8  -3   6   25.83    0.97
   8   3  -5   13.86    0.63
  -8   3   5   13.32    0.64
   8   3  -5   13.11    0.64
  -8  -3   5   14.20    0.64
   8   3  -4    0.11    0.13
  -8   3   4    0.39    0.15
   8   3  -4    0.09    0.14
  -8  -3   4    0.15    0.07
  -8  -3   4    0.05    0.12
   8   3  -3    0.99    0.21
   8   3  -3    1.15    0.19
  -8   3   3    0.79    0.18
  -8  -3   3    1.02    0.20
  -8  -3   3    0.96    0.12
   8   3  -2    0.51    0.14
   8   3  -2    0.70    0.19
  -8   3   2    0.39    0.15
  -8  -3   2    0.54    0.11
   8   3  -1    4.95    0.37
  -8   3   1    6.68    0.40
  -8   3   1    7.26    0.41
  -8  -3   1    5.96    0.30
  -8   3   0    1.07    0.20
   8   3   0    1.50    0.23
  -8   3   0    1.31    0.21
  -8  -3   0    1.60    0.19
   8   3   1    4.04    0.35
  -8   3  -1    4.85    0.33
  -8   3  -1    4.00    0.36
  -8  -3  -1    4.43    0.29
  -8   3  -2   12.59    0.57
   8   3   2   12.92    0.59
  -8   3  -2   11.80    0.59
  -8  -3  -2   12.83    0.50
  -8  -3  -2   13.59    0.56
   8   3   3    8.59    0.46
  -8   3  -3    8.97    0.51
  -8   3  -3    8.99    0.45
  -8  -3  -3    8.69    0.40
  -8  -3  -3    8.63    0.46
  -8   3  -4    2.51    0.31
  -8   3  -4    2.37    0.26
   8   3   4    2.27    0.27
  -8  -3  -4    2.69    0.25
  -8  -3  -4    2.51    0.30
   8   3   5    7.60    0.43
  -8   3  -5    7.92    0.41
  -8   3  -5    6.62    0.48
  -8  -3  -5    7.47    0.39
  -8  -3  -5    8.17    0.48
   8   3   6    5.44    0.37
  -8   3  -6    5.31    0.33
  -8   3  -6    5.85    0.44
  -8  -3  -6    5.20    0.46
  -8  -3  -6    5.40    0.35
  -8   3  -7    0.02    0.11
  -8   3  -7   -0.14    0.14
   8   3   7   -0.06    0.14
  -8  -3  -7    0.17    0.19
  -8  -3  -7    0.18    0.13
   8   3   8   21.76    0.79
  -8   3  -8   19.92    0.94
  -8  -3  -8   18.96    0.90
  -8  -3  -8   21.52    0.84
  -8   3  -9    0.40    0.22
  -8  -3  -9    0.49    0.22
  -8  -3  -9    0.51    0.19
  -8   3 -10    3.19    0.44
  -8  -3 -10    3.97    0.40
  -8  -3 -10    4.42    0.49
  -8   3 -11    1.03    0.30
  -8  -3 -11    0.68    0.26
  -8  -3 -11    0.52    0.21
  -8   3 -12    4.94    0.57
  -8  -3 -12    4.05    0.51
  -8  -3 -12    5.30    0.51
  -8   3 -13    0.11    0.26
  -8  -3 -13    0.14    0.24
  -8   3 -14    6.12    0.66
  -8  -3 -14    4.40    0.58
  -8   3 -15   -0.04    0.24
  -8  -3 -15   -0.09    0.23
  -8   3 -16    0.78    0.36
  -8  -3 -16    2.28    0.47
  -8   3 -17    0.19    0.33
  -8  -3 -17    0.50    0.32
   8   4 -19    0.17    0.36
   8  -4 -19    0.51    0.38
   8   4 -18    0.11    0.31
   8  -4 -18   -0.50    0.32
   8   4 -17    0.77    0.38
   8  -4 -17    0.76    0.39
   8   4 -16    1.15    0.38
   8  -4 -16    2.23    0.45
   8   4 -15    0.47    0.30
   8  -4 -15    0.10    0.28
  -8   4  14    4.07    0.45
   8   4 -14    4.95    0.58
   8  -4 -14    4.63    0.57
   8   4 -13    0.05    0.22
  -8   4  13    0.13    0.20
   8   4 -13    0.05    0.24
   8  -4 -13   -0.22    0.23
   8   4 -12    9.58    0.69
  -8   4  12   10.26    0.61
   8   4 -12    9.41    0.60
   8  -4 -12   11.21    0.72
   8  -4 -12    8.56    0.52
  -8   4  11    1.33    0.28
   8   4 -11    0.94    0.26
   8   4 -11    0.74    0.26
   8  -4 -11    0.68    0.29
   8  -4 -11    0.88    0.23
  -8   4  10    0.06    0.17
   8   4 -10    0.04    0.21
   8   4 -10   -0.17    0.16
   8  -4 -10   -0.01    0.20
   8  -4 -10   -0.12    0.14
  -8   4   9    7.90    0.52
   8   4  -9    7.38    0.51
   8   4  -9    7.54    0.54
   8  -4  -9    7.32    0.55
   8  -4  -9    7.93    0.46
  -8   4   8    5.03    0.46
   8   4  -8    4.66    0.45
   8   4  -8    4.31    0.44
   8  -4  -8    4.83    0.35
   8  -4  -8    5.35    0.50
   8   4  -7    6.98    0.47
  -8   4   7    5.11    0.47
   8   4  -7    4.99    0.45
   8  -4  -7    6.07    0.40
   8   4  -6    1.32    0.27
   8   4  -6    1.40    0.25
  -8   4   6    1.82    0.27
   8  -4  -6    1.36    0.24
  -8  -4   6    1.68    0.15
   8   4  -5    4.34    0.38
  -8   4   5    3.79    0.39
   8   4  -5    4.71    0.43
  -8  -4   5    3.97    0.22
   8   4  -4    2.10    0.29
  -8   4   4    1.96    0.29
   8   4  -4    2.45    0.27
  -8  -4   4    2.57    0.20
   8   4  -3    5.02    0.33
   8   4  -3    4.80    0.43
  -8   4   3    4.92    0.43
  -8  -4   3    4.82    0.27
   8   4  -2    0.09    0.14
   8   4  -2    0.20    0.13
  -8   4   2    0.21    0.14
  -8   4   2   -0.07    0.14
  -8  -4   2    0.00    0.09
  -8   4   1    0.17    0.14
   8   4  -1    0.24    0.16
  -8   4   1    0.54    0.16
   8   4  -1    0.39    0.13
  -8  -4   1    0.33    0.12
  -8   4   0    3.46    0.34
   8   4   0    4.17    0.39
  -8   4   0    3.88    0.37
  -8  -4   0    4.39    0.29
  -8   4  -1    1.20    0.22
   8   4   1    1.84    0.27
  -8   4  -1    1.32    0.23
  -8  -4  -1    1.26    0.20
   8   4   2   11.63    0.58
  -8   4  -2   10.89    0.55
  -8   4  -2   11.03    0.59
  -8  -4  -2   12.41    0.55
  -8   4  -3    1.90    0.26
   8   4   3    2.13    0.29
  -8   4  -3    2.26    0.31
  -8  -4  -3    2.37    0.29
   8   4   4    0.61    0.20
  -8   4  -4    1.17    0.25
  -8   4  -4    1.37    0.22
  -8  -4  -4    1.31    0.16
  -8  -4  -4    1.14    0.24
  -8   4  -5    2.75    0.36
   8   4   5    1.99    0.28
  -8   4  -5    2.13    0.26
  -8  -4  -5    2.24    0.31
  -8  -4  -5    2.82    0.24
   8   4   6    1.00    0.22
  -8   4  -6    0.96    0.26
  -8   4  -6    1.26    0.20
  -8  -4  -6    0.91    0.24
  -8  -4  -6    0.84    0.16
  -8   4  -7    1.06    0.19
   8   4   7    1.00    0.23
  -8   4  -7    0.67    0.25
  -8  -4  -7    0.61    0.22
  -8  -4  -7    0.96    0.19
   8   4   8    5.95    0.41
  -8   4  -8    5.40    0.53
  -8  -4  -8    6.02    0.38
  -8  -4  -8    5.54    0.53
  -8   4  -9    0.06    0.18
  -8  -4  -9    0.24    0.20
  -8   4 -10    0.28    0.22
  -8  -4 -10    0.32    0.23
  -8   4 -11    0.29    0.24
  -8  -4 -11   -0.10    0.20
  -8   4 -12    0.00    0.19
  -8  -4 -12    0.07    0.21
  -8   4 -13    2.22    0.44
  -8  -4 -13    3.58    0.51
  -8   4 -14    0.85    0.34
  -8  -4 -14    0.19    0.27
  -8   4 -15   -0.40    0.25
  -8  -4 -15    0.29    0.29
  -8   4 -16    0.18    0.31
  -8  -4 -16    0.95    0.36
   8   5 -18    0.02    0.32
   8  -5 -18    0.31    0.35
   8   5 -17    3.46    0.58
   8  -5 -17    5.28    0.67
   8   5 -16    0.07    0.27
   8  -5 -16   -0.28    0.28
   8   5 -15    0.02    0.28
   8  -5 -15    0.33    0.32
   8   5 -14    0.18    0.26
  -8   5  14   -0.22    0.19
   8  -5 -14   -0.13    0.25
   8   5 -13    8.75    0.61
  -8   5  13    8.78    0.61
   8   5 -13    7.88    0.73
   8  -5 -13    9.42    0.69
  -8   5  12    1.19    0.30
   8   5 -12    0.94    0.28
   8   5 -12    0.76    0.29
   8  -5 -12    0.88    0.32
   8  -5 -12    1.26    0.28
   8   5 -11   19.48    0.89
  -8   5  11   18.86    0.90
   8   5 -11   17.53    0.92
   8  -5 -11   17.83    0.93
   8  -5 -11   17.87    0.81
   8   5 -10    1.07    0.28
   8   5 -10    0.76    0.26
  -8   5  10    0.76    0.25
   8  -5 -10    0.67    0.26
   8  -5 -10    0.66    0.24
   8   5  -9    0.77    0.25
  -8   5   9    0.71    0.23
   8   5  -9    0.86    0.25
   8  -5  -9    0.83    0.26
   8  -5  -9    0.74    0.23
  -8   5   8    9.08    0.60
   8   5  -8    9.51    0.59
   8   5  -8   10.01    0.60
   8  -5  -8   10.19    0.62
   8  -5  -8    9.37    0.54
  -8   5   7    8.97    0.58
   8   5  -7    9.88    0.57
   8   5  -7    8.81    0.57
   8  -5  -7    9.50    0.54
  -8   5   6    0.07    0.18
   8   5  -6    0.37    0.18
   8   5  -6    0.23    0.19
  -8  -5   6    0.00    0.11
   8   5  -5   11.21    0.56
   8   5  -5   11.98    0.65
  -8   5   5   11.28    0.64
  -8  -5   5   11.20    0.46
   8   5  -4    3.84    0.42
   8   5  -4    4.07    0.34
  -8   5   4    3.49    0.40
  -8  -5   4    3.87    0.27
   8   5  -3    1.01    0.26
  -8   5   3    1.41    0.27
   8   5  -3    0.99    0.19
  -8  -5   3    1.04    0.17
  -8   5   2    2.34    0.30
   8   5  -2    1.73    0.21
  -8   5   2    1.99    0.29
   8   5  -2    2.08    0.32
  -8  -5   2    1.87    0.22
  -8   5   1   25.58    0.99
   8   5  -1   23.27    0.97
  -8   5   1   24.85    0.97
   8   5  -1   24.86    0.82
  -8  -5   1   24.87    0.87
  -8   5   0    6.86    0.46
   8   5   0    7.19    0.48
   8   5   0    5.71    0.31
  -8   5   0    7.12    0.46
  -8  -5   0    6.40    0.38
  -8   5  -1    0.63    0.20
  -8   5  -1    0.97    0.22
   8   5   1    0.89    0.13
   8   5   1    0.71    0.21
  -8  -5  -1    0.70    0.18
  -8   5  -2    0.14    0.15
   8   5   2    0.14    0.17
  -8   5  -2    0.12    0.15
  -8  -5  -2    0.18    0.15
  -8   5  -3    1.71    0.27
   8   5   3    1.34    0.26
  -8   5  -3    1.80    0.30
  -8  -5  -3    2.00    0.28
   8   5   4    0.18    0.19
  -8   5  -4    0.12    0.17
  -8   5  -4    0.20    0.18
  -8  -5  -4    0.00    0.14
  -8   5  -5    0.29    0.20
   8   5   5    0.40    0.20
  -8   5  -5    0.60    0.20
  -8  -5  -5    0.48    0.20
   8   5   6    0.15    0.17
  -8   5  -6    0.16    0.19
  -8   5  -6   -0.13    0.14
  -8  -5  -6    0.12    0.18
  -8   5  -7   17.23    0.73
   8   5   7   17.60    0.78
  -8   5  -7   18.67    0.89
  -8  -5  -7   16.96    0.84
   8   5   8   -0.13    0.16
  -8   5  -8   -0.08    0.15
  -8  -5  -8    0.12    0.20
  -8   5  -9   11.99    0.75
  -8  -5  -9   12.04    0.72
  -8   5 -10   -0.28    0.14
  -8  -5 -10   -0.16    0.18
  -8   5 -11    0.41    0.26
  -8  -5 -11    0.51    0.28
  -8   5 -12    1.45    0.38
  -8  -5 -12    1.71    0.38
  -8   5 -13    0.71    0.31
  -8  -5 -13    0.28    0.27
  -8   5 -14    0.50    0.29
  -8  -5 -14    0.06    0.28
  -8   5 -15    0.88    0.39
  -8  -5 -15    0.70    0.33
  -8   5 -16    2.50    0.52
  -8  -5 -16    2.79    0.53
   8   6 -17   -0.15    0.29
   8  -6 -17   -0.03    0.34
   8   6 -16    0.03    0.32
   8  -6 -16    0.13    0.33
   8   6 -15    1.36    0.38
   8  -6 -15    2.46    0.47
  -8   6  14    3.20    0.45
   8   6 -14    2.95    0.48
   8  -6 -14    3.78    0.53
  -8   6  13    3.30    0.44
   8   6 -13    2.20    0.41
   8   6 -13    1.58    0.37
   8  -6 -13    1.66    0.40
   8  -6 -13    3.12    0.43
  -8   6  12   24.95    1.11
   8   6 -12   25.72    1.10
   8   6 -12   23.24    1.14
   8  -6 -12   26.49    1.19
   8  -6 -12   23.10    1.04
   8   6 -11    0.50    0.25
  -8   6  11    0.59    0.25
   8   6 -11    0.36    0.24
   8  -6 -11    0.97    0.29
   8  -6 -11    0.89    0.31
   8   6 -10    2.87    0.42
  -8   6  10    3.79    0.47
   8  -6 -10    3.79    0.44
   8  -6 -10    3.56    0.46
   8   6  -9    7.69    0.56
   8   6  -9    8.37    0.57
  -8   6   9    8.00    0.60
   8  -6  -9    8.28    0.55
   8  -6  -9    8.02    0.58
   8   6  -8   19.17    0.89
   8   6  -8   21.32    0.96
  -8   6   8   21.08    0.97
   8  -6  -8   19.11    0.93
   8  -6  -8   21.13    0.91
   8   6  -7    0.98    0.28
   8   6  -7    0.36    0.20
  -8   6   7    0.17    0.20
   8  -6  -7    0.56    0.26
  -8   6   6    5.86    0.54
   8   6  -6    5.96    0.54
   8   6  -6    5.47    0.46
  -8  -6   6    4.79    0.33
   8  -6  -6    4.96    0.48
   8   6  -5    0.09    0.18
  -8   6   5    0.20    0.20
   8   6  -5   -0.19    0.15
  -8  -6   5    0.04    0.14
   8   6  -4   -0.22    0.13
   8   6  -4    0.07    0.19
  -8   6   4    0.21    0.19
  -8  -6   4    0.26    0.15
   8   6  -3    2.42    0.26
  -8   6   3    2.05    0.33
   8   6  -3    2.59    0.37
  -8  -6   3    2.17    0.26
   8   6  -2   17.37    0.66
   8   6  -2   18.34    0.86
  -8   6   2   17.96    0.84
  -8   6   2   19.61    0.83
  -8  -6   2   17.06    0.71
  -8   6   1   10.35    0.62
  -8   6   1   12.27    0.66
   8   6  -1   12.66    0.68
  -8  -6   1   12.66    0.57
  -8   6   0   44.02    1.52
  -8   6   0   41.20    1.50
   8   6   0   43.63    1.54
  -8  -6   0   42.96    1.42
  -8   6  -1    2.75    0.35
  -8   6  -1    2.56    0.34
   8   6   1    2.38    0.36
  -8  -6  -1    2.73    0.32
   8   6   2    2.70    0.37
  -8   6  -2    2.95    0.36
  -8   6  -2    3.29    0.38
  -8  -6  -2    3.62    0.37
   8   6   3   17.86    0.83
  -8   6  -3   17.58    0.79
  -8   6  -3   17.03    0.83
  -8  -6  -3   16.70    0.77
  -8   6  -4    8.41    0.57
  -8   6  -4    8.53    0.53
   8   6   4    7.72    0.55
  -8  -6  -4    8.86    0.54
  -8   6  -5    4.86    0.43
   8   6   5    4.20    0.46
  -8   6  -5    4.38    0.47
  -8  -6  -5    3.73    0.43
  -8   6  -6   12.71    0.75
   8   6   6   14.93    0.74
  -8   6  -6   13.49    0.66
  -8  -6  -6   11.79    0.69
  -8   6  -7   -0.21    0.16
   8   6   7    0.56    0.24
  -8   6  -7    0.35    0.20
  -8  -6  -7    0.36    0.23
   8   6   8    6.19    0.53
  -8   6  -8    5.90    0.58
  -8  -6  -8    5.19    0.54
  -8   6  -9    1.65    0.35
  -8  -6  -9    1.14    0.30
  -8   6 -10    4.77    0.55
  -8  -6 -10    5.15    0.56
  -8   6 -11    0.59    0.28
  -8  -6 -11    0.85    0.29
  -8   6 -12    7.21    0.71
  -8  -6 -12    5.57    0.63
  -8   6 -13    0.68    0.30
  -8  -6 -13    0.35    0.28
  -8   6 -14    0.59    0.33
  -8  -6 -14    0.33    0.30
  -8   6 -15    0.05    0.27
  -8  -6 -15    0.27    0.30
   8   7 -17    1.59    0.43
   8   7 -16    4.17    0.62
   8   7 -15    0.97    0.37
   8  -7 -15    0.92    0.36
  -8   7  14   -0.09    0.25
   8   7 -14    0.05    0.26
   8  -7 -14    0.13    0.32
   8   7 -13    0.21    0.25
  -8   7  13    0.15    0.25
   8   7 -13    0.37    0.28
   8  -7 -13    0.03    0.28
   8  -7 -13   -0.08    0.25
  -8   7  12    3.93    0.52
   8   7 -12    4.36    0.53
   8   7 -12    4.76    0.56
   8  -7 -12    3.95    0.50
   8  -7 -12    4.91    0.56
  -8   7  11    0.59    0.27
   8   7 -11    0.24    0.24
   8   7 -11    0.29    0.26
   8  -7 -11    0.12    0.25
   8  -7 -11    0.03    0.24
   8   7 -10    2.97    0.42
   8   7 -10    3.14    0.45
  -8   7  10    3.74    0.48
   8  -7 -10    2.55    0.42
   8  -7 -10    3.92    0.47
   8   7  -9   15.28    0.79
  -8   7   9   14.27    0.84
   8   7  -9   14.37    0.82
   8  -7  -9   13.65    0.78
   8  -7  -9   15.40    0.80
  -8   7   8   -0.27    0.18
   8   7  -8   -0.04    0.22
   8   7  -8    0.62    0.23
   8  -7  -8    0.00    0.23
   8  -7  -8    0.47    0.25
   8   7  -7    0.34    0.23
   8   7  -7    0.45    0.21
  -8   7   7    0.56    0.26
   8  -7  -7    0.38    0.26
   8   7  -6   16.14    0.85
   8   7  -6   17.05    0.75
  -8   7   6   15.18    0.84
   8  -7  -6   15.45    0.81
   8   7  -5   -0.04    0.16
  -8   7   5    0.30    0.21
   8   7  -5    0.00    0.19
  -8  -7   5    0.03    0.15
  -8   7   4    4.85    0.50
   8   7  -4    4.83    0.52
  -8  -7   4    5.78    0.39
  -8   7   3    2.28    0.36
   8   7  -3    1.01    0.28
  -8  -7   3    2.31    0.29
   8   7  -2    1.03    0.29
  -8   7   2    0.59    0.24
  -8   7   2    0.69    0.22
  -8  -7   2    0.90    0.22
   8   7  -1    3.97    0.46
  -8   7   1    3.94    0.42
  -8   7   1    4.24    0.46
  -8  -7   1    3.95    0.39
  -8   7   0    1.68    0.30
  -8   7   0    2.01    0.33
   8   7   0    1.94    0.36
  -8  -7   0    1.98    0.29
   8   7   1   -0.23    0.15
  -8   7  -1   -0.03    0.16
  -8   7  -1   -0.07    0.18
  -8  -7  -1   -0.01    0.17
  -8   7  -2    2.02    0.33
  -8   7  -2    2.75    0.37
   8   7   2    2.78    0.40
  -8  -7  -2    1.83    0.31
  -8   7  -3   13.72    0.73
  -8   7  -3   16.14    0.80
   8   7   3   14.86    0.81
  -8  -7  -3   15.67    0.75
  -8   7  -4   11.00    0.67
  -8   7  -4   10.26    0.61
   8   7   4    9.72    0.65
  -8  -7  -4    9.35    0.59
  -8   7  -5    0.77    0.26
  -8   7  -5    0.73    0.25
   8   7   5    0.96    0.28
  -8  -7  -5    1.11    0.28
   8   7   6    3.78    0.46
  -8   7  -6    3.63    0.46
  -8   7  -6    3.49    0.41
  -8  -7  -6    4.26    0.47
   8   7   7    0.96    0.29
  -8   7  -7    0.67    0.25
  -8   7  -7    0.47    0.25
  -8  -7  -7    0.91    0.28
  -8   7  -8    8.09    0.70
   8   7   8    7.70    0.63
  -8  -7  -8    8.38    0.62
  -8   7  -9    0.67    0.26
  -8  -7  -9    0.93    0.30
  -8   7 -10    0.11    0.23
  -8  -7 -10    0.53    0.28
  -8   7 -11    1.26    0.33
  -8  -7 -11    1.16    0.34
  -8   7 -12    0.24    0.27
  -8  -7 -12    0.10    0.24
  -8   7 -13    0.35    0.28
  -8  -7 -13   -0.06    0.25
  -8   7 -14    1.77    0.44
  -8  -7 -14    1.58    0.44
  -8  -7 -15   -0.11    0.26
   8   8 -16    0.56    0.34
   8   8 -15    0.88    0.35
  -8   8  14    1.91    0.43
   8   8 -14    1.91    0.43
   8   8 -13    0.19    0.26
  -8   8  13    0.03    0.30
   8  -8 -13    0.40    0.29
  -8   8  12    0.09    0.26
   8   8 -12    0.74    0.30
   8   8 -12    0.51    0.30
   8  -8 -12    0.53    0.32
   8   8 -11    4.12    0.53
   8   8 -11    3.03    0.45
  -8   8  11    3.47    0.50
   8  -8 -11    4.90    0.56
   8  -8 -11    3.26    0.48
   8   8 -10    0.36    0.21
   8   8 -10    0.83    0.29
  -8   8  10    0.52    0.28
   8  -8 -10    0.24    0.28
   8  -8 -10    0.10    0.24
   8   8  -9    7.44    0.56
   8   8  -9    7.57    0.69
  -8   8   9    8.77    0.76
   8  -8  -9    7.64    0.66
   8  -8  -9    6.87    0.65
  -8   8   8    0.59    0.27
   8   8  -8    0.53    0.27
   8   8  -8    0.40    0.23
   8  -8  -8    0.48    0.29
   8  -8  -8    0.32    0.25
   8   8  -7    4.01    0.49
  -8   8   7    3.72    0.49
   8  -8  -7    3.03    0.46
   8   8  -6    1.52    0.34
  -8   8   6    0.80    0.29
   8  -8  -6    1.84    0.38
  -8   8   5    5.77    0.59
   8   8  -5    4.62    0.52
  -8  -8   5    5.08    0.44
   8   8  -4    3.70    0.49
  -8   8   4    4.43    0.51
  -8  -8   4    4.76    0.43
  -8   8   3    0.33    0.22
   8   8  -3    0.35    0.25
  -8  -8   3    0.14    0.18
  -8   8   2   10.90    0.67
   8   8  -2    9.17    0.66
  -8  -8   2    9.31    0.55
  -8   8   1   -0.20    0.19
   8   8  -1   -0.07    0.21
  -8   8   1   -0.08    0.16
  -8  -8   1    0.23    0.19
   8   8   0    0.75    0.26
  -8   8   0    1.41    0.31
  -8   8   0    0.79    0.24
  -8  -8   0    1.16    0.26
  -8   8  -1    3.25    0.40
   8   8   1    2.89    0.43
  -8   8  -1    3.02    0.41
  -8  -8  -1    2.90    0.37
  -8   8  -2    9.27    0.61
   8   8   2    9.35    0.66
  -8   8  -2    9.58    0.62
  -8  -8  -2    8.79    0.57
  -8   8  -3    6.12    0.56
  -8   8  -3    5.23    0.52
   8   8   3    5.78    0.59
  -8  -8  -3    5.82    0.54
  -8   8  -4    5.21    0.51
   8   8   4    4.91    0.54
  -8   8  -4    6.13    0.56
  -8  -8  -4    4.80    0.50
  -8   8  -5    0.05    0.20
  -8   8  -5    0.04    0.18
   8   8   5    0.13    0.24
  -8  -8  -5    0.27    0.22
   8   8   6    0.19    0.23
  -8   8  -6   -0.06    0.20
  -8   8  -6    0.03    0.21
  -8  -8  -6    0.24    0.22
   8   8   7    0.08    0.23
  -8   8  -7    0.00    0.19
  -8   8  -7    0.28    0.24
  -8  -8  -7   -0.12    0.19
  -8   8  -8    0.22    0.24
   8   8   8    0.07    0.24
  -8  -8  -8   -0.09    0.20
  -8   8  -9    3.31    0.48
  -8  -8  -9    2.15    0.40
  -8   8 -10    0.67    0.29
  -8  -8 -10    0.68    0.32
  -8   8 -11    0.32    0.25
  -8  -8 -11    0.48    0.29
  -8   8 -12   -0.10    0.24
  -8  -8 -12    0.01    0.25
  -8   8 -13    1.65    0.41
  -8  -8 -13    1.01    0.40
  -8  -8 -14   -0.35    0.27
   8   9 -14    0.47    0.32
  -8   9  14   -0.18    0.28
  -8   9  13    0.04    0.31
   8  -9 -13   -0.11    0.27
  -8   9  12    0.32    0.32
   8   9 -12    0.38    0.31
   8  -9 -12    0.03    0.31
  -8   9  11    2.27    0.45
   8   9 -11    1.25    0.38
   8  -9 -11    1.00    0.37
   8   9 -10    0.77    0.34
  -8   9  10    0.39    0.30
   8  -9 -10    0.90    0.33
  -8   9   9   -0.38    0.21
   8   9  -9    0.01    0.26
   8  -9  -9    0.02    0.28
   8   9  -8   11.51    0.79
  -8   9   8   12.36    0.82
   8  -9  -8   12.06    0.74
   8  -9  -8   12.40    0.78
  -8   9   7    0.69    0.31
   8   9  -7    0.84    0.33
   8  -9  -7    1.24    0.36
   8   9  -6    4.57    0.56
  -8   9   6    2.83    0.47
   8  -9  -6    4.38    0.54
  -8   9   5   -0.04    0.19
   8   9  -5    0.20    0.25
   8   9  -4    5.42    0.61
  -8   9   4    4.80    0.55
  -8  -9   4    5.66    0.50
  -8   9   3    0.19    0.22
   8   9  -3    0.18    0.26
  -8  -9   3   -0.09    0.20
  -8   9   2   -0.10    0.20
   8   9  -2    0.20    0.23
  -8  -9   2    0.22    0.20
  -8   9   1    0.53    0.28
   8   9  -1    0.85    0.29
  -8   9   1    0.49    0.22
  -8  -9   1    1.06    0.27
  -8   9   0    0.17    0.21
  -8   9   0    0.44    0.26
   8   9   0    0.40    0.28
  -8  -9   0    0.37    0.23
  -8   9  -1    0.52    0.26
  -8   9  -1   -0.06    0.19
   8   9   1   -0.01    0.20
  -8  -9  -1   -0.07    0.19
   8   9   2    4.30    0.55
  -8   9  -2    5.01    0.53
  -8   9  -2    3.98    0.49
  -8  -9  -2    4.39    0.49
  -8   9  -3    0.28    0.24
   8   9   3    0.09    0.24
  -8   9  -3    0.19    0.21
  -8  -9  -3    0.90    0.28
  -8   9  -4    5.47    0.56
  -8   9  -4    4.79    0.53
   8   9   4    5.30    0.60
  -8  -9  -4    5.72    0.57
  -8   9  -5    3.03    0.43
  -8   9  -5    3.48    0.47
   8   9   5    3.26    0.49
  -8  -9  -5    2.87    0.42
  -8   9  -6    1.50    0.34
  -8   9  -6    1.33    0.35
   8   9   6    1.84    0.39
  -8  -9  -6    1.89    0.37
  -8   9  -7    0.79    0.29
  -8   9  -7    0.96    0.32
   8   9   7    0.72    0.31
  -8  -9  -7    0.55    0.28
  -8   9  -8    0.99    0.33
   8   9   8    0.99    0.35
  -8  -9  -8   -0.09    0.25
  -8   9  -9    0.39    0.29
  -8  -9  -9    0.31    0.27
  -8   9 -10    0.49    0.31
  -8  -9 -10    0.73    0.32
  -8   9 -11   -0.23    0.21
  -8  -9 -11    0.31    0.29
  -8   9 -12    2.37    0.47
  -8  -9 -12    3.08    0.53
  -8  10  13    0.16    0.33
   8 -10 -13    0.04    0.32
  -8  10  12    0.92    0.39
   8  10 -12    0.83    0.40
   8 -10 -12    1.30    0.40
  -8  10  11    0.57    0.36
   8  10 -11    0.57    0.39
   8 -10 -11   -0.27    0.29
   8  10 -10    0.32    0.32
  -8  10  10   -0.13    0.30
   8 -10 -10    0.07    0.32
   8  10  -9    0.57    0.32
  -8  10   9    0.32    0.30
   8 -10  -9    0.33    0.32
   8  10  -8    0.21    0.29
  -8  10   8    0.11    0.28
   8 -10  -8   -0.01    0.29
   8  10  -7    3.39    0.52
  -8  10   7    3.41    0.52
   8 -10  -7    2.68    0.48
  -8  10   6    0.27    0.25
   8  10  -6    0.21    0.27
   8 -10  -6    0.44    0.30
  -8  10   5   -0.18    0.23
   8  10  -5   -0.03    0.23
   8 -10  -5    0.03    0.29
  -8  10   4    0.79    0.32
   8  10  -4    1.00    0.34
  -8 -10   4    1.74    0.34
   8  10  -3    0.19    0.26
  -8  10   3   -0.27    0.21
  -8 -10   3   -0.05    0.20
   8  10  -2   -0.01    0.21
  -8  10   2   -0.15    0.21
  -8 -10   2    0.07    0.22
   8  10  -1    0.34    0.28
  -8  10   1    1.07    0.33
  -8 -10   1    1.16    0.30
  -8  10   0    7.52    0.70
  -8  10   0    7.43    0.64
   8  10   0    6.25    0.68
  -8 -10   0    8.25    0.68
  -8  10  -1    5.82    0.57
  -8  10  -1    4.40    0.55
   8  10   1    5.09    0.61
  -8 -10  -1    4.84    0.53
  -8  10  -2    0.30    0.24
   8  10   2    0.48    0.31
  -8  10  -2    0.50    0.28
  -8 -10  -2    0.26    0.23
  -8  10  -3    5.26    0.58
  -8  10  -3    5.51    0.60
   8  10   3    6.44    0.68
  -8 -10  -3    5.31    0.56
  -8  10  -4    0.62    0.28
  -8  10  -4    0.53    0.29
   8  10   4    0.82    0.34
  -8 -10  -4    1.54    0.35
  -8  10  -5   -0.20    0.22
   8  10   5   -0.23    0.24
  -8  10  -5   -0.08    0.24
  -8 -10  -5   -0.17    0.22
  -8  10  -6    0.05    0.24
   8  10   6   -0.27    0.24
  -8  10  -6   -0.10    0.21
  -8 -10  -6    0.23    0.25
   8  10   7    0.10    0.27
  -8  10  -7    0.17    0.27
  -8  10  -7   -0.07    0.26
  -8 -10  -7   -0.18    0.23
  -8  10  -8    0.85    0.34
   8  10   8    0.84    0.35
  -8 -10  -8    0.41    0.29
  -8  10  -9    0.17    0.28
  -8 -10  -9    0.70    0.34
  -8  10 -10    0.43    0.33
  -8 -10 -10    0.46    0.32
  -8  10 -11    2.46    0.52
  -8 -10 -11    2.71    0.51
  -8  11  11    0.68    0.40
   8  11 -11    0.66    0.40
   8 -11 -11    0.24    0.35
   8  11 -10    0.05    0.32
  -8  11  10    0.02    0.32
   8 -11 -10   -0.40    0.29
  -8  11   9    5.36    0.70
   8  11  -9    5.00    0.66
   8 -11  -9    3.96    0.59
  -8  11   8    0.09    0.28
   8  11  -8   -0.23    0.26
   8 -11  -8    0.10    0.32
  -8  11   7    0.74    0.35
   8  11  -7    0.03    0.30
   8 -11  -7    0.10    0.33
  -8  11   6    0.75    0.37
   8  11  -6    1.35    0.42
   8 -11  -6    1.43    0.41
  -8  11   5   -0.22    0.21
   8  11  -5    0.24    0.31
   8 -11  -5   -0.29    0.30
   8  11  -4   -0.11    0.28
  -8  11   4   -0.40    0.21
   8  11  -3    2.91    0.49
  -8  11   3    3.28    0.51
  -8 -11   3    2.91    0.45
  -8  11   2    0.13    0.27
   8  11  -2    0.18    0.28
  -8 -11   2    0.08    0.25
   8  11  -1    0.86    0.34
  -8  11   1    0.36    0.29
  -8 -11   1   -0.05    0.24
   8  11   0    0.44    0.31
  -8  11   0    0.80    0.34
  -8 -11   0    0.49    0.31
  -8  11  -1    5.91    0.67
   8  11   1    6.61    0.73
  -8  11  -1    6.94    0.65
  -8 -11  -1    7.53    0.69
  -8  11  -2    4.08    0.52
   8  11   2    2.91    0.51
  -8  11  -2    3.41    0.52
  -8 -11  -2    3.96    0.51
   8  11   3    0.74    0.37
  -8  11  -3    0.43    0.27
  -8  11  -3    0.76    0.34
  -8 -11  -3    0.91    0.33
  -8  11  -4    2.77    0.47
  -8  11  -4    2.34    0.44
   8  11   4    2.10    0.47
  -8 -11  -4    1.33    0.37
   8  11   5    1.06    0.40
  -8  11  -5    0.89    0.35
  -8  11  -5    1.03    0.33
  -8 -11  -5    0.63    0.33
  -8  11  -6   -0.24    0.28
  -8  11  -6   -0.27    0.25
   8  11   6    0.09    0.30
  -8 -11  -6   -0.08    0.24
   8  11   7   -0.36    0.29
  -8  11  -7    0.21    0.30
  -8 -11  -7   -0.23    0.27
  -8  11  -8    3.23    0.53
   8  11   8    3.26    0.56
  -8 -11  -8    2.22    0.46
  -8  11  -9    0.69    0.38
  -8 -11  -9    0.56    0.36
   8  12  -9    0.92    0.40
  -8  12   9    0.70    0.41
   8  12  -8   -0.15    0.32
  -8  12   8    0.04    0.31
   8 -12  -8    0.45    0.36
   8  12  -7    0.22    0.31
  -8  12   7   -0.04    0.30
   8 -12  -7   -0.47    0.28
   8  12  -6    0.02    0.32
  -8  12   6   -0.09    0.30
   8 -12  -6    0.09    0.30
   8  12  -5    0.14    0.33
  -8  12   5    0.09    0.29
   8 -12  -5    0.21    0.36
   8  12  -4    2.55    0.52
  -8  12   4    2.41    0.48
   8 -12  -4    1.30    0.44
  -8  12   3   -0.05    0.27
   8  12  -3    0.21    0.28
  -8  12   2    0.22    0.31
   8  12  -2   -0.08    0.29
  -8 -12   2    0.16    0.31
  -8  12   1    0.20    0.30
   8  12  -1    0.05    0.31
  -8 -12   1    0.21    0.28
  -8  12   0    1.32    0.40
   8  12   0    1.01    0.40
  -8 -12   0    1.84    0.41
  -8  12  -1   -0.12    0.26
   8  12   1    0.27    0.33
  -8 -12  -1    0.13    0.28
  -8  12  -2    0.79    0.39
   8  12   2    1.42    0.43
  -8 -12  -2    0.58    0.33
  -8  12  -3   -0.14    0.28
   8  12   3   -0.47    0.27
  -8 -12  -3   -0.06    0.28
  -8  12  -4    1.70    0.43
   8  12   4    2.84    0.55
  -8 -12  -4    1.53    0.41
   8  12   5   -0.28    0.32
  -8  12  -5    0.24    0.31
  -8 -12  -5   -0.07    0.26
  -8  12  -6    0.62    0.34
   8  12   6    0.44    0.36
  -8  12  -6    0.88    0.38
  -8 -12  -6    0.82    0.36
   8  13  -4   -0.22    0.32
  -8  13   4    0.12    0.32
   8 -13  -4   -0.02    0.32
  -8  13   3    0.59    0.35
   8  13  -3    0.73    0.39
   8 -13  -3    1.13    0.43
   8  13  -2    0.20    0.33
  -8  13   2    0.06    0.31
   8  13  -1   -0.03    0.33
  -8  13   1   -0.37    0.27
  -8 -13   1    0.15    0.32
   8  13   0    0.20    0.33
  -8  13   0   -0.36    0.29
  -8 -13   0    0.09    0.30
  -8  13  -1    2.79    0.54
   8  13   1    2.51    0.55
  -8 -13  -1    3.02    0.52
  -8  13  -2    0.38    0.36
   8  13   2    0.59    0.37
  -8 -13  -2    0.12    0.31
   9   0 -19   -0.09    0.32
   9   0 -18    0.25    0.31
   9   0 -17    0.12    0.31
   9   0 -16   -0.01    0.26
   9   0 -15   -0.19    0.21
  -9   0  14    2.14    0.32
   9   0 -14    1.03    0.33
  -9   0  13    0.15    0.17
   9   0 -13   -0.06    0.24
  -9   0  12    0.05    0.16
   9   0 -12    0.16    0.21
   9   0 -11    0.12    0.21
  -9   0  11    0.11    0.15
  -9   0  10    4.31    0.41
   9   0 -10    4.74    0.51
   9   0  -9   -0.34    0.15
  -9   0   9   -0.03    0.12
   9   0  -8    1.94    0.32
  -9   0   8    2.36    0.31
   9   0  -7    0.01    0.15
  -9   0   7    0.04    0.12
   9   0  -6    3.42    0.37
  -9   0   6    3.27    0.34
  -9   0   5   -0.07    0.11
  -9   0   4   24.96    0.93
  -9   0   3   -0.05    0.10
  -9   0   2    8.12    0.44
  -9   0   1    0.02    0.10
  -9   0   0   20.14    0.77
  -9   0   0   19.27    0.75
  -9   0  -1    0.13    0.10
  -9   0  -1    0.12    0.11
  -9   0  -1    0.15    0.11
  -9   0  -2    3.26    0.31
  -9   0  -2    3.03    0.28
  -9   0  -2    2.94    0.29
  -9   0  -3   -0.13    0.09
  -9   0  -3   -0.08    0.11
  -9   0  -3    0.06    0.10
  -9   0  -4   14.62    0.59
  -9   0  -4   14.85    0.66
  -9   0  -4   15.08    0.67
  -9   0  -5   -0.03    0.10
  -9   0  -5   -0.01    0.13
  -9   0  -5    0.10    0.15
  -9   0  -6    6.56    0.45
  -9   0  -6    6.20    0.45
  -9   0  -6    7.18    0.36
  -9   0  -7    0.02    0.17
  -9   0  -7   -0.02    0.15
  -9   0  -7   -0.09    0.10
  -9   0  -8   23.37    1.01
  -9   0  -8   24.23    1.00
  -9   0  -9    0.10    0.18
  -9   0  -9   -0.03    0.17
  -9   0 -10   -0.20    0.16
  -9   0 -10    0.31    0.19
  -9   0 -11   -0.03    0.18
  -9   0 -11   -0.14    0.18
  -9   0 -12    8.12    0.71
  -9   0 -12    8.18    0.69
  -9   0 -13    0.12    0.22
  -9   0 -13   -0.46    0.19
  -9   0 -14    8.64    0.77
  -9   0 -14    9.22    0.81
  -9   0 -15   -0.25    0.24
  -9   0 -15    0.37    0.29
  -9   0 -16    5.62    0.69
  -9   0 -16    5.49    0.67
  -9   0 -17   -0.19    0.29
  -9   0 -17   -0.38    0.27
   9   1 -19    1.13    0.42
   9  -1 -19    0.92    0.41
   9   1 -18    0.05    0.30
   9  -1 -18    0.32    0.37
   9   1 -17    2.44    0.50
   9  -1 -17    2.17    0.51
   9   1 -16    0.11    0.30
   9  -1 -16    0.31    0.32
   9   1 -15    1.76    0.41
   9  -1 -15    1.03    0.36
   9   1 -14    0.39    0.28
  -9   1  14    0.63    0.21
  -9  -1  14    0.60    0.21
   9  -1 -14    0.39    0.28
   9   1 -13    4.77    0.57
  -9   1  13    4.85    0.45
   9  -1 -13    3.74    0.53
  -9  -1  13    3.85    0.40
  -9   1  12    2.65    0.34
   9   1 -12    2.91    0.44
   9  -1 -12    3.05    0.45
  -9  -1  12    2.16    0.31
   9   1 -11    1.47    0.33
  -9   1  11    0.70    0.20
  -9  -1  11    0.33    0.18
   9  -1 -11    0.69    0.27
  -9   1  10    0.69    0.21
   9   1 -10    0.63    0.27
  -9  -1  10    0.83    0.21
   9  -1 -10    0.42    0.24
   9   1  -9    3.77    0.45
  -9   1   9    4.51    0.42
  -9  -1   9    5.25    0.44
   9  -1  -9    4.29    0.47
   9   1  -8    2.60    0.35
  -9   1   8    1.85    0.28
   9  -1  -8    2.98    0.38
  -9  -1   8    2.57    0.32
   9   1  -7    7.41    0.49
  -9   1   7    7.87    0.47
   9  -1  -7    7.19    0.28
   9  -1  -7    7.10    0.51
  -9  -1   7    6.52    0.43
  -9   1   6    0.03    0.13
   9   1  -6    0.09    0.17
   9  -1  -6    0.18    0.09
  -9  -1   6    0.17    0.13
  -9   1   5   36.97    1.26
   9   1  -5   37.15    1.29
  -9  -1   5   35.80    1.25
  -9   1   4    2.68    0.30
  -9  -1   4    3.04    0.31
  -9   1   3   19.60    0.79
  -9  -1   3   19.98    0.79
  -9   1   2    4.03    0.36
  -9  -1   2    5.42    0.35
  -9  -1   2    4.88    0.24
  -9   1   1    0.54    0.15
  -9   1   1    0.66    0.16
  -9  -1   1    0.37    0.10
  -9  -1   1    0.58    0.15
  -9   1   0    9.40    0.46
  -9   1   0    8.65    0.47
  -9  -1   0    9.24    0.47
  -9  -1   0    8.73    0.40
  -9   1  -1    0.13    0.13
  -9   1  -1    0.04    0.10
  -9  -1  -1    0.02    0.09
  -9  -1  -1    0.07    0.11
  -9  -1  -1    0.02    0.09
  -9   1  -2    2.18    0.24
  -9   1  -2    2.10    0.27
  -9  -1  -2    2.06    0.24
  -9  -1  -2    2.29    0.25
  -9  -1  -2    2.35    0.25
  -9   1  -3    7.90    0.45
  -9   1  -3    8.06    0.42
  -9  -1  -3    7.90    0.43
  -9  -1  -3    7.45    0.40
  -9  -1  -3    7.40    0.42
  -9   1  -4    0.94    0.20
  -9   1  -4    0.53    0.14
  -9   1  -4    0.90    0.21
  -9  -1  -4    0.62    0.17
  -9  -1  -4    0.79    0.16
  -9  -1  -4    0.45    0.17
   9   1   5    7.41    0.41
  -9   1  -5    8.26    0.50
  -9   1  -5    7.89    0.40
  -9   1  -5    8.51    0.50
  -9  -1  -5    7.85    0.48
  -9  -1  -5    8.12    0.46
  -9  -1  -5    8.12    0.41
  -9   1  -6    0.47    0.19
   9   1   6    0.42    0.14
  -9   1  -6    0.42    0.13
  -9   1  -6    0.16    0.17
  -9  -1  -6    0.35    0.16
  -9  -1  -6    0.27    0.18
   9   1   7    9.52    0.45
  -9   1  -7    8.15    0.54
  -9   1  -7    9.27    0.43
  -9   1  -7    9.79    0.59
  -9  -1  -7   11.20    0.57
  -9  -1  -7    8.61    0.55
  -9   1  -8   12.64    0.70
  -9   1  -8   11.50    0.69
  -9  -1  -8   13.59    0.68
  -9  -1  -8   12.45    0.69
  -9   1  -9   -0.09    0.19
  -9   1  -9   -0.13    0.17
  -9  -1  -9   -0.10    0.16
  -9  -1  -9    0.24    0.19
  -9   1 -10    2.86    0.42
  -9   1 -10    2.76    0.40
  -9  -1 -10    2.85    0.41
  -9  -1 -10    2.55    0.37
  -9   1 -11    1.24    0.31
  -9   1 -11    1.17    0.31
  -9  -1 -11    0.84    0.28
  -9  -1 -11    0.40    0.23
  -9   1 -12    1.67    0.37
  -9  -1 -12    1.84    0.37
  -9  -1 -12    2.50    0.40
  -9   1 -13    6.28    0.64
  -9   1 -13    5.09    0.58
  -9  -1 -13    6.46    0.61
  -9  -1 -13    5.47    0.61
  -9   1 -14    0.25    0.28
  -9   1 -14    0.41    0.28
  -9  -1 -14    0.07    0.24
  -9  -1 -14    0.21    0.25
  -9   1 -15    3.47    0.52
  -9  -1 -15    3.85    0.56
  -9  -1 -15    4.77    0.57
  -9   1 -16   -0.12    0.28
  -9  -1 -16   -0.41    0.27
  -9  -1 -16   -0.29    0.26
  -9   1 -17    3.01    0.54
  -9  -1 -17    3.18    0.53
  -9  -1 -17    2.90    0.54
   9   2 -19    0.26    0.36
   9  -2 -19    0.43    0.37
   9   2 -18    0.53    0.37
   9  -2 -18    0.41    0.38
   9   2 -17    0.15    0.30
   9  -2 -17    0.07    0.34
   9   2 -16    0.18    0.27
   9  -2 -16   -0.08    0.26
   9   2 -15   -0.22    0.24
   9  -2 -15   -0.24    0.22
   9   2 -14    4.05    0.57
   9   2 -14    5.04    0.49
  -9   2  14    4.19    0.44
   9  -2 -14    3.82    0.54
   9   2 -13    0.00    0.22
   9   2 -13   -0.14    0.17
  -9   2  13   -0.19    0.16
  -9  -2  13   -0.02    0.16
   9  -2 -13   -0.01    0.25
   9   2 -12    0.79    0.29
  -9   2  12    1.39    0.27
   9  -2 -12    1.45    0.35
  -9  -2  12    1.14    0.25
  -9   2  11    6.72    0.49
   9   2 -11    8.69    0.63
   9  -2 -11    7.92    0.60
  -9  -2  11    7.66    0.49
   9   2 -10    0.50    0.25
  -9   2  10    0.58    0.20
  -9  -2  10    0.77    0.21
   9  -2 -10    0.69    0.27
  -9   2   9    0.62    0.20
   9   2  -9    1.33    0.29
   9  -2  -9    1.02    0.29
  -9  -2   9    0.90    0.22
   9   2  -8    1.26    0.30
  -9   2   8    1.30    0.25
   9  -2  -8    1.80    0.19
  -9  -2   8    1.56    0.26
   9  -2  -8    1.34    0.29
   9   2  -7    4.40    0.44
  -9   2   7    3.73    0.38
  -9  -2   7    4.08    0.39
   9  -2  -7    4.25    0.26
   9  -2  -7    3.93    0.41
  -9   2   6    0.22    0.14
   9   2  -6    0.17    0.18
   9  -2  -6    0.24    0.12
  -9  -2   6    0.06    0.13
   9   2  -5    5.92    0.42
  -9   2   5    6.34    0.42
  -9  -2   5    5.96    0.39
   9   2  -4    2.74    0.31
  -9   2   4    3.36    0.35
  -9  -2   4    3.00    0.31
  -9   2   3    1.80    0.25
  -9  -2   3    1.50    0.23
  -9  -2   3    1.68    0.14
  -9   2   2    0.02    0.10
  -9  -2   2    0.11    0.12
  -9  -2   2    0.16    0.08
  -9   2   1    1.44    0.23
  -9   2   1    1.46    0.22
  -9  -2   1    1.75    0.18
  -9  -2   1    1.34    0.22
  -9   2   0    1.09    0.20
  -9   2   0    1.59    0.24
  -9  -2   0    1.47    0.22
  -9  -2   0    1.50    0.18
  -9   2  -1    0.13    0.12
  -9   2  -1    0.28    0.14
  -9  -2  -1    0.08    0.10
  -9  -2  -1    0.26    0.12
  -9  -2  -1    0.09    0.12
  -9   2  -2    0.16    0.12
   9   2   2   -0.04    0.11
  -9   2  -2   -0.13    0.10
  -9  -2  -2   -0.13    0.09
  -9  -2  -2   -0.01    0.10
  -9  -2  -2   -0.04    0.09
  -9   2  -3    1.36    0.20
   9   2   3    1.04    0.20
  -9   2  -3    1.22    0.22
  -9  -2  -3    1.29    0.20
  -9  -2  -3    1.22    0.21
   9   2   4    7.43    0.43
  -9   2  -4    7.83    0.41
  -9   2  -4    7.82    0.49
  -9  -2  -4    6.41    0.42
  -9  -2  -4    8.20    0.42
  -9   2  -5    4.20    0.30
  -9   2  -5    4.57    0.42
   9   2   5    4.53    0.34
  -9  -2  -5    4.18    0.36
  -9  -2  -5    4.17    0.39
  -9   2  -6    0.35    0.14
   9   2   6    0.45    0.16
  -9   2  -6    0.58    0.21
  -9  -2  -6    0.73    0.21
  -9  -2  -6    0.10    0.15
   9   2   7   15.18    0.63
  -9   2  -7   15.30    0.60
  -9   2  -7   15.17    0.78
  -9  -2  -7   15.83    0.76
  -9  -2  -7   16.22    0.71
  -9   2  -8    5.44    0.52
  -9  -2  -8    5.62    0.53
  -9  -2  -8    5.32    0.41
  -9   2  -9    0.44    0.23
  -9  -2  -9    0.32    0.22
  -9  -2  -9    0.66    0.21
  -9   2 -10    1.20    0.31
  -9  -2 -10    1.34    0.31
  -9  -2 -10    1.04    0.25
  -9   2 -11    0.98    0.30
  -9  -2 -11    1.30    0.29
  -9  -2 -11    1.21    0.31
  -9   2 -12    0.54    0.27
  -9  -2 -12    0.62    0.25
  -9  -2 -12    0.43    0.26
  -9   2 -13    0.94    0.32
  -9  -2 -13    0.38    0.26
  -9  -2 -13    1.01    0.30
  -9   2 -14    0.35    0.26
  -9  -2 -14    0.15    0.23
  -9  -2 -14    0.02    0.24
  -9   2 -15    0.46    0.31
  -9  -2 -15    0.50    0.30
  -9   2 -16   -0.18    0.26
  -9  -2 -16   -0.46    0.24
  -9   2 -17    0.23    0.33
  -9  -2 -17   -0.15    0.30
   9   3 -19    0.56    0.39
   9  -3 -19    0.53    0.40
   9   3 -18   -0.17    0.30
   9  -3 -18    0.09    0.37
   9   3 -17    0.39    0.34
   9  -3 -17   -0.11    0.28
   9   3 -16    1.93    0.45
   9  -3 -16    1.35    0.41
   9   3 -15    0.24    0.26
   9  -3 -15   -0.01    0.24
  -9   3  14    1.46    0.30
   9   3 -14    1.39    0.38
   9  -3 -14    1.38    0.37
   9   3 -13   -0.07    0.22
   9   3 -13   -0.01    0.19
  -9   3  13    0.10    0.17
   9  -3 -13   -0.29    0.22
   9   3 -12    3.82    0.44
  -9   3  12    3.66    0.41
   9   3 -12    4.48    0.52
   9  -3 -12    4.41    0.53
   9   3 -11    0.47    0.26
   9   3 -11    0.65    0.25
  -9   3  11    0.74    0.23
   9  -3 -11    0.10    0.25
   9   3 -10    6.24    0.58
  -9   3  10    6.97    0.50
   9   3 -10    6.33    0.54
   9  -3 -10    7.82    0.58
   9   3  -9    4.10    0.44
  -9   3   9    4.75    0.46
   9   3  -9    5.22    0.51
  -9  -3   9    4.66    0.43
   9  -3  -9    3.72    0.45
   9  -3  -9    4.23    0.31
  -9   3   8    1.40    0.26
   9   3  -8    1.43    0.29
   9   3  -8    1.37    0.27
   9  -3  -8    1.92    0.33
  -9  -3   8    1.05    0.23
   9  -3  -8    1.23    0.21
   9   3  -7    0.24    0.17
   9   3  -7    0.02    0.17
  -9   3   7   -0.01    0.14
  -9  -3   7   -0.05    0.13
   9  -3  -7    0.25    0.14
  -9   3   6    0.05    0.15
   9   3  -6   -0.02    0.14
   9   3  -6   -0.02    0.16
  -9  -3   6   -0.08    0.12
   9   3  -5    0.56    0.20
  -9   3   5    0.16    0.14
   9   3  -5    0.15    0.17
  -9  -3   5    0.59    0.18
  -9   3   4    0.14    0.13
   9   3  -4    0.36    0.16
   9   3  -4    0.11    0.15
  -9  -3   4    0.26    0.15
  -9  -3   4    0.23    0.08
   9   3  -3   15.44    0.73
   9   3  -3   18.84    0.72
  -9   3   3   18.29    0.77
  -9  -3   3   17.19    0.57
  -9  -3   3   16.57    0.73
  -9   3   2   40.25    1.33
   9   3  -2   38.32    1.34
  -9  -3   2   37.70    1.15
  -9  -3   2   38.43    1.32
  -9   3   1    6.56    0.43
  -9   3   1    7.00    0.46
   9   3  -1    6.78    0.44
  -9  -3   1    7.14    0.35
  -9   3   0    8.41    0.47
  -9   3   0    9.35    0.53
   9   3   0    9.51    0.51
  -9  -3   0    8.81    0.42
  -9   3  -1   36.38    1.26
   9   3   1   37.19    1.28
  -9   3  -1   36.89    1.32
  -9  -3  -1   39.06    1.21
  -9   3  -2    2.86    0.31
  -9   3  -2    3.91    0.38
   9   3   2    3.99    0.37
  -9  -3  -2    3.83    0.34
   9   3   3   15.31    0.69
  -9   3  -3   15.61    0.75
  -9   3  -3   15.58    0.67
  -9  -3  -3   17.29    0.70
  -9  -3  -3   16.15    0.62
   9   3   4    1.36    0.23
  -9   3  -4    0.83    0.22
  -9   3  -4    1.23    0.21
  -9  -3  -4    1.03    0.18
  -9  -3  -4    1.18    0.23
   9   3   5    0.33    0.17
  -9   3  -5    0.33    0.19
  -9   3  -5    0.74    0.17
  -9  -3  -5    0.47    0.14
  -9  -3  -5    0.26    0.17
   9   3   6   19.12    0.76
  -9   3  -6   18.65    0.72
  -9   3  -6   18.55    0.88
  -9  -3  -6   17.94    0.74
  -9  -3  -6   20.50    0.86
  -9   3  -7    1.28    0.20
  -9   3  -7    1.58    0.31
   9   3   7    1.46    0.24
  -9  -3  -7    1.34    0.23
  -9  -3  -7    1.24    0.29
  -9   3  -8    1.43    0.30
  -9  -3  -8    1.12    0.28
  -9  -3  -8    0.82    0.21
  -9   3  -9    3.32    0.43
  -9  -3  -9    3.00    0.41
  -9  -3  -9    2.90    0.34
  -9   3 -10    3.26    0.44
  -9  -3 -10    4.72    0.43
  -9  -3 -10    3.24    0.44
  -9   3 -11    0.18    0.21
  -9  -3 -11    0.35    0.24
  -9  -3 -11   -0.01    0.17
  -9   3 -12    7.07    0.68
  -9  -3 -12    5.31    0.60
  -9   3 -13    1.24    0.36
  -9  -3 -13    1.29    0.35
  -9   3 -14    1.45    0.39
  -9  -3 -14    1.75    0.40
  -9   3 -15    0.35    0.30
  -9  -3 -15    0.50    0.31
  -9   3 -16    0.41    0.34
  -9  -3 -16   -0.24    0.24
   9   4 -18    0.03    0.31
   9  -4 -18   -0.35    0.32
   9   4 -17    0.91    0.39
   9  -4 -17    1.36    0.43
   9   4 -16    0.65    0.34
   9  -4 -16    0.83    0.37
   9   4 -15    0.38    0.27
   9  -4 -15    1.14    0.37
   9   4 -14    2.56    0.46
  -9   4  14    2.65    0.38
   9  -4 -14    2.55    0.47
   9   4 -13    0.83    0.28
  -9   4  13    0.40    0.23
   9   4 -13    0.99    0.33
   9  -4 -13    1.00    0.32
   9   4 -12   -0.06    0.20
  -9   4  12    0.23    0.22
   9   4 -12    0.42    0.23
   9  -4 -12    0.53    0.28
  -9   4  11   16.22    0.80
   9   4 -11   14.08    0.83
   9   4 -11   14.30    0.76
   9  -4 -11   14.58    0.84
   9   4 -10    0.14    0.21
  -9   4  10    0.51    0.22
   9   4 -10    0.79    0.25
   9  -4 -10    0.42    0.25
   9  -4 -10    0.24    0.18
   9   4  -9    0.15    0.21
   9   4  -9    0.04    0.17
  -9   4   9   -0.03    0.16
   9  -4  -9    0.05    0.20
   9  -4  -9   -0.21    0.16
   9   4  -8    0.18    0.19
  -9   4   8   -0.02    0.18
   9   4  -8   -0.09    0.17
   9  -4  -8   -0.01    0.19
   9  -4  -8    0.14    0.18
   9   4  -7    7.17    0.51
   9   4  -7    7.34    0.51
  -9   4   7    7.47    0.51
   9  -4  -7    6.28    0.40
   9   4  -6    5.16    0.46
   9   4  -6    6.30    0.52
  -9   4   6    5.89    0.50
   9   4  -5    0.58    0.22
  -9   4   5    0.88    0.23
   9   4  -5    1.24    0.23
  -9  -4   5    0.77    0.11
   9   4  -4    4.70    0.44
   9   4  -4    3.88    0.36
  -9   4   4    4.40    0.41
  -9  -4   4    4.08    0.23
   9   4  -3   10.20    0.51
  -9   4   3   10.93    0.59
   9   4  -3   10.79    0.60
  -9  -4   3   10.23    0.42
  -9   4   2   14.39    0.68
   9   4  -2   12.81    0.57
   9   4  -2   11.97    0.65
  -9   4   2   13.52    0.66
  -9  -4   2   14.04    0.53
  -9   4   1    0.61    0.20
   9   4  -1    0.81    0.17
  -9   4   1    0.99    0.23
   9   4  -1    0.79    0.21
  -9  -4   1    0.95    0.16
   9   4   0    6.65    0.45
  -9   4   0    6.04    0.42
  -9   4   0    5.52    0.47
  -9  -4   0    6.41    0.36
  -9   4  -1    7.57    0.47
  -9   4  -1    8.76    0.53
   9   4   1    8.09    0.50
  -9  -4  -1    7.81    0.43
  -9   4  -2    0.53    0.19
   9   4   2    0.60    0.20
  -9   4  -2    0.58    0.19
  -9  -4  -2    0.94    0.20
  -9   4  -3    1.41    0.27
  -9   4  -3    0.71    0.20
   9   4   3    1.13    0.23
  -9  -4  -3    1.01    0.22
  -9   4  -4    0.15    0.15
   9   4   4    0.10    0.15
  -9   4  -4   -0.16    0.12
  -9  -4  -4    0.07    0.11
  -9  -4  -4    0.06    0.16
  -9   4  -5    0.39    0.20
  -9   4  -5    0.12    0.15
   9   4   5    0.48    0.20
  -9  -4  -5    0.86    0.16
  -9  -4  -5    0.29    0.19
   9   4   6   24.33    0.96
  -9   4  -6   26.42    0.94
  -9   4  -6   25.03    1.08
  -9  -4  -6   24.10    1.02
  -9  -4  -6   25.09    0.88
   9   4   7    0.38    0.20
  -9   4  -7    0.25    0.14
  -9   4  -7    0.46    0.23
  -9  -4  -7    1.11    0.26
  -9   4  -8    7.31    0.64
   9   4   8    7.17    0.47
  -9  -4  -8    7.53    0.55
  -9   4  -9    5.51    0.55
  -9  -4  -9    4.46    0.50
  -9   4 -10    0.39    0.24
  -9  -4 -10    0.10    0.20
  -9   4 -11    0.43    0.26
  -9  -4 -11    0.74    0.29
  -9   4 -12    0.59    0.28
  -9  -4 -12    0.44    0.26
  -9   4 -13    1.06    0.36
  -9  -4 -13    0.77    0.31
  -9   4 -14    0.00    0.24
  -9  -4 -14    0.14    0.26
  -9   4 -15    0.07    0.29
  -9  -4 -15    0.18    0.29
  -9   4 -16    0.76    0.37
  -9  -4 -16    1.10    0.39
   9   5 -18    0.66    0.40
   9  -5 -18    0.08    0.36
   9   5 -17    3.70    0.58
   9  -5 -17    4.53    0.65
   9   5 -16    0.30    0.31
   9  -5 -16    0.26    0.32
   9   5 -15    1.21    0.37
   9  -5 -15    0.83    0.37
   9   5 -14    0.20    0.27
  -9   5  14    0.14    0.24
   9  -5 -14    0.41    0.30
   9   5 -13    1.24    0.34
   9   5 -13    1.02    0.30
  -9   5  13    1.13    0.29
   9  -5 -13    0.35    0.29
   9   5 -12    4.69    0.55
  -9   5  12    5.05    0.53
   9   5 -12    4.80    0.51
   9  -5 -12    4.41    0.55
   9   5 -11    0.45    0.26
   9   5 -11    0.41    0.26
  -9   5  11    0.51    0.24
   9  -5 -11    0.92    0.31
   9  -5 -11    0.55    0.23
   9   5 -10    0.02    0.22
  -9   5  10    0.72    0.25
   9   5 -10    0.71    0.25
   9  -5 -10    0.83    0.24
   9  -5 -10    0.28    0.25
  -9   5   9   14.72    0.79
   9   5  -9   14.76    0.79
   9   5  -9   14.76    0.78
   9  -5  -9   15.25    0.82
   9  -5  -9   15.17    0.71
  -9   5   8    0.68    0.24
   9   5  -8    0.81    0.25
   9   5  -8    0.92    0.28
   9  -5  -8    0.93    0.25
   9  -5  -8    0.38    0.23
   9   5  -7    1.54    0.28
   9   5  -7    1.72    0.33
  -9   5   7    1.67    0.32
   9  -5  -7    1.18    0.27
  -9   5   6    0.53    0.22
   9   5  -6    0.99    0.27
   9   5  -6   -0.09    0.17
  -9   5   5   29.71    1.16
   9   5  -5   28.80    1.06
   9   5  -5   28.94    1.16
  -9  -5   5   27.64    0.90
  -9   5   4    6.98    0.51
   9   5  -4    7.67    0.46
   9   5  -4    6.89    0.52
  -9  -5   4    8.26    0.38
   9   5  -3   12.93    0.70
  -9   5   3   13.75    0.70
   9   5  -3   13.56    0.58
  -9  -5   3   11.77    0.51
   9   5  -2   -0.01    0.12
   9   5  -2    0.04    0.17
  -9   5   2    0.10    0.17
  -9   5   2    0.14    0.17
  -9  -5   2    0.09    0.12
   9   5  -1    0.48    0.15
  -9   5   1    0.64    0.21
   9   5  -1    0.59    0.23
  -9   5   1    0.54    0.21
  -9  -5   1    0.53    0.15
   9   5   0    0.60    0.14
  -9   5   0    0.35    0.17
  -9   5   0    0.42    0.20
   9   5   0    0.24    0.20
  -9  -5   0    0.38    0.16
  -9   5  -1    0.46    0.19
  -9   5  -1    0.21    0.17
   9   5   1    0.36    0.12
   9   5   1    0.31    0.20
  -9  -5  -1    0.29    0.16
  -9   5  -2    8.86    0.53
  -9   5  -2    8.37    0.55
   9   5   2    8.64    0.54
  -9  -5  -2    7.72    0.47
  -9   5  -3    1.98    0.30
   9   5   3    1.94    0.32
  -9   5  -3    2.62    0.35
  -9  -5  -3    1.99    0.29
  -9   5  -4    0.49    0.21
  -9   5  -4    0.68    0.21
   9   5   4    0.60    0.22
  -9  -5  -4    0.43    0.19
  -9   5  -5   19.23    0.82
  -9   5  -5   20.79    0.95
   9   5   5   18.84    0.84
  -9  -5  -5   19.72    0.87
  -9   5  -6    2.28    0.29
   9   5   6    2.28    0.33
  -9   5  -6    1.98    0.33
  -9  -5  -6    2.06    0.34
   9   5   7   -0.18    0.17
  -9   5  -7   -0.16    0.13
  -9   5  -7   -0.06    0.16
  -9  -5  -7    0.06    0.18
  -9   5  -8    0.25    0.22
   9   5   8    0.26    0.20
  -9  -5  -8   -0.25    0.15
  -9   5  -9   -0.07    0.17
  -9  -5  -9    0.21    0.20
  -9   5 -10    0.43    0.26
  -9  -5 -10    0.67    0.27
  -9   5 -11    1.19    0.34
  -9  -5 -11    1.95    0.39
  -9   5 -12    3.44    0.51
  -9  -5 -12    3.19    0.50
  -9   5 -13    4.66    0.61
  -9  -5 -13    4.82    0.60
  -9   5 -14    0.07    0.27
  -9  -5 -14    0.39    0.29
  -9   5 -15    5.20    0.69
  -9  -5 -15    6.41    0.73
   9   6 -17   -0.43    0.27
   9  -6 -17    0.36    0.35
   9   6 -16    2.28    0.48
   9  -6 -16    2.19    0.49
   9   6 -15    1.15    0.38
   9  -6 -15    0.82    0.37
   9   6 -14    2.34    0.44
  -9   6  14    1.57    0.36
   9  -6 -14    3.17    0.52
   9   6 -13    2.60    0.42
   9   6 -13    3.03    0.47
  -9   6  13    2.04    0.38
   9  -6 -13    2.66    0.46
  -9   6  12    2.29    0.40
   9   6 -12    1.94    0.39
   9   6 -12    2.85    0.44
   9  -6 -12    1.61    0.38
   9   6 -11    0.02    0.22
   9   6 -11    0.51    0.26
  -9   6  11    0.57    0.26
   9  -6 -11    0.13    0.23
   9  -6 -11    0.10    0.21
  -9   6  10    2.17    0.38
   9   6 -10    2.47    0.39
   9   6 -10    2.52    0.40
   9  -6 -10    2.31    0.36
   9  -6 -10    1.46    0.34
  -9   6   9    1.94    0.35
   9   6  -9    2.00    0.36
   9   6  -9    1.89    0.36
   9  -6  -9    1.27    0.31
   9  -6  -9    1.92    0.36
   9   6  -8    2.66    0.38
  -9   6   8    2.23    0.38
   9   6  -8    2.69    0.41
   9  -6  -8    2.94    0.38
  -9   6   7    0.41    0.22
   9   6  -7    0.33    0.23
   9   6  -7    0.22    0.19
   9  -6  -7    0.40    0.25
   9   6  -6   37.92    1.34
   9   6  -6   37.15    1.43
  -9   6   6   36.98    1.43
   9   6  -5    1.27    0.30
   9   6  -5    1.33    0.25
  -9   6   5    1.15    0.29
   9   6  -4   36.30    1.20
   9   6  -4   33.17    1.34
  -9   6   4   33.59    1.33
  -9  -6   4   35.46    1.14
  -9   6   3   10.22    0.65
   9   6  -3   12.26    0.69
   9   6  -3   11.23    0.52
  -9  -6   3   11.38    0.52
  -9   6   2   23.45    0.99
   9   6  -2   23.77    1.02
  -9   6   2   22.03    0.97
  -9  -6   2   22.28    0.84
  -9   6   1    3.70    0.41
  -9   6   1    4.48    0.44
   9   6  -1    3.81    0.44
  -9  -6   1    4.29    0.37
  -9   6   0    5.42    0.49
   9   6   0    4.06    0.46
  -9   6   0    5.04    0.48
  -9  -6   0    4.75    0.40
  -9   6  -1    2.16    0.33
  -9   6  -1    1.83    0.31
   9   6   1    1.19    0.29
  -9  -6  -1    1.46    0.26
   9   6   2    1.59    0.32
  -9   6  -2    1.47    0.30
  -9   6  -2    1.48    0.28
  -9  -6  -2    1.81    0.28
  -9   6  -3    6.28    0.53
  -9   6  -3    6.11    0.55
   9   6   3    7.96    0.56
  -9  -6  -3    6.33    0.46
  -9   6  -4    0.84    0.24
  -9   6  -4    0.77    0.25
   9   6   4    1.27    0.29
  -9  -6  -4    1.00    0.25
  -9   6  -5    0.74    0.24
  -9   6  -5    0.99    0.27
   9   6   5    0.60    0.24
  -9  -6  -5    0.43    0.22
  -9   6  -6    6.12    0.46
   9   6   6    5.53    0.52
  -9   6  -6    5.76    0.58
  -9  -6  -6    5.83    0.55
   9   6   7    0.60    0.24
  -9   6  -7    0.55    0.20
  -9   6  -7    0.14    0.21
  -9  -6  -7    0.29    0.21
   9   6   8    3.91    0.44
  -9   6  -8    3.68    0.47
  -9  -6  -8    4.54    0.51
  -9   6  -9    0.49    0.25
  -9  -6  -9    0.47    0.26
  -9   6 -10    0.67    0.28
  -9  -6 -10    0.80    0.29
  -9   6 -11    2.88    0.47
  -9  -6 -11    3.16    0.49
  -9   6 -12    0.88    0.32
  -9  -6 -12    0.48    0.30
  -9   6 -13    0.36    0.29
  -9  -6 -13    0.57    0.30
  -9   6 -14    3.88    0.57
  -9  -6 -14    2.91    0.52
  -9   6 -15   -0.03    0.29
  -9  -6 -15    0.15    0.31
   9   7 -16    2.26    0.50
   9   7 -15    0.87    0.36
   9  -7 -15    0.34    0.36
  -9   7  14   -0.21    0.23
   9   7 -14   -0.33    0.26
   9  -7 -14   -0.60    0.27
  -9   7  13    2.07    0.42
   9   7 -13    2.40    0.43
   9   7 -13    1.48    0.38
   9  -7 -13    2.81    0.49
   9   7 -12    1.67    0.38
  -9   7  12    1.91    0.41
   9   7 -12    2.09    0.40
   9  -7 -12    2.06    0.39
   9  -7 -12    1.31    0.38
  -9   7  11    0.19    0.23
   9   7 -11    0.03    0.24
   9   7 -11   -0.24    0.20
   9  -7 -11   -0.17    0.25
   9  -7 -11    0.09    0.24
   9   7 -10    0.06    0.28
  -9   7  10    0.41    0.27
   9   7 -10    1.09    0.30
   9  -7 -10    1.25    0.32
   9  -7 -10    0.61    0.32
  -9   7   9   -0.04    0.22
   9   7  -9    0.24    0.21
   9   7  -9   -0.06    0.21
   9  -7  -9    0.17    0.24
   9  -7  -9   -0.13    0.22
   9   7  -8    0.41    0.21
   9   7  -8   -0.02    0.22
  -9   7   8    0.33    0.25
   9  -7  -8    0.00    0.23
   9   7  -7    0.70    0.27
  -9   7   7    0.54    0.25
   9   7  -7    0.77    0.23
   9  -7  -7    0.99    0.31
   9   7  -6    2.79    0.35
  -9   7   6    2.90    0.44
   9   7  -6    2.88    0.43
  -9   7   5    3.40    0.45
   9   7  -5    2.93    0.42
   9   7  -4   -0.24    0.19
  -9   7   4   -0.22    0.17
  -9  -7   4    0.06    0.16
  -9   7   3   -0.28    0.16
   9   7  -3    0.04    0.20
  -9  -7   3    0.06    0.16
  -9   7   2    0.15    0.21
   9   7  -2    0.66    0.25
  -9  -7   2    0.16    0.16
  -9   7   1   14.24    0.76
   9   7  -1   16.09    0.83
  -9   7   1   14.85    0.79
  -9  -7   1   14.21    0.67
  -9   7   0    0.87    0.26
  -9   7   0    1.17    0.28
   9   7   0    0.95    0.29
  -9  -7   0    1.09    0.24
  -9   7  -1   -0.05    0.16
   9   7   1    0.14    0.22
  -9   7  -1    0.05    0.18
  -9  -7  -1    0.00    0.16
   9   7   2    5.97    0.58
  -9   7  -2    5.98    0.56
  -9   7  -2    5.87    0.53
  -9  -7  -2    6.17    0.46
  -9   7  -3    0.58    0.22
  -9   7  -3    0.71    0.26
   9   7   3    0.86    0.29
  -9  -7  -3    0.98    0.26
  -9   7  -4    2.00    0.34
   9   7   4    1.83    0.36
  -9   7  -4    2.58    0.40
  -9  -7  -4    2.16    0.34
  -9   7  -5    0.29    0.22
   9   7   5    0.61    0.27
  -9   7  -5    0.65    0.26
  -9  -7  -5    0.10    0.20
  -9   7  -6    3.49    0.42
  -9   7  -6    3.77    0.48
   9   7   6    3.36    0.44
  -9  -7  -6    3.52    0.45
   9   7   7    0.89    0.30
  -9   7  -7    0.50    0.23
  -9   7  -7    1.13    0.32
  -9  -7  -7    0.59    0.25
  -9   7  -8    0.24    0.25
   9   7   8    1.23    0.31
  -9  -7  -8    0.56    0.26
  -9   7  -9    0.56    0.29
  -9  -7  -9    0.34    0.25
  -9   7 -10    0.07    0.23
  -9  -7 -10   -0.05    0.21
  -9   7 -11    0.25    0.25
  -9  -7 -11    0.32    0.28
  -9   7 -12   -0.06    0.20
  -9  -7 -12    0.39    0.31
  -9   7 -13    0.27    0.28
  -9  -7 -13    0.16    0.28
  -9   7 -14    1.41    0.42
  -9  -7 -14    1.20    0.41
   9   8 -15    2.05    0.45
   9   8 -14   -0.35    0.23
  -9   8  14    0.35    0.30
   9   8 -13    0.81    0.35
  -9   8  13    1.18    0.38
   9   8 -13    0.37    0.29
  -9   8  12   -0.12    0.27
   9   8 -12   -0.03    0.28
   9   8 -12    0.01    0.24
   9  -8 -12   -0.17    0.27
   9  -8 -12   -0.04    0.27
   9   8 -11    3.77    0.50
   9   8 -11    4.66    0.56
  -9   8  11    5.44    0.63
   9  -8 -11    3.80    0.52
   9  -8 -11    4.66    0.56
   9   8 -10    0.12    0.26
   9   8 -10    0.10    0.23
  -9   8  10   -0.03    0.22
   9  -8 -10   -0.25    0.23
   9  -8 -10   -0.18    0.24
   9   8  -9    1.51    0.36
  -9   8   9    1.86    0.40
   9  -8  -9    1.81    0.39
   9  -8  -9    1.53    0.37
   9   8  -8    0.71    0.31
  -9   8   8    1.09    0.33
   9  -8  -8    0.64    0.27
   9  -8  -8    1.12    0.33
   9   8  -7    2.18    0.40
  -9   8   7    2.26    0.42
   9  -8  -7    1.82    0.39
  -9   8   6    0.33    0.24
   9   8  -6    0.42    0.26
   9  -8  -6    0.20    0.27
  -9   8   5    1.49    0.35
   9   8  -5    1.52    0.36
  -9   8   4   -0.15    0.19
   9   8  -4    0.33    0.25
  -9  -8   4    0.13    0.17
   9   8  -3    1.61    0.36
  -9   8   3    1.76    0.36
  -9  -8   3    2.01    0.30
   9   8  -2    0.95    0.30
  -9   8   2    0.70    0.27
  -9  -8   2    1.06    0.24
   9   8  -1    8.64    0.73
  -9   8   1    8.60    0.59
  -9   8   1    8.30    0.61
  -9  -8   1    8.57    0.53
  -9   8   0    0.97    0.29
  -9   8   0    0.58    0.24
   9   8   0    0.45    0.26
  -9  -8   0    0.56    0.22
   9   8   1    2.81    0.43
  -9   8  -1    2.33    0.37
  -9   8  -1    2.35    0.37
  -9  -8  -1    2.35    0.35
  -9   8  -2    1.48    0.32
  -9   8  -2    1.56    0.32
   9   8   2    1.42    0.35
  -9  -8  -2    2.10    0.34
   9   8   3    0.28    0.25
  -9   8  -3    0.23    0.22
  -9   8  -3    0.19    0.21
  -9  -8  -3    0.48    0.23
  -9   8  -4    3.18    0.44
   9   8   4    3.10    0.45
  -9   8  -4    2.51    0.39
  -9  -8  -4    2.72    0.38
   9   8   5    1.27    0.34
  -9   8  -5    0.42    0.26
  -9   8  -5    0.97    0.29
  -9  -8  -5    0.71    0.27
  -9   8  -6    0.65    0.26
  -9   8  -6    0.01    0.21
   9   8   6    0.30    0.27
  -9  -8  -6    0.54    0.25
  -9   8  -7    3.76    0.52
  -9   8  -7    3.51    0.43
   9   8   7    3.86    0.51
  -9  -8  -7    3.12    0.45
   9   8   8    0.51    0.28
  -9   8  -8    0.16    0.24
  -9  -8  -8    0.33    0.27
  -9   8  -9    1.37    0.37
  -9  -8  -9    1.63    0.38
  -9   8 -10    0.40    0.30
  -9  -8 -10    0.30    0.28
  -9   8 -11    0.28    0.27
  -9  -8 -11    0.39    0.29
  -9   8 -12    0.94    0.35
  -9  -8 -12    0.84    0.37
  -9   8 -13    0.06    0.29
  -9  -8 -13    0.24    0.30
  -9   9  14    3.31    0.56
  -9   9  13    0.01    0.30
   9   9 -12    5.54    0.66
  -9   9  12    7.35    0.76
   9  -9 -12    6.96    0.71
  -9   9  11    0.04    0.28
   9   9 -11    0.79    0.34
   9  -9 -11    0.57    0.33
  -9   9  10    1.01    0.37
   9   9 -10    1.33    0.38
   9  -9 -10    0.98    0.36
  -9   9   9    1.27    0.38
   9   9  -9    1.35    0.37
   9  -9  -9    0.54    0.30
   9  -9  -9    0.84    0.34
  -9   9   8    8.45    0.78
   9   9  -8    7.59    0.74
   9  -9  -8    8.36    0.76
   9  -9  -8    7.94    0.69
  -9   9   7    0.27    0.28
   9   9  -7    0.66    0.30
   9  -9  -7    0.32    0.29
  -9   9   6   -0.31    0.18
   9   9  -6   -0.05    0.23
   9  -9  -6    0.12    0.29
   9   9  -5    0.51    0.29
  -9   9   5    0.54    0.29
  -9   9   4    3.14    0.48
   9   9  -4    2.96    0.47
   9   9  -3    1.24    0.34
  -9   9   3    0.83    0.29
  -9  -9   3    0.95    0.28
  -9   9   2    0.91    0.31
   9   9  -2    1.00    0.31
  -9  -9   2    1.22    0.30
  -9   9   1    0.51    0.25
  -9   9   1    0.39    0.25
   9   9  -1    0.27    0.26
  -9  -9   1    0.31    0.23
   9   9   0   17.31    0.98
  -9   9   0   18.58    0.96
  -9   9   0   19.25    0.94
  -9  -9   0   18.31    0.87
  -9   9  -1    1.17    0.33
  -9   9  -1    1.85    0.35
   9   9   1    1.70    0.37
  -9  -9  -1    1.86    0.34
  -9   9  -2    2.00    0.38
  -9   9  -2    2.23    0.38
   9   9   2    2.05    0.41
   9   9   3    0.35    0.27
  -9   9  -3    0.42    0.26
  -9   9  -3    0.02    0.21
  -9  -9  -3    0.33    0.23
   9   9   4   -0.31    0.23
  -9   9  -4    0.22    0.22
  -9   9  -4    0.08    0.22
  -9  -9  -4    0.01    0.22
   9   9   5    0.90    0.33
  -9   9  -5    1.32    0.34
  -9   9  -5    1.67    0.35
  -9  -9  -5    1.44    0.34
   9   9   6   -0.22    0.23
  -9   9  -6   -0.35    0.19
  -9   9  -6    0.18    0.26
  -9  -9  -6   -0.10    0.20
  -9   9  -7    0.73    0.31
   9   9   7    1.26    0.37
  -9  -9  -7    0.45    0.29
   9   9   8    4.98    0.60
  -9   9  -8    4.23    0.58
  -9  -9  -8    4.12    0.54
  -9   9  -9    3.39    0.54
  -9  -9  -9    3.88    0.54
  -9   9 -10    0.69    0.35
  -9  -9 -10    0.19    0.29
  -9   9 -11    0.92    0.38
  -9  -9 -11    0.08    0.29
  -9   9 -12    0.38    0.34
  -9  -9 -12    0.84    0.38
  -9  10  13    3.29    0.59
  -9  10  12   -0.17    0.29
   9  10 -12    0.15    0.33
   9 -10 -12    0.03    0.31
   9  10 -11    0.22    0.31
  -9  10  11   -0.22    0.31
   9 -10 -11    0.05    0.31
  -9  10  10    0.19    0.32
   9  10 -10    0.85    0.37
   9 -10 -10    0.22    0.32
   9  10  -9    1.80    0.43
  -9  10   9    2.25    0.48
   9 -10  -9    1.84    0.45
   9  10  -8    2.31    0.49
  -9  10   8    1.76    0.43
   9 -10  -8    1.94    0.45
  -9  10   7    0.33    0.30
   9  10  -7    0.24    0.31
   9 -10  -7    0.22    0.33
   9  10  -6    0.64    0.34
  -9  10   6    0.59    0.32
   9 -10  -6    0.65    0.36
   9  10  -5    1.83    0.41
  -9  10   5    1.51    0.39
   9  10  -4    1.56    0.39
  -9  10   4    1.29    0.36
   9  10  -3    7.21    0.72
  -9  10   3    5.54    0.63
   9  10  -2    2.54    0.46
  -9  10   2    1.04    0.35
  -9 -10   2    1.59    0.34
  -9  10   1    1.37    0.35
   9  10  -1    1.42    0.37
  -9 -10   1    2.04    0.37
   9  10   0    0.24    0.25
  -9  10   0   -0.08    0.22
  -9  10   0    0.43    0.28
  -9 -10   0    0.13    0.22
  -9  10  -1    0.20    0.27
   9  10   1    0.97    0.34
  -9  10  -1    1.22    0.31
  -9 -10  -1    0.60    0.26
  -9  10  -2    0.39    0.28
   9  10   2    1.13    0.36
  -9  10  -2    0.94    0.31
  -9 -10  -2    0.56    0.27
  -9  10  -3    0.22    0.23
  -9  10  -3    0.22    0.26
   9  10   3   -0.19    0.24
  -9 -10  -3   -0.13    0.23
   9  10   4    0.32    0.31
  -9  10  -4    0.55    0.29
  -9  10  -4    0.72    0.30
  -9 -10  -4    0.53    0.27
  -9  10  -5    3.03    0.48
   9  10   5    2.19    0.46
  -9  10  -5    3.06    0.47
  -9 -10  -5    3.81    0.51
  -9  10  -6    1.86    0.40
  -9  10  -6    1.90    0.41
   9  10   6    2.11    0.45
  -9 -10  -6    1.34    0.37
  -9  10  -7    2.42    0.47
   9  10   7    2.30    0.48
  -9 -10  -7    2.12    0.42
  -9  10  -8    0.42    0.29
   9  10   8    0.61    0.33
  -9 -10  -8    0.13    0.28
  -9  10  -9    6.25    0.71
  -9 -10  -9    4.17    0.59
  -9  10 -10   -0.23    0.29
  -9 -10 -10    0.05    0.30
   9  11 -11    0.51    0.41
  -9  11  11    0.12    0.34
  -9  11  10    1.22    0.43
   9  11 -10    1.52    0.46
   9 -11 -10    1.43    0.45
   9  11  -9   -0.10    0.32
  -9  11   9   -0.26    0.27
   9 -11  -9   -0.62    0.27
  -9  11   8    0.47    0.34
   9  11  -8    0.38    0.35
   9 -11  -8    0.28    0.37
   9  11  -7    1.34    0.41
  -9  11   7    1.48    0.43
   9 -11  -7    1.50    0.45
  -9  11   6   -0.35    0.24
   9  11  -6    0.01    0.29
   9 -11  -6    0.31    0.33
  -9  11   5    1.06    0.37
   9  11  -5    1.27    0.41
   9 -11  -5    1.59    0.42
  -9  11   4    0.16    0.28
   9  11  -4    0.36    0.30
  -9  11   3    2.73    0.49
   9  11  -3    2.32    0.48
  -9  11   2    3.15    0.52
   9  11  -2    4.61    0.61
  -9 -11   2    3.26    0.47
  -9  11   1    3.08    0.50
   9  11  -1    3.17    0.53
  -9 -11   1    3.80    0.48
  -9  11   0    0.26    0.29
  -9  11   0   -0.11    0.24
   9  11   0   -0.19    0.25
  -9 -11   0    0.28    0.26
  -9  11  -1    0.87    0.31
   9  11   1    0.52    0.33
  -9  11  -1    0.80    0.33
  -9 -11  -1    1.16    0.34
  -9  11  -2    4.19    0.54
   9  11   2    3.63    0.57
  -9  11  -2    2.99    0.50
  -9 -11  -2    3.94    0.52
  -9  11  -3    0.38    0.30
   9  11   3    0.72    0.36
  -9  11  -3    0.41    0.32
  -9 -11  -3    1.19    0.36
   9  11   4   -0.26    0.28
  -9  11  -4   -0.08    0.28
  -9  11  -4    0.17    0.26
  -9 -11  -4   -0.05    0.25
   9  11   5   -0.44    0.29
  -9  11  -5   -0.25    0.24
  -9  11  -5   -0.07    0.28
  -9 -11  -5    0.07    0.28
  -9  11  -6    0.81    0.34
   9  11   6    0.45    0.35
  -9  11  -6    0.37    0.32
  -9 -11  -6    1.23    0.37
   9  11   7    1.14    0.41
  -9  11  -7    0.98    0.36
  -9 -11  -7    1.38    0.40
   9  11   8    0.48    0.36
  -9  11  -8   -0.08    0.28
  -9 -11  -8   -0.01    0.28
   9  12  -8    1.30    0.43
  -9  12   8    0.97    0.41
   9 -12  -8    0.41    0.40
   9  12  -7    0.56    0.36
  -9  12   7   -0.32    0.29
   9 -12  -7   -0.31    0.32
   9  12  -6    1.47    0.46
  -9  12   6    1.48    0.44
   9 -12  -6    1.25    0.41
  -9  12   5   -0.08    0.29
   9  12  -5   -0.15    0.30
   9 -12  -5    0.18    0.34
   9  12  -4    0.17    0.31
  -9  12   4    0.22    0.30
   9 -12  -4   -0.71    0.26
   9  12  -3    1.45    0.46
  -9  12   3    0.99    0.38
  -9  12   2    1.52    0.41
   9  12  -2    0.48    0.36
  -9  12   1   -0.41    0.25
   9  12  -1   -0.28    0.27
  -9 -12   1   -0.10    0.27
  -9  12   0   -0.29    0.28
   9  12   0    0.60    0.36
  -9 -12   0    0.77    0.32
   9  12   1    0.03    0.29
  -9  12  -1    0.37    0.32
  -9 -12  -1    0.04    0.30
  -9  12  -2    2.26    0.47
   9  12   2    1.78    0.46
  -9 -12  -2    1.94    0.42
   9  12   3   -0.12    0.28
  -9  12  -3   -0.31    0.28
  -9 -12  -3   -0.23    0.27
  -9  12  -4    1.90    0.45
   9  12   4    2.68    0.55
  -9 -12  -4    2.14    0.45
  -9  12  -5   -0.28    0.30
   9  12   5    0.35    0.35
  -9  12  -5    0.13    0.31
  -9 -12  -5    0.37    0.31
   9  13  -1    0.63    0.38
  10   0 -19    0.02    0.37
  10   0 -18    0.72    0.40
  10   0 -17    0.46    0.35
  10   0 -16    0.33    0.30
  10   0 -15   -0.34    0.20
  10   0 -14    4.67    0.60
 -10   0  14    4.59    0.48
  10   0 -13   -0.12    0.22
 -10   0  13   -0.11    0.16
 -10   0  12    2.22    0.33
  10   0 -12    2.14    0.42
 -10   0  11   -0.02    0.15
  10   0 -11    0.01    0.22
  10   0 -10    0.36    0.23
 -10   0  10    0.58    0.21
 -10   0   9    0.10    0.15
  10   0  -9   -0.22    0.17
 -10   0   8    5.94    0.43
  10   0  -8    5.27    0.52
  10   0  -7   -0.04    0.16
 -10   0   7   -0.16    0.11
  10   0  -6    2.48    0.34
 -10   0   6    2.95    0.34
 -10   0   5    0.03    0.12
 -10   0   4   16.92    0.74
 -10   0   3   -0.01    0.11
 -10   0   2    1.63    0.25
 -10   0   1    0.01    0.11
 -10   0   0   13.94    0.64
 -10   0   0   15.60    0.66
 -10   0  -1   -0.04    0.11
 -10   0  -1    0.05    0.13
 -10   0  -1   -0.10    0.10
 -10   0  -2    6.87    0.41
 -10   0  -2    6.50    0.40
 -10   0  -2    6.72    0.42
 -10   0  -3   -0.12    0.12
 -10   0  -3   -0.17    0.09
 -10   0  -3   -0.15    0.11
 -10   0  -4    0.03    0.13
 -10   0  -4    0.03    0.14
 -10   0  -4    0.11    0.12
 -10   0  -5    0.20    0.16
 -10   0  -5   -0.09    0.15
 -10   0  -5    0.00    0.11
 -10   0  -6    0.83    0.24
 -10   0  -6    0.74    0.16
 -10   0  -6    0.41    0.20
 -10   0  -7    0.03    0.11
 -10   0  -7    0.19    0.18
 -10   0  -7   -0.02    0.18
 -10   0  -8    0.24    0.19
 -10   0  -8   -0.10    0.17
 -10   0  -9   -0.17    0.17
 -10   0  -9   -0.02    0.17
 -10   0 -10    9.64    0.64
 -10   0 -10    9.72    0.67
 -10   0 -11   -0.08    0.19
 -10   0 -11    0.00    0.20
 -10   0 -12    3.20    0.45
 -10   0 -12    2.97    0.47
 -10   0 -13    0.02    0.24
 -10   0 -13   -0.26    0.22
 -10   0 -14    0.24    0.29
 -10   0 -14    0.59    0.32
 -10   0 -15   -0.07    0.27
 -10   0 -15   -0.14    0.27
 -10   0 -16    0.89    0.37
 -10   0 -16    1.09    0.41
  10   1 -19    3.52    0.63
  10  -1 -19    4.26    0.68
  10   1 -18    0.45    0.36
  10  -1 -18   -0.05    0.32
  10   1 -17   -0.07    0.27
  10  -1 -17   -0.02    0.32
  10   1 -16    1.42    0.42
  10  -1 -16    1.84    0.44
  10   1 -15   -0.02    0.24
  10  -1 -15    0.35    0.31
  10   1 -14   -0.18    0.23
 -10   1  14   -0.05    0.17
 -10  -1  14   -0.15    0.17
  10  -1 -14    0.32    0.27
  10   1 -13    0.09    0.24
 -10   1  13    0.30    0.19
 -10  -1  13   -0.03    0.17
  10  -1 -13   -0.14    0.23
 -10   1  12    1.50    0.28
  10   1 -12    1.65    0.37
  10  -1 -12    1.54    0.37
 -10  -1  12    1.97    0.31
  10   1 -11   20.71    1.04
 -10   1  11   22.53    0.96
 -10  -1  11   21.84    0.94
  10  -1 -11   23.00    1.10
 -10   1  10    5.24    0.47
  10   1 -10    4.27    0.49
 -10  -1  10    5.40    0.48
  10  -1 -10    5.25    0.55
 -10   1   9    3.62    0.40
  10   1  -9    3.70    0.46
  10  -1  -9    3.46    0.45
 -10  -1   9    3.82    0.40
 -10   1   8    3.93    0.41
  10   1  -8    4.07    0.45
 -10  -1   8    4.13    0.41
  10  -1  -8    4.51    0.47
 -10   1   7   12.95    0.65
  10   1  -7   12.10    0.68
  10  -1  -7   13.10    0.69
 -10  -1   7   11.95    0.63
 -10   1   6    0.60    0.18
  10   1  -6    0.03    0.18
 -10  -1   6    0.03    0.11
  10  -1  -6    0.16    0.09
 -10   1   5    0.91    0.21
  10   1  -5    0.21    0.17
 -10  -1   5    0.43    0.17
 -10   1   4    6.52    0.44
 -10  -1   4    6.71    0.42
 -10   1   3    3.10    0.33
 -10  -1   3    3.63    0.36
 -10   1   2    6.86    0.43
 -10  -1   2    6.86    0.43
 -10   1   1    5.64    0.39
 -10  -1   1    6.05    0.31
 -10  -1   1    6.06    0.39
 -10   1   0    7.81    0.46
 -10   1   0    7.49    0.44
 -10  -1   0    7.85    0.44
 -10  -1   0    8.89    0.40
 -10   1  -1   21.85    0.83
 -10   1  -1   20.43    0.85
 -10  -1  -1   21.23    0.82
 -10  -1  -1   21.38    0.78
 -10  -1  -1   20.85    0.82
 -10   1  -2   -0.21    0.12
 -10   1  -2    0.04    0.11
 -10  -1  -2    0.11    0.14
 -10  -1  -2    0.11    0.13
 -10  -1  -2   -0.02    0.11
 -10   1  -3   18.29    0.74
 -10   1  -3   20.21    0.84
 -10  -1  -3   19.01    0.74
 -10  -1  -3   19.30    0.79
 -10  -1  -3   19.26    0.78
 -10   1  -4    5.75    0.42
 -10   1  -4    5.55    0.36
 -10  -1  -4    5.45    0.36
 -10  -1  -4    6.11    0.40
 -10  -1  -4    6.48    0.42
 -10   1  -5    0.58    0.20
 -10   1  -5    0.22    0.12
 -10   1  -5    0.75    0.21
 -10  -1  -5    0.16    0.15
 -10  -1  -5    0.34    0.14
 -10  -1  -5    0.50    0.19
 -10   1  -6   19.19    0.72
  10   1   6   19.88    0.75
 -10   1  -6   20.39    0.89
 -10   1  -6   18.27    0.85
 -10  -1  -6   19.00    0.82
 -10  -1  -6   18.92    0.85
 -10   1  -7    0.66    0.24
 -10   1  -7    0.56    0.15
  10   1   7    0.40    0.18
 -10   1  -7    0.24    0.19
 -10  -1  -7    0.76    0.23
 -10  -1  -7    0.50    0.22
 -10   1  -8    3.15    0.40
 -10   1  -8    2.79    0.39
 -10  -1  -8    3.05    0.39
 -10  -1  -8    2.25    0.33
 -10   1  -9    5.07    0.53
 -10   1  -9    5.74    0.56
 -10  -1  -9    5.08    0.49
 -10  -1  -9    4.37    0.48
 -10   1 -10   -0.23    0.17
 -10   1 -10    0.01    0.21
 -10  -1 -10   -0.02    0.19
 -10  -1 -10    0.22    0.20
 -10   1 -11    5.18    0.55
 -10   1 -11    3.97    0.51
 -10  -1 -11    3.70    0.48
 -10  -1 -11    4.29    0.49
 -10   1 -12    0.50    0.26
 -10   1 -12    0.62    0.28
 -10  -1 -12    0.88    0.30
 -10  -1 -12    0.45    0.25
 -10   1 -13    3.58    0.50
 -10   1 -13    2.92    0.48
 -10  -1 -13    2.85    0.44
 -10  -1 -13    3.04    0.48
 -10   1 -14    0.37    0.30
 -10  -1 -14    0.77    0.31
 -10  -1 -14    0.58    0.31
 -10   1 -15    2.00    0.45
 -10  -1 -15    2.03    0.44
 -10  -1 -15    1.85    0.44
 -10   1 -16    1.20    0.41
 -10  -1 -16    1.89    0.46
 -10  -1 -16    2.47    0.49
  10   2 -19    0.10    0.35
  10  -2 -19   -0.17    0.36
  10   2 -18    1.46    0.45
  10  -2 -18    1.72    0.50
  10   2 -17    0.64    0.35
  10  -2 -17    0.62    0.38
  10   2 -16   -0.01    0.26
  10  -2 -16    0.32    0.34
  10   2 -15    1.02    0.37
  10  -2 -15    0.91    0.33
 -10   2  14   -0.02    0.18
  10   2 -14    0.40    0.27
  10   2 -14   -0.22    0.20
  10  -2 -14   -0.02    0.26
  10   2 -13    2.82    0.47
 -10   2  13    3.34    0.41
  10   2 -13    4.13    0.46
  10  -2 -13    2.49    0.43
 -10  -2  13    3.64    0.42
  10   2 -12    4.73    0.56
 -10   2  12    4.26    0.46
 -10  -2  12    4.90    0.47
  10  -2 -12    4.99    0.58
  10   2 -11    6.49    0.62
 -10   2  11    6.42    0.48
 -10  -2  11    6.03    0.52
  10  -2 -11    5.61    0.58
 -10   2  10    1.09    0.25
  10   2 -10    1.16    0.29
 -10  -2  10    1.50    0.27
  10  -2 -10    1.60    0.35
 -10   2   9    3.40    0.38
  10   2  -9    2.94    0.40
 -10  -2   9    2.37    0.33
  10  -2  -9    2.89    0.41
 -10   2   8    3.10    0.37
  10   2  -8    3.03    0.41
 -10  -2   8    2.82    0.34
  10  -2  -8    2.77    0.39
 -10   2   7    2.12    0.31
  10   2  -7    1.96    0.33
 -10  -2   7    2.14    0.31
  10  -2  -7    2.02    0.21
  10   2  -6    0.59    0.21
 -10   2   6    0.74    0.21
 -10  -2   6    0.26    0.16
 -10   2   5   43.47    1.50
  10   2  -5   45.56    1.52
 -10  -2   5   43.06    1.48
  10   2  -4    3.73    0.37
 -10   2   4    4.25    0.40
 -10  -2   4    4.40    0.40
 -10   2   3    2.61    0.32
 -10  -2   3    2.42    0.18
 -10  -2   3    2.42    0.30
 -10   2   2    1.44    0.24
 -10  -2   2    1.47    0.24
 -10  -2   2    1.91    0.19
 -10   2   1    0.62    0.18
 -10   2   1    0.48    0.17
 -10  -2   1    0.43    0.15
 -10  -2   1    0.65    0.13
 -10   2   0    5.23    0.38
 -10   2   0    5.07    0.36
 -10  -2   0    4.31    0.39
 -10  -2   0    4.95    0.31
 -10   2  -1    5.79    0.42
 -10   2  -1    5.38    0.37
 -10  -2  -1    5.41    0.38
 -10  -2  -1    5.38    0.35
 -10   2  -2    0.29    0.16
 -10   2  -2    0.03    0.11
 -10  -2  -2    0.12    0.13
 -10  -2  -2    0.11    0.13
 -10  -2  -2    0.04    0.12
  10   2   3    3.55    0.35
 -10   2  -3    2.52    0.33
 -10   2  -3    3.92    0.34
 -10  -2  -3    3.55    0.35
 -10  -2  -3    3.27    0.32
 -10  -2  -3    3.06    0.30
 -10   2  -4    4.20    0.35
 -10   2  -4    4.69    0.44
  10   2   4    4.86    0.40
 -10  -2  -4    4.76    0.42
 -10  -2  -4    4.51    0.38
 -10   2  -5    0.21    0.14
 -10   2  -5    0.21    0.19
  10   2   5    0.02    0.14
 -10  -2  -5    0.37    0.16
 -10  -2  -5    0.49    0.20
 -10   2  -6   20.14    0.74
 -10   2  -6   17.61    0.86
  10   2   6   20.27    0.78
 -10  -2  -6   18.80    0.80
 -10  -2  -6   18.54    0.85
 -10   2  -7    2.56    0.38
 -10   2  -7    3.34    0.30
  10   2   7    3.51    0.32
 -10  -2  -7    3.38    0.36
 -10  -2  -7    4.27    0.45
 -10   2  -8    0.11    0.19
 -10  -2  -8    0.26    0.19
 -10  -2  -8    0.17    0.17
 -10   2  -9    0.95    0.28
 -10  -2  -9    0.50    0.21
 -10  -2  -9    0.49    0.23
 -10   2 -10    4.80    0.53
 -10  -2 -10    4.72    0.47
 -10  -2 -10    4.87    0.53
 -10   2 -11    2.60    0.42
 -10  -2 -11    3.49    0.47
 -10  -2 -11    2.71    0.39
 -10   2 -12    1.25    0.34
 -10  -2 -12    1.10    0.31
 -10  -2 -12    1.25    0.29
 -10   2 -13    2.93    0.49
 -10  -2 -13    2.59    0.41
 -10  -2 -13    1.14    0.36
 -10   2 -14    0.64    0.33
 -10  -2 -14    0.15    0.26
 -10   2 -15    3.19    0.54
 -10  -2 -15    2.40    0.48
 -10   2 -16    1.61    0.45
 -10  -2 -16    0.23    0.31
  10   3 -18    1.54    0.45
  10  -3 -18    1.72    0.49
  10   3 -17   -0.39    0.25
  10  -3 -17   -0.02    0.31
  10   3 -16    0.50    0.32
  10  -3 -16    0.82    0.38
  10   3 -15   -0.06    0.23
  10  -3 -15   -0.10    0.28
  10   3 -14    4.06    0.55
 -10   3  14    4.49    0.48
  10   3 -14    4.10    0.48
  10  -3 -14    3.78    0.55
  10   3 -13    3.22    0.43
 -10   3  13    4.13    0.46
  10   3 -13    2.55    0.44
  10  -3 -13    2.92    0.50
 -10   3  12    0.09    0.19
  10   3 -12    0.31    0.26
  10   3 -12    0.08    0.20
  10  -3 -12    0.41    0.26
 -10   3  11   -0.05    0.16
  10   3 -11   -0.29    0.15
  10   3 -11    0.01    0.19
  10  -3 -11    0.34    0.24
  10   3 -10    3.00    0.42
  10   3 -10    3.39    0.42
 -10   3  10    4.40    0.45
  10  -3 -10    3.53    0.48
 -10  -3  10    3.65    0.41
 -10   3   9    1.84    0.31
  10   3  -9    2.01    0.33
  10   3  -9    2.35    0.37
  10  -3  -9    1.45    0.33
 -10  -3   9    1.94    0.31
  10   3  -8    1.03    0.25
 -10   3   8    0.93    0.24
  10   3  -8    1.13    0.26
 -10  -3   8    0.62    0.21
  10  -3  -8    1.35    0.21
  10  -3  -8    0.79    0.26
 -10   3   7   19.74    0.86
  10   3  -7   17.96    0.86
  10   3  -7   19.61    0.87
  10  -3  -7   17.76    0.70
 -10  -3   7   18.37    0.83
  10   3  -6   27.90    1.10
 -10   3   6   28.44    1.11
 -10  -3   6   28.40    1.10
 -10   3   5    6.79    0.47
  10   3  -5    5.74    0.43
 -10  -3   5    5.90    0.43
  10   3  -4    5.35    0.47
 -10   3   4    4.98    0.45
  10   3  -4    6.37    0.43
 -10  -3   4    5.25    0.46
 -10  -3   4    5.59    0.24
 -10   3   3    5.30    0.46
  10   3  -3    5.28    0.37
  10   3  -3    4.73    0.45
 -10  -3   3    4.73    0.43
 -10  -3   3    5.32    0.27
 -10   3   2    3.22    0.35
  10   3  -2    3.72    0.39
 -10  -3   2    3.99    0.25
 -10  -3   2    4.09    0.40
  10   3  -1    0.28    0.17
 -10   3   1    0.34    0.16
 -10   3   1    0.14    0.15
 -10  -3   1    0.22    0.14
 -10  -3   1    0.06    0.11
 -10   3   0    0.57    0.18
  10   3   0    0.31    0.17
 -10   3   0    0.39    0.19
 -10  -3   0    0.23    0.13
  10   3   1    0.59    0.20
 -10   3  -1    0.82    0.21
 -10   3  -1    0.85    0.21
 -10  -3  -1    0.83    0.18
 -10   3  -2    0.34    0.18
  10   3   2    0.00    0.14
 -10   3  -2   -0.03    0.12
 -10  -3  -2   -0.05    0.12
 -10   3  -3    0.64    0.21
 -10   3  -3    0.35    0.16
  10   3   3    0.16    0.17
 -10  -3  -3    0.51    0.18
 -10  -3  -3    0.58    0.15
 -10   3  -4    2.17    0.27
 -10   3  -4    1.92    0.31
  10   3   4    2.07    0.29
 -10  -3  -4    2.13    0.25
 -10  -3  -4    1.97    0.29
 -10   3  -5    0.49    0.22
  10   3   5    0.40    0.18
 -10   3  -5    0.22    0.15
 -10  -3  -5    0.14    0.18
 -10  -3  -5    0.17    0.15
  10   3   6    7.10    0.46
 -10   3  -6    6.85    0.53
 -10   3  -6    6.92    0.42
 -10  -3  -6    7.50    0.43
 -10  -3  -6    7.68    0.51
 -10   3  -7    4.46    0.36
 -10   3  -7    4.42    0.48
  10   3   7    4.49    0.40
 -10  -3  -7    3.61    0.42
 -10  -3  -7    3.82    0.36
 -10   3  -8    0.40    0.23
 -10  -3  -8    0.27    0.18
 -10  -3  -8    0.47    0.22
 -10   3  -9    0.14    0.20
 -10  -3  -9    0.60    0.21
 -10  -3  -9    0.29    0.21
 -10   3 -10   -0.08    0.19
 -10  -3 -10   -0.07    0.18
 -10  -3 -10   -0.24    0.16
 -10   3 -11    0.03    0.22
 -10  -3 -11    0.14    0.21
 -10   3 -12    6.39    0.66
 -10  -3 -12    5.90    0.63
 -10   3 -13    2.83    0.48
 -10  -3 -13    2.40    0.44
 -10   3 -14    1.29    0.39
 -10  -3 -14    0.98    0.37
 -10   3 -15    0.12    0.29
 -10  -3 -15   -0.26    0.25
 -10   3 -16    3.23    0.58
 -10  -3 -16    4.65    0.65
  10   4 -18    0.06    0.30
  10  -4 -18    0.64    0.43
  10   4 -17    0.03    0.31
  10  -4 -17    0.30    0.33
  10   4 -16    0.41    0.32
  10  -4 -16    0.12    0.32
  10   4 -15    2.73    0.49
  10  -4 -15    1.86    0.45
 -10   4  14   -0.31    0.17
  10   4 -14   -0.37    0.21
  10   4 -14    0.35    0.28
  10  -4 -14    0.08    0.27
 -10   4  13    1.08    0.29
  10   4 -13    1.45    0.33
  10   4 -13    0.55    0.30
  10  -4 -13    1.09    0.35
  10   4 -12    0.50    0.25
  10   4 -12    0.16    0.23
 -10   4  12    0.10    0.20
  10  -4 -12    0.11    0.24
  10   4 -11   -0.02    0.19
  10   4 -11    0.14    0.22
 -10   4  11    0.53    0.22
  10  -4 -11    0.68    0.29
  10   4 -10    1.53    0.32
 -10   4  10    1.78    0.32
  10   4 -10    1.84    0.34
  10  -4 -10    1.56    0.35
 -10   4   9    1.00    0.27
  10   4  -9    1.22    0.29
  10   4  -9    1.87    0.34
  10  -4  -9    1.81    0.27
  10  -4  -9    0.80    0.29
 -10   4   8    1.00    0.26
  10   4  -8    1.39    0.30
  10   4  -8    1.98    0.34
  10  -4  -8    1.59    0.33
  10  -4  -8    1.88    0.28
 -10   4   7   10.69    0.65
  10   4  -7   11.61    0.65
  10   4  -7   11.04    0.66
  10  -4  -7   11.60    0.57
  10   4  -6   -0.16    0.15
 -10   4   6    0.03    0.17
  10   4  -6   -0.21    0.17
  10   4  -5    1.34    0.28
  10   4  -5    1.28    0.26
 -10   4   5    1.00    0.25
  10   4  -4    6.81    0.50
 -10   4   4    5.64    0.50
  10   4  -4    6.89    0.45
 -10  -4   4    6.78    0.31
 -10   4   3   22.74    0.96
  10   4  -3   22.99    0.89
  10   4  -3   24.55    1.00
 -10  -4   3   23.09    0.77
 -10   4   2    3.00    0.35
  10   4  -2    3.50    0.40
  10   4  -2    3.38    0.32
 -10  -4   2    3.26    0.27
 -10   4   1    0.83    0.22
 -10   4   1    0.89    0.22
  10   4  -1    0.39    0.15
  10   4  -1    0.97    0.24
 -10  -4   1    0.76    0.16
  10   4   0    2.93    0.36
 -10   4   0    3.24    0.37
 -10   4   0    3.89    0.39
 -10  -4   0    3.62    0.32
 -10   4  -1    0.06    0.15
 -10   4  -1    0.29    0.19
  10   4   1    0.11    0.17
 -10  -4  -1    0.20    0.14
 -10   4  -2    0.16    0.16
  10   4   2   -0.06    0.16
 -10   4  -2   -0.10    0.13
 -10  -4  -2   -0.12    0.12
 -10   4  -3    0.29    0.17
  10   4   3    0.16    0.17
 -10   4  -3    0.06    0.16
 -10  -4  -3    0.09    0.15
  10   4   4    0.46    0.19
 -10   4  -4    0.73    0.20
 -10   4  -4    0.62    0.23
 -10  -4  -4    0.70    0.16
 -10  -4  -4    0.21    0.18
  10   4   5    9.49    0.56
 -10   4  -5   10.53    0.54
 -10   4  -5   10.18    0.64
 -10  -4  -5   10.63    0.50
 -10  -4  -5   10.67    0.59
 -10   4  -6    2.48    0.30
 -10   4  -6    2.22    0.36
  10   4   6    2.83    0.34
 -10  -4  -6    2.55    0.36
 -10   4  -7    0.14    0.15
  10   4   7    0.12    0.16
 -10   4  -7   -0.05    0.16
 -10  -4  -7    0.11    0.18
 -10   4  -8    1.21    0.30
 -10  -4  -8    1.14    0.30
 -10   4  -9    0.03    0.19
 -10  -4  -9    0.05    0.21
 -10   4 -10    0.32    0.23
 -10  -4 -10   -0.09    0.19
 -10   4 -11    0.03    0.24
 -10  -4 -11    0.69    0.28
 -10   4 -12    6.12    0.66
 -10  -4 -12    5.55    0.62
 -10   4 -13    1.45    0.37
 -10  -4 -13    0.85    0.34
 -10   4 -14    0.44    0.32
 -10  -4 -14    0.23    0.29
 -10   4 -15    0.60    0.36
 -10  -4 -15    0.42    0.31
  10   5 -17   -0.06    0.30
  10  -5 -17    0.27    0.38
  10   5 -16    0.80    0.38
  10  -5 -16    1.29    0.41
  10   5 -15    1.46    0.41
  10  -5 -15    1.28    0.42
 -10   5  14    1.02    0.31
  10   5 -14    0.78    0.33
  10  -5 -14    1.41    0.39
  10   5 -13    3.41    0.47
  10   5 -13    3.29    0.49
 -10   5  13    2.58    0.41
  10  -5 -13    3.07    0.50
  10   5 -12    0.99    0.33
  10   5 -12    1.12    0.33
 -10   5  12    0.68    0.26
  10  -5 -12    0.76    0.31
  10   5 -11    5.65    0.58
  10   5 -11    4.62    0.52
 -10   5  11    4.40    0.50
  10  -5 -11    4.07    0.52
  10   5 -10    1.17    0.30
  10   5 -10    0.55    0.26
 -10   5  10    0.92    0.28
  10  -5 -10    0.85    0.30
  10  -5 -10    0.51    0.23
  10   5  -9    5.21    0.53
  10   5  -9    5.69    0.57
 -10   5   9    5.81    0.56
  10  -5  -9    6.22    0.60
  10  -5  -9    5.49    0.47
  10   5  -8    0.42    0.23
 -10   5   8    0.26    0.20
  10   5  -8    0.46    0.24
  10  -5  -8    0.56    0.21
 -10   5   7   13.91    0.75
  10   5  -7   10.83    0.65
  10   5  -7   11.36    0.70
  10  -5  -7   13.13    0.64
  10   5  -6    0.12    0.19
 -10   5   6    0.67    0.22
  10   5  -6    0.60    0.22
  10   5  -5    1.33    0.27
  10   5  -5    1.40    0.31
 -10   5   5    1.91    0.33
 -10   5   4    1.12    0.27
  10   5  -4    1.21    0.28
  10   5  -4    1.24    0.24
 -10   5   3    0.19    0.18
  10   5  -3    0.32    0.21
  10   5  -3    0.07    0.15
 -10  -5   3    0.01    0.11
  10   5  -2    0.17    0.18
  10   5  -2    0.08    0.14
 -10   5   2    0.16    0.19
 -10  -5   2    0.07    0.12
  10   5  -1    4.81    0.32
  10   5  -1    5.14    0.50
 -10   5   1    4.51    0.45
 -10   5   1    3.86    0.43
 -10  -5   1    4.75    0.33
 -10   5   0    1.05    0.26
  10   5   0    1.04    0.18
  10   5   0    0.90    0.25
 -10   5   0    0.65    0.21
 -10  -5   0    1.06    0.20
 -10   5  -1   22.79    0.98
 -10   5  -1   24.07    1.02
  10   5   1   25.28    1.03
 -10  -5  -1   23.78    0.91
  10   5   2    1.63    0.30
 -10   5  -2    1.97    0.32
 -10   5  -2    1.60    0.29
 -10  -5  -2    1.74    0.27
  10   5   3    0.20    0.20
 -10   5  -3    0.26    0.18
 -10   5  -3    0.33    0.19
 -10  -5  -3   -0.12    0.15
  10   5   4    4.12    0.44
 -10   5  -4    4.88    0.50
 -10   5  -4    3.82    0.40
 -10  -5  -4    4.00    0.42
 -10   5  -5    3.42    0.37
 -10   5  -5    3.59    0.45
  10   5   5    3.21    0.40
 -10  -5  -5    3.75    0.42
  10   5   6    2.99    0.38
 -10   5  -6    3.14    0.42
 -10   5  -6    3.29    0.36
 -10  -5  -6    3.05    0.40
  10   5   7    4.97    0.47
 -10   5  -7    4.88    0.42
 -10   5  -7    4.82    0.53
 -10  -5  -7    4.59    0.50
 -10   5  -8    0.27    0.23
 -10  -5  -8   -0.01    0.19
 -10   5  -9    1.99    0.38
 -10  -5  -9    2.67    0.41
 -10   5 -10    0.67    0.29
 -10  -5 -10    0.55    0.27
 -10   5 -11    5.65    0.63
 -10  -5 -11    5.11    0.60
 -10   5 -12    1.33    0.39
 -10  -5 -12    0.83    0.34
 -10   5 -13    3.10    0.52
 -10  -5 -13    2.38    0.47
 -10   5 -14    0.76    0.36
 -10  -5 -14    1.34    0.40
 -10   5 -15    0.46    0.33
 -10  -5 -15    0.06    0.29
  10   6 -17    0.11    0.33
  10  -6 -17    0.63    0.41
  10   6 -16    2.24    0.49
  10  -6 -16    2.63    0.52
  10   6 -15    2.70    0.51
  10  -6 -15    2.50    0.51
  10   6 -14    0.45    0.30
 -10   6  14    0.39    0.27
  10  -6 -14   -0.36    0.26
 -10   6  13    2.58    0.43
  10   6 -13    1.87    0.41
  10   6 -13    2.39    0.43
  10  -6 -13    2.96    0.50
 -10   6  12    2.96    0.45
  10   6 -12    2.31    0.42
  10   6 -12    3.35    0.47
  10  -6 -12    2.39    0.46
  10   6 -11    0.53    0.27
  10   6 -11    0.47    0.26
 -10   6  11    0.23    0.23
  10  -6 -11    0.61    0.31
  10   6 -10   13.75    0.79
  10   6 -10   12.16    0.76
 -10   6  10   14.40    0.83
  10  -6 -10   12.76    0.80
  10  -6 -10   14.39    0.73
 -10   6   9   -0.03    0.20
  10   6  -9    0.25    0.23
  10   6  -9    0.08    0.20
  10  -6  -9    0.44    0.25
  10  -6  -9    0.07    0.21
  10   6  -8   22.35    1.00
  10   6  -8   23.30    1.07
 -10   6   8   23.89    1.09
  10  -6  -8   22.98    0.97
  10   6  -7    0.63    0.24
 -10   6   7    0.66    0.26
  10   6  -7    0.41    0.24
  10  -6  -7    0.22    0.22
 -10   6   6    1.44    0.33
  10   6  -6    1.39    0.28
  10   6  -6    0.74    0.27
  10   6  -5    8.76    0.51
  10   6  -5    8.29    0.59
 -10   6   5    6.85    0.61
  10   6  -4    3.26    0.34
  10   6  -4    3.11    0.41
 -10   6   4    2.76    0.40
  10   6  -3    1.04    0.29
  10   6  -3    0.79    0.20
 -10   6   3    0.96    0.27
 -10  -6   3    1.43    0.22
  10   6  -2    4.34    0.48
 -10   6   2    3.62    0.44
 -10  -6   2    4.33    0.32
 -10   6   1    2.00    0.34
  10   6  -1    2.38    0.38
 -10   6   1    2.66    0.38
 -10  -6   1    1.84    0.26
  10   6   0   13.94    0.75
 -10   6   0   12.29    0.72
 -10   6   0   13.26    0.73
 -10  -6   0   14.76    0.65
 -10   6  -1    7.72    0.54
  10   6   1    8.12    0.57
 -10   6  -1    7.71    0.56
 -10  -6  -1    8.00    0.48
 -10   6  -2    3.69    0.42
  10   6   2    3.75    0.45
 -10   6  -2    3.66    0.45
 -10  -6  -2    3.26    0.36
 -10   6  -3   20.14    0.95
  10   6   3   17.87    0.89
 -10   6  -3   20.00    0.89
 -10  -6  -3   18.98    0.85
  10   6   4   26.99    1.12
 -10   6  -4   24.14    1.11
 -10   6  -4   27.14    1.07
 -10  -6  -4   25.59    1.06
 -10   6  -5    0.22    0.20
 -10   6  -5    0.27    0.20
  10   6   5    0.28    0.24
 -10  -6  -5    0.12    0.20
 -10   6  -6    0.08    0.18
  10   6   6    0.03    0.21
 -10   6  -6    0.13    0.18
 -10  -6  -6    0.17    0.21
 -10   6  -7    1.01    0.30
  10   6   7    1.12    0.30
 -10  -6  -7    1.53    0.33
 -10   6  -8    0.18    0.21
  10   6   8   -0.09    0.20
 -10  -6  -8   -0.07    0.20
 -10   6  -9    6.79    0.68
 -10  -6  -9    5.58    0.60
 -10   6 -10    0.88    0.31
 -10  -6 -10    0.85    0.31
 -10   6 -11    0.17    0.25
 -10  -6 -11    0.69    0.29
 -10   6 -12    3.08    0.52
 -10  -6 -12    3.05    0.51
 -10   6 -13    0.36    0.31
 -10  -6 -13    0.93    0.36
 -10   6 -14    0.52    0.33
 -10  -6 -14    0.09    0.29
  10   7 -16   -0.35    0.27
  10  -7 -16   -0.08    0.36
  10   7 -15    0.41    0.34
  10  -7 -15    0.23    0.33
 -10   7  14    0.64    0.32
  10   7 -14    0.88    0.38
  10  -7 -14    0.73    0.38
  10   7 -13    0.41    0.31
 -10   7  13    0.12    0.26
  10   7 -13    0.34    0.28
  10  -7 -13    0.09    0.32
 -10   7  12    4.96    0.59
  10   7 -12    4.61    0.57
  10   7 -12    4.19    0.54
  10  -7 -12    4.30    0.58
  10   7 -11    0.07    0.25
  10   7 -11    0.27    0.24
 -10   7  11    0.35    0.27
  10  -7 -11    0.49    0.29
  10  -7 -11   -0.10    0.25
  10   7 -10    0.35    0.29
  10   7 -10    0.65    0.27
 -10   7  10    0.61    0.28
  10  -7 -10    0.46    0.27
  10  -7 -10    0.28    0.27
  10   7  -9    1.61    0.33
 -10   7   9    1.74    0.37
  10   7  -9    1.62    0.37
  10  -7  -9    1.69    0.36
  10  -7  -9    2.26    0.38
  10   7  -8    2.45    0.37
  10   7  -8    2.56    0.43
 -10   7   8    2.45    0.44
  10  -7  -8    2.83    0.42
  10   7  -7    0.10    0.23
  10   7  -7    0.18    0.20
 -10   7   7    0.23    0.23
  10  -7  -7    0.13    0.25
  10   7  -6    1.90    0.37
 -10   7   6    1.55    0.35
 -10   7   5    4.73    0.53
  10   7  -5    4.57    0.52
  10   7  -4   -0.17    0.18
 -10   7   4   -0.01    0.19
  10   7  -3    3.52    0.46
 -10   7   3    3.69    0.46
 -10  -7   3    4.84    0.39
  10   7  -2    8.46    0.62
 -10   7   2    8.95    0.61
 -10  -7   2    9.41    0.51
  10   7  -1    0.64    0.26
 -10   7   1    0.41    0.20
 -10   7   1   -0.01    0.19
 -10  -7   1    0.44    0.19
  10   7   0    2.95    0.43
 -10   7   0    2.50    0.37
 -10   7   0    2.95    0.41
 -10  -7   0    3.14    0.35
 -10   7  -1    0.01    0.17
 -10   7  -1    0.03    0.19
  10   7   1    0.17    0.22
 -10  -7  -1    0.36    0.19
 -10   7  -2    0.45    0.23
  10   7   2    0.55    0.27
 -10   7  -2    0.74    0.26
 -10  -7  -2    0.28    0.19
 -10   7  -3    0.11    0.21
 -10   7  -3   -0.15    0.17
  10   7   3   -0.06    0.20
 -10  -7  -3    0.12    0.18
  10   7   4    0.18    0.22
 -10   7  -4    0.41    0.22
 -10   7  -4    0.43    0.23
 -10  -7  -4    0.81    0.24
  10   7   5   -0.11    0.21
 -10   7  -5    0.23    0.22
 -10   7  -5    0.67    0.26
 -10  -7  -5    0.05    0.19
  10   7   6    0.73    0.29
 -10   7  -6    0.46    0.23
 -10   7  -6    0.57    0.27
 -10  -7  -6    0.57    0.24
 -10   7  -7    0.42    0.25
  10   7   7    0.20    0.25
 -10  -7  -7    0.39    0.25
 -10   7  -8    4.12    0.56
  10   7   8    4.46    0.51
 -10  -7  -8    6.50    0.63
 -10   7  -9   -0.11    0.20
 -10  -7  -9    0.58    0.27
 -10   7 -10    0.46    0.30
 -10  -7 -10    0.84    0.31
 -10   7 -11    1.96    0.40
 -10  -7 -11    0.88    0.34
 -10   7 -12   -0.05    0.26
 -10  -7 -12   -0.25    0.26
 -10   7 -13    0.60    0.30
 -10  -7 -13    0.18    0.31
  10   8 -15    0.99    0.38
 -10   8  14    0.63    0.34
  10   8 -14    1.39    0.42
  10   8 -13    1.31    0.39
 -10   8  13    1.56    0.41
  10   8 -13    1.31    0.39
  10  -8 -13    1.57    0.43
  10   8 -12    0.98    0.34
 -10   8  12    1.06    0.36
  10   8 -12    1.25    0.38
  10  -8 -12    1.34    0.41
  10   8 -11    0.11    0.27
  10   8 -11    0.27    0.26
 -10   8  11    0.13    0.25
  10  -8 -11   -0.27    0.28
  10  -8 -11    0.10    0.29
 -10   8  10   -0.23    0.22
  10   8 -10    0.09    0.26
  10  -8 -10    0.49    0.30
  10  -8 -10    0.17    0.27
  10   8  -9    1.29    0.36
 -10   8   9    0.38    0.27
  10  -8  -9    0.96    0.34
  10  -8  -9    1.16    0.34
 -10   8   8    0.31    0.26
  10   8  -8    0.32    0.26
  10  -8  -8   -0.10    0.24
  10   8  -7    3.50    0.50
 -10   8   7    4.55    0.56
  10  -8  -7    4.68    0.56
 -10   8   6    1.70    0.38
  10   8  -6    2.24    0.41
  10   8  -5    4.82    0.56
 -10   8   5    4.15    0.52
  10   8  -4    2.95    0.45
 -10   8   4    2.59    0.43
 -10   8   3    6.25    0.61
  10   8  -3    7.05    0.66
  10   8  -2    0.20    0.24
 -10   8   2    0.07    0.21
 -10  -8   2    0.29    0.20
 -10   8   1    0.81    0.27
  10   8  -1    1.62    0.37
 -10   8   1    1.76    0.34
 -10  -8   1    1.61    0.28
 -10   8   0    0.33    0.23
 -10   8   0    0.15    0.19
  10   8   0    0.20    0.23
 -10  -8   0    0.42    0.21
  10   8   1    1.59    0.35
 -10   8  -1    1.13    0.29
 -10   8  -1    1.51    0.33
 -10  -8  -1    1.44    0.29
 -10   8  -2    8.89    0.62
 -10   8  -2   10.38    0.69
  10   8   2    8.41    0.74
 -10  -8  -2    8.33    0.57
 -10   8  -3    0.18    0.23
  10   8   3    0.21    0.26
 -10   8  -3    0.64    0.27
 -10  -8  -3    0.54    0.22
 -10   8  -4    7.75    0.69
  10   8   4    7.51    0.69
 -10   8  -4    6.87    0.62
 -10  -8  -4    7.98    0.57
  10   8   5    0.54    0.29
 -10   8  -5    0.71    0.28
 -10   8  -5    0.84    0.28
 -10  -8  -5    0.99    0.30
 -10   8  -6    0.40    0.25
 -10   8  -6    0.93    0.28
  10   8   6    0.24    0.27
 -10  -8  -6    0.73    0.28
  10   8   7    0.94    0.33
 -10   8  -7    1.02    0.32
 -10  -8  -7    0.48    0.26
  10   8   8    1.43    0.37
 -10   8  -8    1.23    0.37
 -10  -8  -8    0.98    0.34
 -10   8  -9    0.13    0.26
 -10  -8  -9    0.33    0.29
 -10   8 -10    1.11    0.38
 -10  -8 -10    1.31    0.36
 -10   8 -11    0.82    0.35
 -10  -8 -11    0.83    0.36
 -10   8 -12    0.44    0.33
 -10  -8 -12   -0.08    0.25
 -10   9  14    2.00    0.49
  10   9 -13    0.35    0.37
 -10   9  13    0.79    0.35
 -10   9  12    1.45    0.44
  10   9 -12    1.26    0.40
 -10   9  11    1.34    0.40
  10   9 -11    1.27    0.38
  10  -9 -11    2.04    0.44
 -10   9  10    2.15    0.45
  10   9 -10    1.41    0.39
  10  -9 -10    1.47    0.40
  10  -9 -10    2.29    0.48
 -10   9   9    0.08    0.28
  10   9  -9    0.24    0.28
  10  -9  -9    0.65    0.31
  10  -9  -9    0.29    0.31
  10   9  -8    7.94    0.76
 -10   9   8    8.20    0.78
  10  -9  -8    5.77    0.65
 -10   9   7    0.21    0.27
  10   9  -7    0.18    0.26
  10  -9  -7   -0.02    0.29
  10   9  -6    3.53    0.51
 -10   9   6    2.36    0.45
  10  -9  -6    3.31    0.51
 -10   9   5   -0.35    0.17
  10   9  -5   -0.03    0.24
 -10   9   4   10.93    0.74
  10   9  -4    9.16    0.80
 -10   9   3    1.06    0.32
  10   9  -3    0.59    0.28
  10   9  -2    7.44    0.72
 -10   9   2    7.56    0.69
 -10  -9   2    6.33    0.55
 -10   9   1    1.06    0.29
  10   9  -1    0.71    0.31
 -10   9   1    0.50    0.25
 -10  -9   1    1.70    0.31
  10   9   0    0.64    0.30
 -10   9   0    0.16    0.23
 -10   9   0    0.62    0.28
 -10  -9   0   -0.08    0.19
 -10   9  -1    0.20    0.24
  10   9   1    0.38    0.29
 -10   9  -1    0.38    0.26
 -10  -9  -1    0.48    0.24
 -10   9  -2    0.24    0.24
 -10   9  -2    0.15    0.22
  10   9   2    0.03    0.25
 -10  -9  -2    0.29    0.23
 -10   9  -3   -0.18    0.19
  10   9   3   -0.15    0.21
 -10   9  -3   -0.32    0.18
 -10  -9  -3    0.05    0.21
 -10   9  -4    2.16    0.40
 -10   9  -4    3.79    0.50
  10   9   4    2.97    0.49
 -10  -9  -4    2.74    0.42
 -10   9  -5   -0.16    0.22
  10   9   5    0.24    0.28
 -10   9  -5   -0.35    0.20
 -10  -9  -5   -0.18    0.19
 -10   9  -6    2.60    0.43
 -10   9  -6    1.90    0.40
  10   9   6    1.93    0.43
 -10  -9  -6    1.92    0.39
 -10   9  -7    0.44    0.31
  10   9   7    0.05    0.27
 -10  -9  -7    0.81    0.33
 -10   9  -8    0.07    0.27
 -10  -9  -8    0.43    0.30
 -10   9  -9    1.13    0.39
 -10  -9  -9    0.22    0.30
 -10   9 -10    0.87    0.35
 -10  -9 -10    0.47    0.32
 -10   9 -11    0.23    0.33
 -10  -9 -11   -0.09    0.29
  10  10 -12    0.53    0.38
 -10  10  12    1.23    0.42
  10  10 -11    0.11    0.32
 -10  10  11    0.05    0.32
  10 -10 -11   -0.25    0.32
  10  10 -10   -0.04    0.31
 -10  10  10   -0.03    0.29
  10 -10 -10   -0.16    0.31
 -10  10   9    0.04    0.29
  10  10  -9    0.08    0.29
  10 -10  -9    0.61    0.37
  10  10  -8    1.21    0.39
 -10  10   8    1.30    0.40
  10 -10  -8    0.86    0.41
  10  10  -7    5.94    0.71
 -10  10   7    7.60    0.78
  10 -10  -7    6.83    0.74
 -10  10   6    0.18    0.27
  10  10  -6    0.02    0.29
  10 -10  -6    0.16    0.32
 -10  10   5    1.33    0.36
  10  10  -5    1.60    0.44
  10  10  -4    0.81    0.33
 -10  10   4    0.39    0.30
  10  10  -3    0.17    0.27
 -10  10   3    0.23    0.26
  10  10  -2    1.57    0.40
 -10  10   2    0.74    0.31
  10  10  -1    0.20    0.28
 -10  10   1    0.09    0.25
 -10 -10   1    0.40    0.26
 -10  10   0    1.10    0.31
  10  10   0    1.47    0.39
 -10  10   0    0.94    0.33
 -10 -10   0    1.39    0.33
  10  10   1    4.37    0.60
 -10  10  -1    3.45    0.50
 -10  10  -1    4.27    0.54
 -10 -10  -1    4.26    0.51
  10  10   2   -0.22    0.24
 -10  10  -2   -0.02    0.23
 -10  10  -2   -0.04    0.23
 -10 -10  -2    0.36    0.27
  10  10   3    7.93    0.78
 -10  10  -3    6.93    0.69
 -10  10  -3    7.16    0.69
 -10 -10  -3    7.51    0.67
  10  10   4    1.73    0.42
 -10  10  -4    1.32    0.38
 -10  10  -4    0.63    0.30
 -10 -10  -4    0.92    0.30
 -10  10  -5    6.65    0.70
 -10  10  -5    6.01    0.64
  10  10   5    5.85    0.68
 -10 -10  -5    6.71    0.68
 -10  10  -6    1.01    0.34
  10  10   6    0.57    0.32
 -10  10  -6    1.20    0.37
 -10 -10  -6    0.68    0.33
 -10  10  -7    0.68    0.33
  10  10   7    1.39    0.41
 -10 -10  -7    1.11    0.36
 -10  10  -8    0.36    0.32
 -10 -10  -8   -0.13    0.25
 -10  10  -9   -0.39    0.25
 -10 -10  -9    0.15    0.28
  10  11 -10   -0.03    0.33
 -10  11  10   -0.28    0.29
  10 -11 -10   -0.22    0.34
 -10  11   9    1.75    0.49
  10  11  -9    1.74    0.48
  10 -11  -9    2.68    0.53
  10  11  -8    0.35    0.33
 -10  11   8   -0.22    0.27
  10 -11  -8    0.26    0.36
  10  11  -7    2.54    0.51
 -10  11   7    2.32    0.50
  10 -11  -7    1.53    0.46
  10  11  -6    2.43    0.49
 -10  11   6    2.51    0.48
  10 -11  -6    1.73    0.48
 -10  11   5    1.31    0.39
  10  11  -5    0.96    0.36
  10 -11  -5    1.19    0.41
 -10  11   4   -0.07    0.25
  10  11  -4    0.59    0.34
 -10  11   3    2.12    0.44
  10  11  -3    1.87    0.44
  10  11  -2    0.24    0.31
 -10  11   2    0.20    0.29
  10  11  -1    2.16    0.45
 -10  11   1    1.92    0.44
 -10  11   0    0.90    0.36
  10  11   0    1.59    0.42
 -10  11   0    1.84    0.40
 -10 -11   0    1.64    0.37
 -10  11  -1    0.21    0.29
 -10  11  -1    0.53    0.30
  10  11   1    0.47    0.34
 -10 -11  -1    0.23    0.29
  10  11   2    4.21    0.62
 -10  11  -2    2.94    0.49
 -10  11  -2    4.43    0.59
 -10 -11  -2    4.67    0.56
 -10  11  -3    0.38    0.33
 -10  11  -3    1.19    0.38
  10  11   3    0.72    0.37
 -10 -11  -3    1.50    0.38
 -10  11  -4    1.59    0.39
  10  11   4    0.99    0.41
 -10  11  -4    1.28    0.39
 -10 -11  -4    1.27    0.38
  10  11   5    1.83    0.47
 -10  11  -5    1.04    0.37
 -10  11  -5    0.21    0.32
 -10 -11  -5    1.24    0.38
  10  11   6    1.01    0.39
 -10  11  -6    0.19    0.30
 -10 -11  -6    1.01    0.37
  10  11   7    0.07    0.36
 -10  11  -7    0.04    0.29
 -10 -11  -7    0.03    0.28
  10  12  -7    0.53    0.39
 -10  12   7    0.19    0.36
  10 -12  -7    0.58    0.40
 -10  12   6    0.46    0.35
  10  12  -6    1.00    0.42
  10 -12  -6    0.23    0.35
  10  12  -5    0.52    0.37
 -10  12   5    0.27    0.33
  10 -12  -5    0.79    0.40
  10  12  -4    0.11    0.32
 -10  12   4   -0.24    0.26
 -10  12   3   -0.32    0.26
  10  12  -3   -0.41    0.27
 -10  12   2    2.74    0.51
  10  12  -2    3.23    0.59
 -10  12   1    0.94    0.38
  10  12  -1    1.13    0.39
  10  12   0    1.90    0.52
 -10  12   0    1.97    0.45
 -10  12  -1   -0.26    0.26
  10  12   1    0.32    0.33
 -10 -12  -1    0.24    0.28
 -10  12  -2    0.10    0.30
  10  12   2    0.52    0.36
 -10 -12  -2    0.35    0.30
 -10  12  -3    0.41    0.33
  10  12   3    0.43    0.36
 -10 -12  -3    0.21    0.29
  10  12   4    0.58    0.38
 -10  12  -4    1.65    0.45
 -10  12  -4    0.80    0.36
 -10 -12  -4    0.73    0.36
  11   0 -19   -0.29    0.34
  11   0 -18    4.26    0.68
  11   0 -17    0.16    0.32
  11   0 -16   -0.03    0.28
  11   0 -15   -0.40    0.23
  11   0 -14    0.25    0.25
 -11   0  14    0.26    0.20
  11   0 -13    0.20    0.25
 -11   0  13    0.01    0.17
  11   0 -12    4.39    0.54
 -11   0  12    3.22    0.41
  11   0 -11   -0.32    0.20
 -11   0  11   -0.17    0.14
 -11   0  10    0.91    0.24
  11   0 -10    0.81    0.28
 -11   0   9   -0.16    0.13
  11   0  -9    0.07    0.21
 -11   0   8    7.82    0.51
  11   0  -8    8.77    0.59
  11   0  -7    0.28    0.19
 -11   0   7    0.08    0.16
 -11   0   6    0.95    0.23
 -11   0   5   -0.12    0.13
 -11   0   4    3.67    0.38
 -11   0   3   -0.16    0.12
 -11   0   2    9.91    0.55
 -11   0   1   -0.18    0.11
 -11   0   0    0.77    0.19
 -11   0   0    1.16    0.23
 -11   0  -1    0.02    0.12
 -11   0  -1    0.32    0.16
 -11   0  -2    0.40    0.16
 -11   0  -2    0.34    0.17
 -11   0  -2    0.59    0.18
 -11   0  -3   -0.07    0.13
 -11   0  -3   -0.12    0.14
 -11   0  -3   -0.06    0.11
 -11   0  -4   -0.13    0.15
 -11   0  -4    0.15    0.14
 -11   0  -4    0.33    0.18
 -11   0  -5   -0.26    0.14
 -11   0  -5    0.00    0.14
 -11   0  -5    0.04    0.13
 -11   0  -6   36.68    1.34
 -11   0  -6   34.10    1.18
 -11   0  -6   36.88    1.34
 -11   0  -7   -0.07    0.18
 -11   0  -7    0.07    0.19
 -11   0  -8   -0.08    0.19
 -11   0  -8    0.32    0.20
 -11   0  -9    0.05    0.19
 -11   0  -9   -0.07    0.17
 -11   0 -10    3.01    0.42
 -11   0 -10    3.20    0.45
 -11   0 -11    0.12    0.22
 -11   0 -11    0.01    0.22
 -11   0 -12    0.53    0.30
 -11   0 -12    0.59    0.28
 -11   0 -13   -0.08    0.22
 -11   0 -13   -0.17    0.23
 -11   0 -14    0.58    0.32
 -11   0 -14    0.52    0.30
 -11   0 -15    0.20    0.33
 -11   0 -15   -0.09    0.29
 -11   0 -16    0.00    0.29
 -11   0 -16    0.02    0.32
  11   1 -18    0.25    0.31
  11  -1 -18   -0.20    0.32
  11   1 -17    0.15    0.34
  11  -1 -17    0.03    0.31
  11   1 -16   -0.13    0.25
  11  -1 -16   -0.28    0.28
  11   1 -15    2.40    0.48
  11  -1 -15    1.23    0.39
 -11   1  14    1.28    0.29
  11   1 -14    1.64    0.40
  11  -1 -14    0.77    0.36
 -11  -1  14    1.15    0.28
  11   1 -13    5.43    0.64
 -11   1  13    6.86    0.58
 -11  -1  13    6.86    0.51
  11  -1 -13    7.03    0.71
  11   1 -12    1.24    0.34
 -11   1  12    2.90    0.39
  11  -1 -12    3.15    0.49
 -11  -1  12    2.11    0.34
 -11   1  11    1.58    0.31
  11   1 -11    1.70    0.36
 -11  -1  11    1.34    0.29
  11  -1 -11    1.79    0.38
  11   1 -10    1.59    0.35
 -11   1  10    1.35    0.28
  11  -1 -10    1.74    0.36
 -11  -1  10    1.16    0.27
  11   1  -9    0.68    0.27
 -11   1   9    0.63    0.22
  11  -1  -9    1.09    0.30
 -11  -1   9    0.99    0.23
 -11   1   8    3.05    0.37
  11   1  -8    3.85    0.45
  11  -1  -8    2.96    0.42
 -11  -1   8    2.68    0.35
  11   1  -7    0.54    0.24
 -11   1   7    0.74    0.23
 -11  -1   7    0.66    0.21
  11  -1  -7    0.67    0.25
  11   1  -6    1.14    0.25
 -11   1   6    1.60    0.28
 -11  -1   6    1.58    0.27
 -11   1   5   39.95    1.42
 -11  -1   5   40.68    1.42
 -11   1   4    1.32    0.25
 -11  -1   4    1.83    0.28
 -11   1   3    7.07    0.47
 -11  -1   3    8.08    0.49
 -11   1   2   25.14    0.96
 -11  -1   2   23.61    0.95
 -11   1   1   46.79    1.58
 -11  -1   1   47.94    1.59
 -11  -1   1   50.10    1.46
 -11   1   0   12.38    0.61
 -11   1   0   11.14    0.57
 -11  -1   0   11.20    0.51
 -11  -1   0   10.34    0.56
 -11   1  -1    0.01    0.14
 -11   1  -1    0.13    0.13
 -11  -1  -1   -0.14    0.11
 -11  -1  -1    0.06    0.12
 -11  -1  -1    0.18    0.15
 -11   1  -2    9.88    0.52
 -11   1  -2    9.77    0.57
 -11  -1  -2    9.79    0.52
 -11  -1  -2   10.40    0.55
 -11  -1  -2    9.92    0.51
 -11   1  -3    0.22    0.17
 -11   1  -3    0.02    0.12
 -11  -1  -3    0.00    0.11
 -11  -1  -3   -0.23    0.12
 -11  -1  -3   -0.05    0.13
 -11   1  -4   -0.01    0.12
 -11   1  -4    0.33    0.19
 -11  -1  -4    0.22    0.17
 -11  -1  -4    0.31    0.15
 -11  -1  -4    0.13    0.16
 -11   1  -5   -0.03    0.11
 -11   1  -5   -0.01    0.16
 -11  -1  -5   -0.08    0.15
 -11  -1  -5   -0.12    0.11
 -11  -1  -5   -0.10    0.14
 -11   1  -6    0.02    0.17
  11   1   6   -0.04    0.13
 -11   1  -6    0.15    0.17
 -11   1  -6    0.16    0.14
 -11  -1  -6    0.08    0.17
 -11  -1  -6    0.20    0.18
 -11   1  -7   17.22    0.86
  11   1   7   17.34    0.72
 -11   1  -7   18.13    0.87
 -11  -1  -7   20.18    0.85
 -11  -1  -7   17.67    0.85
 -11   1  -8    0.69    0.23
 -11   1  -8    0.97    0.29
 -11  -1  -8    1.01    0.28
 -11  -1  -8    0.65    0.24
 -11   1  -9    1.48    0.31
 -11   1  -9    1.13    0.30
 -11  -1  -9    1.39    0.29
 -11  -1  -9    1.50    0.32
 -11   1 -10    1.73    0.36
 -11   1 -10    0.99    0.30
 -11  -1 -10    1.01    0.30
 -11  -1 -10    1.22    0.29
 -11   1 -11    4.39    0.54
 -11   1 -11    4.26    0.52
 -11  -1 -11    3.90    0.51
 -11  -1 -11    4.77    0.52
 -11   1 -12    7.38    0.70
 -11   1 -12    5.87    0.63
 -11  -1 -12    5.69    0.62
 -11  -1 -12    5.89    0.60
 -11   1 -13    0.03    0.24
 -11  -1 -13    0.12    0.26
 -11  -1 -13   -0.06    0.23
 -11   1 -14    2.38    0.47
 -11  -1 -14    2.78    0.46
 -11  -1 -14    1.61    0.42
 -11   1 -15    0.63    0.34
 -11  -1 -15    0.86    0.36
 -11  -1 -15    0.54    0.34
 -11   1 -16    0.36    0.34
 -11  -1 -16    0.20    0.31
  11   2 -18    0.56    0.39
  11  -2 -18    0.70    0.43
  11   2 -17    0.31    0.32
  11  -2 -17   -0.18    0.28
  11   2 -16    0.09    0.31
  11  -2 -16    0.15    0.33
 -11   2  15    0.08    0.21
  11   2 -15    0.44    0.32
  11  -2 -15    0.08    0.28
  11   2 -14    2.51    0.48
 -11   2  14    2.35    0.37
  11   2 -14    2.89    0.42
 -11  -2  14    2.70    0.39
  11  -2 -14    2.45    0.48
 -11   2  13    0.30    0.21
  11   2 -13    0.29    0.26
 -11  -2  13    0.53    0.23
  11  -2 -13    0.83    0.33
  11   2 -12    0.06    0.22
 -11   2  12    0.17    0.19
 -11  -2  12    0.63    0.23
  11  -2 -12    0.60    0.28
 -11   2  11    0.55    0.23
  11   2 -11    0.35    0.25
  11  -2 -11    0.38    0.27
 -11  -2  11    0.34    0.20
  11   2 -10    0.40    0.23
 -11   2  10    0.16    0.19
 -11  -2  10    0.68    0.22
  11  -2 -10    0.11    0.25
 -11   2   9    5.93    0.53
  11   2  -9    6.26    0.58
  11  -2  -9    6.11    0.58
 -11  -2   9    7.46    0.50
 -11   2   8    0.52    0.22
  11   2  -8    0.93    0.29
  11  -2  -8    0.98    0.28
 -11  -2   8    1.25    0.26
  11   2  -7    0.10    0.21
 -11   2   7    0.15    0.17
 -11  -2   7    0.29    0.19
 -11   2   6   18.75    0.83
  11   2  -6   17.00    0.83
 -11  -2   6   17.28    0.80
  11   2  -5    3.88    0.41
 -11   2   5    4.16    0.43
 -11  -2   5    4.13    0.41
 -11   2   4   12.21    0.64
 -11  -2   4   11.33    0.61
 -11   2   3    3.62    0.37
 -11  -2   3    2.45    0.19
 -11  -2   3    2.78    0.33
 -11   2   2    1.01    0.22
 -11  -2   2    1.10    0.16
 -11  -2   2    1.42    0.25
 -11   2   1   13.27    0.65
 -11   2   1   12.35    0.66
 -11  -2   1   12.68    0.63
 -11  -2   1   13.25    0.53
 -11   2   0    7.15    0.45
 -11   2   0    7.82    0.51
 -11  -2   0    7.47    0.40
 -11  -2   0    6.83    0.46
 -11   2  -1    3.83    0.37
 -11   2  -1    3.77    0.40
 -11  -2  -1    3.61    0.36
 -11  -2  -1    4.05    0.35
 -11   2  -2    7.46    0.52
 -11   2  -2    7.99    0.47
 -11  -2  -2    7.74    0.45
 -11  -2  -2    8.33    0.48
 -11  -2  -2    8.32    0.45
 -11   2  -3    2.34    0.28
 -11   2  -3    1.39    0.28
  11   2   3    1.64    0.27
 -11  -2  -3    1.90    0.26
 -11  -2  -3    1.41    0.24
 -11  -2  -3    2.19    0.29
 -11   2  -4    0.11    0.13
 -11   2  -4    0.15    0.18
  11   2   4    0.08    0.15
 -11  -2  -4    0.06    0.14
 -11  -2  -4    0.06    0.14
 -11   2  -5    1.63    0.30
 -11   2  -5    2.24    0.28
  11   2   5    2.09    0.29
 -11  -2  -5    2.65    0.35
 -11  -2  -5    2.02    0.28
 -11   2  -6    0.63    0.17
 -11   2  -6    0.49    0.21
  11   2   6    0.55    0.20
 -11  -2  -6    0.55    0.20
 -11  -2  -6    0.64    0.23
 -11   2  -7   11.11    0.67
  11   2   7   11.70    0.57
 -11  -2  -7   10.12    0.64
 -11  -2  -7   10.99    0.61
 -11   2  -8    2.71    0.41
 -11  -2  -8    3.60    0.40
 -11  -2  -8    3.16    0.41
 -11   2  -9    3.46    0.44
 -11  -2  -9    2.25    0.34
 -11  -2  -9    3.93    0.48
 -11   2 -10    0.15    0.22
 -11  -2 -10   -0.25    0.18
 -11  -2 -10    0.22    0.21
 -11   2 -11    0.20    0.25
 -11  -2 -11    0.18    0.20
 -11  -2 -11    0.31    0.24
 -11   2 -12    0.50    0.29
 -11  -2 -12    0.30    0.26
 -11  -2 -12    1.06    0.33
 -11   2 -13    0.96    0.35
 -11  -2 -13    0.70    0.31
 -11   2 -14    1.44    0.41
 -11  -2 -14    2.21    0.46
 -11   2 -15    1.02    0.39
 -11  -2 -15    1.65    0.44
  11   3 -18    0.31    0.36
  11  -3 -18    0.98    0.43
  11   3 -17    0.29    0.32
  11  -3 -17    0.81    0.41
  11   3 -16    1.22    0.39
  11  -3 -16    0.96    0.37
  11   3 -15    0.26    0.30
 -11   3  15    0.07    0.23
  11  -3 -15    0.12    0.31
  11   3 -14    0.03    0.26
  11   3 -14    0.36    0.26
 -11   3  14    0.61    0.25
  11  -3 -14    0.42    0.31
  11   3 -13   -0.08    0.21
  11   3 -13   -0.07    0.21
 -11   3  13   -0.05    0.17
  11  -3 -13   -0.17    0.23
  11   3 -12    1.97    0.40
  11   3 -12    1.39    0.32
 -11   3  12    1.60    0.32
  11  -3 -12    1.28    0.39
  11   3 -11    0.41    0.27
  11   3 -11    1.00    0.29
 -11   3  11    0.43    0.24
  11  -3 -11    0.52    0.28
  11   3 -10    2.39    0.38
 -11   3  10    2.89    0.38
  11   3 -10    2.48    0.40
 -11  -3  10    2.23    0.34
  11  -3 -10    2.55    0.43
 -11   3   9    0.60    0.22
  11   3  -9    0.70    0.27
  11   3  -9    0.52    0.24
  11  -3  -9    0.76    0.28
 -11  -3   9    0.96    0.26
 -11   3   8    5.32    0.50
  11   3  -8    5.29    0.52
  11   3  -8    6.31    0.56
  11  -3  -8    5.80    0.56
 -11  -3   8    4.65    0.47
 -11   3   7    0.33    0.18
  11   3  -7    0.40    0.23
  11  -3  -7    0.19    0.17
 -11  -3   7    0.20    0.17
  11   3  -6    0.53    0.24
 -11   3   6    0.41    0.21
 -11  -3   6    0.62    0.21
 -11   3   5    0.47    0.19
  11   3  -5    0.11    0.18
 -11  -3   5    0.20    0.17
  11   3  -4    0.63    0.22
 -11   3   4    0.96    0.25
 -11  -3   4    0.71    0.21
  11   3  -3    5.61    0.49
  11   3  -3    4.90    0.42
 -11   3   3    4.31    0.43
 -11  -3   3    4.77    0.44
 -11  -3   3    5.19    0.27
  11   3  -2    2.21    0.33
 -11   3   2    2.50    0.33
 -11  -3   2    2.04    0.31
 -11  -3   2    2.33    0.22
 -11   3   1    0.83    0.23
 -11   3   1    0.89    0.21
  11   3  -1    1.07    0.25
 -11  -3   1    1.04    0.18
 -11  -3   1    0.73    0.21
 -11   3   0   12.46    0.66
  11   3   0   13.35    0.67
 -11   3   0   12.11    0.63
 -11  -3   0   12.12    0.54
 -11   3  -1    2.36    0.34
  11   3   1    1.63    0.29
 -11   3  -1    2.39    0.32
 -11  -3  -1    2.66    0.30
  11   3   2    1.92    0.30
 -11   3  -2    2.19    0.30
 -11   3  -2    2.09    0.32
 -11  -3  -2    1.82    0.27
  11   3   3    0.68    0.21
 -11   3  -3    0.75    0.20
 -11   3  -3    0.92    0.23
 -11  -3  -3    0.78    0.21
 -11  -3  -3    0.65    0.18
  11   3   4    7.87    0.50
 -11   3  -4    7.80    0.47
 -11   3  -4    7.71    0.53
 -11  -3  -4    7.37    0.49
 -11  -3  -4    7.72    0.46
 -11   3  -5    0.17    0.19
 -11   3  -5   -0.19    0.12
  11   3   5    0.05    0.17
 -11  -3  -5    0.10    0.15
 -11  -3  -5   -0.01    0.15
 -11   3  -6    1.38    0.23
 -11   3  -6    1.20    0.28
  11   3   6    1.54    0.26
 -11  -3  -6    1.88    0.32
 -11  -3  -6    1.64    0.26
  11   3   7    2.95    0.34
 -11   3  -7    3.08    0.43
 -11  -3  -7    2.61    0.31
 -11  -3  -7    2.67    0.38
 -11   3  -8    2.25    0.37
 -11  -3  -8    1.86    0.30
 -11  -3  -8    2.01    0.35
 -11   3  -9   -0.15    0.20
 -11  -3  -9   -0.04    0.19
 -11   3 -10    0.79    0.29
 -11  -3 -10    1.48    0.33
 -11   3 -11    6.99    0.68
 -11  -3 -11    5.90    0.62
 -11   3 -12    2.80    0.48
 -11  -3 -12    2.55    0.44
 -11   3 -13    0.21    0.27
 -11  -3 -13    0.22    0.25
 -11   3 -14   -0.18    0.27
 -11  -3 -14   -0.21    0.25
 -11   3 -15    0.13    0.30
 -11  -3 -15    0.02    0.30
  11   4 -18    0.02    0.33
  11  -4 -18    0.41    0.39
  11   4 -17    0.53    0.35
  11  -4 -17   -0.31    0.32
  11   4 -16    1.05    0.39
  11  -4 -16    0.34    0.36
 -11   4  15    1.67    0.37
  11   4 -15    1.32    0.42
  11  -4 -15    1.69    0.45
 -11   4  14    0.24    0.21
  11   4 -14   -0.10    0.26
  11   4 -14   -0.10    0.23
  11  -4 -14   -0.19    0.27
  11   4 -13    0.34    0.28
  11   4 -13    0.89    0.29
 -11   4  13    0.34    0.23
  11  -4 -13    0.22    0.30
  11   4 -12    0.22    0.25
 -11   4  12    0.16    0.21
  11   4 -12    0.20    0.24
  11  -4 -12    0.02    0.27
  11   4 -11    8.73    0.66
 -11   4  11    9.57    0.63
  11   4 -11    8.72    0.62
  11  -4 -11    9.94    0.71
  11   4 -10   -0.03    0.21
  11   4 -10   -0.22    0.19
 -11   4  10   -0.01    0.19
  11  -4 -10   -0.18    0.22
  11   4  -9    0.36    0.24
 -11   4   9    0.29    0.23
  11   4  -9    0.44    0.24
  11  -4  -9    0.15    0.22
 -11   4   8    2.91    0.40
  11   4  -8    2.86    0.39
  11   4  -8    2.91    0.41
  11  -4  -8    2.90    0.32
 -11   4   7   25.92    1.10
  11   4  -7   23.98    1.09
  11   4  -7   27.66    1.10
  11  -4  -7   25.97    0.95
  11   4  -6    2.07    0.34
 -11   4   6    2.17    0.33
  11   4  -6    1.78    0.31
  11   4  -5    0.65    0.23
 -11   4   5    0.79    0.24
  11   4  -5    1.28    0.28
  11   4  -4    5.74    0.54
 -11   4   4    4.59    0.47
  11   4  -4    5.90    0.43
  11   4  -3    1.50    0.30
 -11   4   3    1.52    0.29
  11   4  -3    0.93    0.22
 -11  -4   3    1.32    0.18
  11   4  -2   24.23    0.94
 -11   4   2   24.89    1.04
  11   4  -2   25.28    1.07
 -11  -4   2   26.56    0.87
  11   4  -1    1.25    0.27
 -11   4   1    2.09    0.32
 -11   4   1    1.26    0.27
 -11  -4   1    0.98    0.19
  11   4   0    1.80    0.32
 -11   4   0    2.56    0.35
 -11   4   0    2.31    0.33
 -11  -4   0    2.11    0.26
 -11   4  -1   19.72    0.91
 -11   4  -1   20.75    0.89
  11   4   1   20.59    0.91
 -11  -4  -1   19.25    0.78
  11   4   2    6.20    0.53
 -11   4  -2    6.53    0.57
 -11   4  -2    6.76    0.47
 -11  -4  -2    6.24    0.42
 -11   4  -3   -0.08    0.15
 -11   4  -3   -0.12    0.13
  11   4   3    0.10    0.17
 -11  -4  -3   -0.38    0.12
  11   4   4    1.62    0.30
 -11   4  -4    1.06    0.23
 -11   4  -4    0.83    0.26
 -11  -4  -4    1.48    0.22
 -11  -4  -4    1.30    0.27
 -11   4  -5    0.17    0.16
  11   4   5    0.60    0.21
 -11   4  -5    0.20    0.20
 -11  -4  -5    0.12    0.17
 -11   4  -6    2.51    0.31
  11   4   6    2.62    0.35
 -11   4  -6    3.22    0.41
 -11  -4  -6    3.25    0.41
 -11   4  -7    0.67    0.27
  11   4   7    0.03    0.18
 -11  -4  -7    0.53    0.24
 -11   4  -8    0.00    0.20
 -11  -4  -8    0.06    0.18
 -11   4  -9    2.61    0.41
 -11  -4  -9    2.80    0.44
 -11   4 -10    0.18    0.25
 -11  -4 -10    0.18    0.24
 -11   4 -11    1.33    0.36
 -11  -4 -11    1.42    0.35
 -11   4 -12    0.25    0.26
 -11  -4 -12    0.05    0.25
 -11   4 -13    0.68    0.34
 -11  -4 -13    0.19    0.29
 -11   4 -14    1.09    0.39
 -11  -4 -14    0.64    0.35
 -11   4 -15    0.27    0.34
 -11  -4 -15    0.44    0.33
  11   5 -17    0.91    0.39
  11  -5 -17    0.88    0.44
  11   5 -16   -0.03    0.29
  11  -5 -16   -0.13    0.33
  11   5 -15   -0.24    0.26
 -11   5  15    0.17    0.26
  11  -5 -15    0.24    0.33
  11   5 -14    0.54    0.31
  11   5 -14    0.24    0.30
 -11   5  14    1.05    0.32
  11  -5 -14    0.49    0.34
 -11   5  13    4.84    0.55
  11   5 -13    4.02    0.56
  11   5 -13    4.52    0.55
  11  -5 -13    3.23    0.55
  11   5 -12    0.20    0.26
 -11   5  12    0.37    0.25
  11   5 -12   -0.02    0.23
  11  -5 -12    0.37    0.32
  11   5 -11    1.21    0.34
  11   5 -11    0.53    0.26
 -11   5  11    0.43    0.23
  11  -5 -11    1.02    0.35
 -11   5  10    0.37    0.22
  11   5 -10    0.48    0.25
  11   5 -10    0.34    0.23
  11  -5 -10    0.27    0.26
  11   5  -9    0.81    0.29
  11   5  -9    0.25    0.24
 -11   5   9    0.76    0.26
  11  -5  -9    0.44    0.26
  11   5  -8    1.52    0.34
 -11   5   8    1.32    0.32
  11   5  -8    1.30    0.30
  11  -5  -8    1.11    0.27
  11   5  -7    3.23    0.45
  11   5  -7    3.76    0.43
 -11   5   7    4.91    0.52
  11  -5  -7    4.84    0.44
  11   5  -6    3.02    0.44
  11   5  -6    3.60    0.40
 -11   5   6    3.13    0.42
  11   5  -5    1.71    0.28
 -11   5   5    1.34    0.30
  11   5  -5    1.29    0.31
 -11   5   4    1.57    0.31
  11   5  -4    2.30    0.30
  11   5  -4    1.63    0.34
 -11   5   3   30.43    1.24
  11   5  -3   32.58    1.28
  11   5  -3   30.64    1.11
  11   5  -2    0.04    0.20
 -11   5   2    0.11    0.19
  11   5  -2    0.22    0.17
 -11  -5   2    0.36    0.15
  11   5  -1    3.55    0.44
 -11   5   1    3.89    0.44
  11   5  -1    4.45    0.36
 -11   5   1    5.02    0.49
 -11  -5   1    4.22    0.35
 -11   5   0    0.67    0.23
 -11   5   0    0.68    0.24
  11   5   0    0.57    0.24
 -11  -5   0    0.55    0.18
  11   5   1   -0.11    0.17
 -11   5  -1    0.52    0.20
 -11   5  -1   -0.19    0.15
 -11  -5  -1    0.12    0.15
 -11   5  -2    0.54    0.23
 -11   5  -2    0.74    0.22
  11   5   2    0.31    0.22
 -11  -5  -2    0.52    0.19
 -11   5  -3    0.87    0.24
  11   5   3    1.23    0.28
 -11   5  -3    0.87    0.25
 -11  -5  -3    0.86    0.24
 -11   5  -4    1.41    0.28
 -11   5  -4    1.23    0.29
  11   5   4    1.21    0.30
 -11  -5  -4    1.18    0.27
 -11   5  -5    4.24    0.49
 -11   5  -5    4.68    0.45
  11   5   5    4.55    0.48
 -11  -5  -5    4.29    0.46
 -11   5  -6   -0.13    0.16
 -11   5  -6    0.18    0.19
  11   5   6   -0.20    0.16
 -11  -5  -6   -0.13    0.17
 -11   5  -7    2.58    0.41
  11   5   7    1.90    0.34
 -11  -5  -7    2.49    0.39
 -11   5  -8    0.39    0.25
 -11  -5  -8    0.01    0.20
 -11   5  -9    1.25    0.34
 -11  -5  -9    1.70    0.36
 -11   5 -10    5.37    0.61
 -11  -5 -10    4.29    0.54
 -11   5 -11   -0.14    0.23
 -11  -5 -11    0.08    0.25
 -11   5 -12   -0.30    0.23
 -11  -5 -12   -0.08    0.24
 -11   5 -13    0.26    0.31
 -11  -5 -13    0.40    0.32
 -11   5 -14   -0.01    0.29
 -11  -5 -14   -0.34    0.23
  11   6 -16    0.40    0.37
  11  -6 -16    0.38    0.39
  11   6 -15    0.02    0.28
 -11   6  15    0.14    0.26
  11  -6 -15    0.41    0.36
 -11   6  14    9.92    0.75
  11   6 -14   12.01    0.78
  11   6 -14    9.33    0.85
  11  -6 -14   11.82    0.86
  11   6 -13    0.20    0.29
  11   6 -13    1.02    0.33
 -11   6  13    0.96    0.32
  11  -6 -13    0.87    0.36
  11   6 -12    4.38    0.55
  11   6 -12    5.57    0.60
 -11   6  12    4.62    0.56
  11  -6 -12    4.60    0.60
 -11   6  11    0.16    0.22
  11   6 -11   -0.14    0.23
  11   6 -11    0.77    0.30
  11  -6 -11    0.26    0.29
  11   6 -10    1.83    0.38
 -11   6  10    1.92    0.39
  11   6 -10    2.49    0.41
  11  -6 -10    2.69    0.46
 -11   6   9    2.77    0.45
  11   6  -9    4.43    0.50
  11   6  -9    4.04    0.52
  11  -6  -9    4.15    0.52
  11  -6  -9    4.01    0.46
  11   6  -8    0.50    0.26
  11   6  -8    0.42    0.22
 -11   6   8    0.24    0.22
  11  -6  -8    0.16    0.24
  11   6  -7    0.34    0.24
 -11   6   7    0.33    0.23
  11   6  -7    0.49    0.23
  11  -6  -7    0.92    0.29
  11   6  -6    2.57    0.35
 -11   6   6    1.91    0.35
  11   6  -6    2.02    0.37
  11   6  -5    2.53    0.41
 -11   6   5    2.67    0.40
  11   6  -5    2.90    0.34
  11   6  -4    5.63    0.57
  11   6  -4    6.78    0.43
 -11   6   4    6.66    0.60
  11   6  -3    3.11    0.44
 -11   6   3    2.18    0.36
 -11   6   2   19.29    0.92
  11   6  -2   17.79    0.90
 -11  -6   2   18.16    0.73
 -11   6   1    0.62    0.24
 -11   6   1    0.49    0.23
  11   6  -1    0.38    0.24
 -11  -6   1    0.39    0.17
 -11   6   0    1.13    0.28
  11   6   0    1.40    0.31
 -11   6   0    1.88    0.33
 -11  -6   0    1.24    0.24
 -11   6  -1    0.31    0.21
  11   6   1    0.44    0.24
 -11   6  -1    0.27    0.21
 -11  -6  -1    0.20    0.18
 -11   6  -2    7.46    0.56
  11   6   2    6.95    0.62
 -11   6  -2    7.11    0.52
 -11  -6  -2    7.04    0.48
 -11   6  -3    0.02    0.21
 -11   6  -3    0.35    0.21
  11   6   3   -0.02    0.21
 -11  -6  -3    0.70    0.22
 -11   6  -4    6.33    0.56
 -11   6  -4    6.76    0.62
  11   6   4    6.09    0.58
 -11  -6  -4    6.71    0.50
 -11   6  -5    0.22    0.22
 -11   6  -5   -0.11    0.18
  11   6   5   -0.19    0.19
 -11  -6  -5   -0.03    0.20
 -11   6  -6    0.41    0.27
 -11   6  -6    0.51    0.22
  11   6   6    0.80    0.27
 -11  -6  -6    0.60    0.26
  11   6   7    2.61    0.40
 -11   6  -7    2.90    0.44
 -11  -6  -7    3.26    0.44
 -11   6  -8    4.41    0.56
 -11  -6  -8    5.25    0.57
 -11   6  -9   -0.17    0.18
 -11  -6  -9   -0.05    0.23
 -11   6 -10    0.66    0.30
 -11  -6 -10   -0.05    0.24
 -11   6 -11    0.04    0.28
 -11  -6 -11    0.38    0.31
 -11   6 -12    0.20    0.29
 -11  -6 -12   -0.44    0.22
 -11   6 -13   -0.23    0.24
 -11  -6 -13   -0.08    0.28
 -11   7  15    0.32    0.31
  11   7 -15    0.51    0.34
  11  -7 -15    0.62    0.39
  11   7 -14    0.35    0.32
 -11   7  14    0.26    0.26
  11  -7 -14    0.21    0.33
  11   7 -13    1.84    0.41
  11   7 -13    1.97    0.44
 -11   7  13    1.98    0.43
  11  -7 -13    2.25    0.48
  11   7 -12   -0.14    0.23
 -11   7  12    0.32    0.26
  11   7 -12    0.15    0.28
  11  -7 -12   -0.04    0.28
  11   7 -11   -0.07    0.22
  11   7 -11    0.15    0.25
 -11   7  11    0.09    0.24
  11  -7 -11   -0.05    0.26
 -11   7  10    2.43    0.44
  11   7 -10    2.13    0.37
  11   7 -10    3.16    0.48
  11  -7 -10    2.37    0.44
 -11   7   9    2.73    0.44
  11   7  -9    2.10    0.40
  11   7  -9    2.31    0.38
  11  -7  -9    2.38    0.43
  11  -7  -9    1.88    0.37
  11   7  -8   -0.04    0.23
 -11   7   8   -0.15    0.21
  11   7  -8    0.48    0.24
  11  -7  -8    0.26    0.25
  11   7  -7    5.35    0.59
 -11   7   7    5.21    0.58
  11  -7  -7    5.15    0.53
  11   7  -6    0.59    0.26
 -11   7   6    0.30    0.23
 -11   7   5    0.74    0.27
  11   7  -5    0.84    0.29
  11   7  -4    1.36    0.34
 -11   7   4    1.06    0.31
  11   7  -3    0.18    0.22
 -11   7   3   -0.04    0.20
 -11   7   2    2.07    0.38
  11   7  -2    2.51    0.41
 -11  -7   2    3.40    0.35
 -11   7   1   -0.30    0.17
 -11   7   1   -0.27    0.16
  11   7  -1    0.12    0.21
 -11  -7   1   -0.06    0.15
 -11   7   0    0.07    0.18
 -11   7   0    0.31    0.23
  11   7   0    0.47    0.25
 -11  -7   0    0.27    0.18
  11   7   1    0.43    0.25
 -11   7  -1   -0.17    0.19
 -11   7  -1    0.08    0.20
 -11  -7  -1   -0.05    0.17
 -11   7  -2    2.28    0.39
  11   7   2    2.19    0.40
 -11   7  -2    2.55    0.39
 -11  -7  -2    2.90    0.37
 -11   7  -3    3.63    0.49
 -11   7  -3    3.86    0.45
  11   7   3    3.46    0.47
 -11  -7  -3    3.70    0.43
 -11   7  -4    3.58    0.49
 -11   7  -4    2.57    0.39
  11   7   4    3.59    0.47
 -11  -7  -4    3.41    0.43
 -11   7  -5    1.40    0.33
  11   7   5    1.67    0.35
 -11   7  -5    1.08    0.29
 -11  -7  -5    1.45    0.33
 -11   7  -6    3.40    0.43
  11   7   6    4.67    0.55
 -11   7  -6    5.23    0.59
 -11  -7  -6    4.66    0.53
  11   7   7    1.17    0.34
 -11   7  -7    1.44    0.38
 -11  -7  -7    1.43    0.34
 -11   7  -8    0.57    0.29
 -11  -7  -8    0.38    0.26
 -11   7  -9   -0.17    0.23
 -11  -7  -9   -0.10    0.23
 -11   7 -10    0.00    0.24
 -11  -7 -10    0.12    0.27
 -11   7 -11    1.10    0.37
 -11  -7 -11    1.90    0.44
 -11   7 -12    0.84    0.37
 -11  -7 -12    0.34    0.31
 -11   7 -13    0.74    0.38
 -11  -7 -13   -0.18    0.26
  11   8 -14    0.08    0.31
 -11   8  14   -0.18    0.25
  11  -8 -14    0.32    0.37
 -11   8  13    0.22    0.30
  11   8 -13   -0.02    0.29
  11  -8 -13   -0.30    0.32
  11   8 -12    0.50    0.33
 -11   8  12    0.23    0.29
  11  -8 -12    0.26    0.34
  11   8 -11    1.67    0.40
 -11   8  11    1.06    0.37
  11  -8 -11    1.70    0.44
  11   8 -10    2.20    0.45
 -11   8  10    2.09    0.42
  11  -8 -10    2.34    0.42
  11  -8 -10    1.97    0.42
 -11   8   9    2.00    0.43
  11   8  -9    1.85    0.41
  11  -8  -9    1.95    0.42
  11  -8  -9    2.30    0.43
 -11   8   8    0.07    0.24
  11   8  -8   -0.12    0.23
  11  -8  -8    0.28    0.28
 -11   8   7    1.49    0.37
  11   8  -7    2.30    0.45
  11  -8  -7    2.53    0.44
  11   8  -6    2.06    0.43
 -11   8   6    2.08    0.40
  11   8  -5    1.96    0.40
 -11   8   5    1.34    0.36
  11   8  -4   -0.03    0.22
 -11   8   4   -0.27    0.16
 -11   8   3    0.81    0.31
  11   8  -3    1.17    0.33
  11   8  -2    0.30    0.26
 -11   8   2    0.07    0.23
 -11   8   1    1.98    0.38
 -11   8   1    2.53    0.41
  11   8  -1    2.01    0.41
 -11  -8   1    2.92    0.36
 -11   8   0   -0.34    0.18
  11   8   0    0.52    0.27
 -11   8   0    0.04    0.22
 -11  -8   0    0.06    0.18
 -11   8  -1    0.95    0.28
 -11   8  -1    1.22    0.32
  11   8   1    1.62    0.36
 -11  -8  -1    0.81    0.25
 -11   8  -2    0.73    0.28
 -11   8  -2    0.17    0.24
  11   8   2    0.60    0.30
 -11  -8  -2    0.29    0.21
  11   8   3    0.34    0.27
 -11   8  -3    0.10    0.23
 -11   8  -3    0.15    0.22
 -11  -8  -3    0.14    0.21
  11   8   4    0.75    0.31
 -11   8  -4    1.26    0.32
 -11   8  -4    0.63    0.27
 -11  -8  -4    0.60    0.27
  11   8   5    2.27    0.41
 -11   8  -5    2.06    0.38
 -11   8  -5    1.84    0.38
 -11  -8  -5    2.46    0.41
  11   8   6   -0.02    0.25
 -11   8  -6    0.43    0.26
 -11   8  -6    0.09    0.22
 -11  -8  -6   -0.08    0.22
  11   8   7    1.88    0.42
 -11   8  -7    2.06    0.43
 -11  -8  -7    1.70    0.40
 -11   8  -8    0.47    0.30
 -11  -8  -8    0.38    0.26
 -11   8  -9   -0.11    0.24
 -11  -8  -9   -0.09    0.24
 -11   8 -10   -0.02    0.26
 -11  -8 -10   -0.13    0.26
 -11   8 -11    1.95    0.46
 -11  -8 -11    1.30    0.40
  11   9 -13    0.10    0.32
 -11   9  13    0.40    0.35
  11   9 -12    2.89    0.53
 -11   9  12    2.16    0.48
  11   9 -11    0.09    0.31
 -11   9  11    0.07    0.28
  11   9 -10    3.36    0.55
 -11   9  10    2.40    0.50
  11  -9 -10    3.93    0.56
  11  -9 -10    2.80    0.50
  11   9  -9    1.36    0.39
 -11   9   9    0.84    0.35
  11  -9  -9    0.46    0.33
  11  -9  -9    1.19    0.40
 -11   9   8    5.85    0.67
  11   9  -8    6.13    0.70
  11  -9  -8    4.73    0.59
  11   9  -7   -0.08    0.25
 -11   9   7   -0.15    0.22
  11  -9  -7   -0.03    0.27
  11   9  -6    1.40    0.38
 -11   9   6    2.91    0.50
 -11   9   5   -0.29    0.20
  11   9  -5    0.37    0.26
  11   9  -4    0.00    0.24
 -11   9   4    0.37    0.26
  11   9  -3    0.04    0.24
 -11   9   3    0.88    0.31
  11   9  -2    0.00    0.23
 -11   9   2    0.21    0.26
  11   9  -1    0.35    0.28
 -11   9   1    0.30    0.26
 -11   9   0    2.07    0.40
 -11   9   0    2.46    0.41
  11   9   0    2.79    0.48
 -11  -9   0    3.04    0.39
 -11   9  -1    0.47    0.25
  11   9   1    0.39    0.28
 -11   9  -1    0.80    0.30
 -11  -9  -1    0.92    0.28
 -11   9  -2    4.53    0.55
 -11   9  -2    3.59    0.50
  11   9   2    3.73    0.54
 -11  -9  -2    3.82    0.48
 -11   9  -3    1.60    0.37
 -11   9  -3    2.35    0.43
  11   9   3    1.83    0.41
 -11  -9  -3    1.39    0.33
 -11   9  -4    1.39    0.37
 -11   9  -4    1.31    0.36
  11   9   4    1.75    0.41
 -11  -9  -4    2.16    0.39
  11   9   5   -0.15    0.23
 -11   9  -5    0.15    0.24
 -11   9  -5   -0.14    0.20
 -11  -9  -5   -0.25    0.22
 -11   9  -6    0.17    0.26
  11   9   6    0.14    0.29
 -11   9  -6    0.37    0.28
 -11  -9  -6    0.31    0.28
  11   9   7   -0.27    0.26
 -11   9  -7    0.18    0.28
 -11  -9  -7    0.38    0.29
 -11   9  -8    2.02    0.47
 -11  -9  -8    1.90    0.45
 -11   9  -9    1.19    0.40
 -11  -9  -9    1.80    0.42
 -11   9 -10    2.32    0.49
 -11  -9 -10    1.55    0.43
  11  10 -11    1.57    0.46
 -11  10  11    1.00    0.43
 -11  10  10    0.61    0.35
  11  10 -10    0.82    0.38
  11 -10 -10    1.46    0.43
 -11  10   9    2.59    0.51
  11  10  -9    1.89    0.47
  11 -10  -9    3.48    0.56
  11  10  -8    0.72    0.36
 -11  10   8    0.71    0.37
  11 -10  -8    0.56    0.38
 -11  10   7    0.08    0.30
  11  10  -7   -0.04    0.28
  11 -10  -7   -0.02    0.34
  11  10  -6    0.37    0.29
 -11  10   6    0.39    0.31
  11 -10  -6    0.52    0.35
 -11  10   5   -0.10    0.24
  11  10  -5    0.00    0.27
 -11  10   4    1.56    0.40
  11  10  -4    0.96    0.35
  11  10  -3    2.06    0.45
 -11  10   3    2.06    0.44
  11  10  -2    2.35    0.48
 -11  10   2    3.85    0.54
  11  10  -1    7.38    0.78
 -11  10   1    8.28    0.76
 -11  10   0    0.07    0.26
  11  10   0    0.82    0.35
 -11  10   0    0.26    0.26
 -11 -10   0    0.59    0.27
  11  10   1    3.19    0.53
 -11  10  -1    3.41    0.51
 -11  10  -1    3.03    0.48
 -11 -10  -1    3.80    0.47
 -11  10  -2    0.27    0.29
  11  10   2    0.71    0.33
 -11  10  -2    0.81    0.32
 -11 -10  -2    0.89    0.31
 -11  10  -3    4.00    0.54
  11  10   3    2.33    0.49
 -11  10  -3    4.14    0.56
 -11 -10  -3    3.57    0.49
  11  10   4    0.90    0.38
 -11  10  -4    0.92    0.35
 -11  10  -4    1.22    0.37
 -11 -10  -4    0.87    0.33
 -11  10  -5    0.79    0.35
  11  10   5    0.67    0.35
 -11  10  -5    0.64    0.34
 -11 -10  -5    0.48    0.30
 -11  10  -6    0.60    0.31
  11  10   6    0.33    0.32
 -11 -10  -6    0.41    0.29
 -11  10  -7   -0.07    0.27
  11  10   7   -0.10    0.29
 -11 -10  -7    0.08    0.29
 -11  10  -8    1.62    0.44
 -11 -10  -8    1.31    0.41
 -11  11   9    1.62    0.47
  11  11  -9    0.50    0.36
  11 -11  -9    0.09    0.36
 -11  11   8    0.77    0.38
  11  11  -8    1.50    0.45
  11 -11  -8    0.79    0.40
 -11  11   7   -0.03    0.31
  11  11  -7    0.54    0.35
  11 -11  -7    0.77    0.39
 -11  11   6    0.48    0.35
  11  11  -6    0.25    0.32
  11 -11  -6    0.00    0.34
  11  11  -5    2.52    0.52
 -11  11   5    2.47    0.49
  11  11  -4    0.68    0.36
 -11  11   4    1.34    0.40
  11  11  -3    0.10    0.30
 -11  11   3    0.01    0.26
 -11  11   2    1.63    0.42
  11  11  -2    1.50    0.43
  11  11  -1    1.44    0.43
 -11  11   1    1.67    0.42
  11  11   0    0.07    0.30
 -11  11   0    0.06    0.28
 -11  11  -1    1.39    0.38
  11  11   1    0.89    0.39
 -11  11  -1    1.08    0.38
 -11 -11  -1    2.21    0.43
 -11  11  -2    1.42    0.41
 -11  11  -2    1.01    0.37
  11  11   2    1.13    0.43
 -11 -11  -2    1.20    0.35
 -11  11  -3    0.14    0.29
 -11  11  -3    0.44    0.32
  11  11   3    0.20    0.35
 -11 -11  -3    0.23    0.30
  11  11   4    0.49    0.37
 -11  11  -4    0.31    0.30
 -11  11  -4    0.29    0.30
 -11 -11  -4    0.06    0.28
  11  11   5   -0.06    0.33
 -11  11  -5    0.25    0.30
 -11  11  -5   -0.08    0.28
 -11 -11  -5   -0.21    0.28
  11  11   6   -0.02    0.32
 -11  11  -6    0.08    0.34
 -11 -11  -6    0.25    0.31
  11  12  -5    0.48    0.38
 -11  12   5    0.53    0.35
  11 -12  -5   -0.10    0.33
 -11  12   4    0.59    0.36
  11  12  -4    0.80    0.41
 -11  12   3    0.01    0.29
  11  12  -3    0.15    0.31
  11  12  -2    0.58    0.36
 -11  12   2    0.36    0.33
 -11  12   1   -0.27    0.27
  11  12  -1    0.15    0.32
  11  12   0    1.41    0.45
 -11  12   0    0.75    0.37
  11  12   1   -0.50    0.28
 -11  12  -1    0.45    0.33
 -11  12  -2    0.10    0.31
  11  12   2    0.01    0.33
 -11 -12  -2    0.78    0.36
  12   0 -18    0.63    0.41
  12   0 -17   -0.08    0.28
  12   0 -16    1.38    0.44
  12   0 -15    0.33    0.29
 -12   0  15   -0.19    0.19
  12   0 -14    0.22    0.27
 -12   0  14    0.22    0.21
  12   0 -13    0.17    0.27
 -12   0  13   -0.20    0.17
  12   0 -12    0.06    0.24
 -12   0  12   -0.11    0.17
 -12   0  11    0.06    0.17
  12   0 -11    0.16    0.25
 -12   0  10    0.51    0.21
  12   0 -10    0.50    0.27
 -12   0   9   -0.06    0.15
  12   0  -9    0.19    0.23
 -12   0   8    0.50    0.19
  12   0  -8    1.81    0.35
  12   0  -7    0.12    0.21
 -12   0   7   -0.09    0.15
 -12   0   6    0.53    0.20
 -12   0   5   -0.04    0.15
 -12   0   4   16.90    0.79
 -12   0   3   -0.27    0.14
 -12   0   2    3.64    0.39
 -12   0   1   -0.24    0.11
 -12   0   0    0.02    0.13
 -12   0  -1   -0.13    0.13
 -12   0  -1   -0.05    0.13
 -12   0  -2   24.51    0.99
 -12   0  -2   24.19    0.94
 -12   0  -3    0.29    0.18
 -12   0  -3    0.07    0.14
 -12   0  -3    0.01    0.16
 -12   0  -4    7.20    0.50
 -12   0  -4    7.18    0.49
 -12   0  -4    7.82    0.46
 -12   0  -5    0.29    0.20
 -12   0  -5    0.05    0.16
 -12   0  -5   -0.04    0.13
 -12   0  -6   17.86    0.86
 -12   0  -6   18.22    0.76
 -12   0  -6   19.22    0.88
 -12   0  -7   -0.06    0.18
 -12   0  -7   -0.14    0.17
 -12   0  -8    3.26    0.41
 -12   0  -8    2.28    0.38
 -12   0  -9   -0.08    0.19
 -12   0  -9   -0.10    0.20
 -12   0 -10    0.23    0.21
 -12   0 -10    0.10    0.22
 -12   0 -11    0.14    0.25
 -12   0 -11   -0.16    0.21
 -12   0 -12    4.16    0.56
 -12   0 -12    4.01    0.51
 -12   0 -13    0.13    0.27
 -12   0 -13   -0.14    0.25
 -12   0 -14   24.98    1.29
 -12   0 -14   26.36    1.28
 -12   0 -15    0.26    0.31
 -12   0 -15    0.19    0.30
  12   1 -18   -0.04    0.35
  12  -1 -18   -0.30    0.29
  12   1 -17    1.44    0.47
  12  -1 -17    0.63    0.38
  12   1 -16    0.54    0.34
  12  -1 -16    0.06    0.30
 -12   1  15    6.46    0.59
  12   1 -15    5.19    0.65
  12  -1 -15    6.10    0.73
 -12  -1  15    6.32    0.58
 -12   1  14    1.57    0.31
  12   1 -14    0.77    0.35
 -12  -1  14    1.23    0.30
  12  -1 -14    1.05    0.36
  12   1 -13    0.21    0.25
 -12   1  13   -0.04    0.19
  12  -1 -13    0.13    0.28
 -12  -1  13   -0.04    0.16
  12   1 -12    1.75    0.39
 -12   1  12    1.33    0.29
  12  -1 -12    2.15    0.44
 -12  -1  12    1.68    0.31
  12   1 -11    0.49    0.27
 -12   1  11    1.10    0.28
  12  -1 -11    0.53    0.27
 -12  -1  11    0.69    0.24
 -12   1  10    1.40    0.29
  12   1 -10    1.32    0.33
  12  -1 -10    0.94    0.30
 -12  -1  10    1.29    0.28
  12   1  -9    8.00    0.62
 -12   1   9    8.37    0.57
  12  -1  -9    8.38    0.64
 -12  -1   9    9.33    0.59
 -12   1   8   17.33    0.82
  12   1  -8   15.62    0.84
  12  -1  -8   13.90    0.81
 -12  -1   8   16.33    0.80
  12   1  -7   10.11    0.64
 -12   1   7    9.40    0.59
  12  -1  -7    7.95    0.59
 -12  -1   7    8.90    0.57
 -12   1   6    8.37    0.55
  12   1  -6    7.00    0.54
 -12  -1   6    7.42    0.51
 -12   1   5    9.20    0.58
 -12  -1   5   10.35    0.60
 -12   1   4   32.39    1.25
 -12  -1   4   34.50    1.26
 -12   1   3    0.36    0.19
 -12  -1   3    0.29    0.18
 -12   1   2    3.92    0.41
 -12  -1   2    4.08    0.41
 -12   1   1    0.34    0.18
 -12  -1   1   -0.06    0.13
 -12   1   0   10.71    0.58
 -12   1   0    8.87    0.53
 -12  -1   0    9.31    0.47
 -12  -1   0    8.37    0.52
 -12   1  -1    5.86    0.50
 -12   1  -1    5.73    0.42
 -12  -1  -1    5.85    0.38
 -12  -1  -1    5.44    0.41
 -12  -1  -1    5.70    0.42
 -12   1  -2    0.07    0.16
 -12   1  -2    0.00    0.17
 -12  -1  -2   -0.04    0.15
 -12  -1  -2   -0.18    0.11
 -12  -1  -2    0.05    0.15
 -12   1  -3   10.73    0.63
 -12   1  -3   10.11    0.55
 -12  -1  -3   11.20    0.56
 -12  -1  -3    9.92    0.57
 -12  -1  -3    9.75    0.55
 -12   1  -4    1.44    0.29
 -12   1  -4    1.33    0.23
 -12  -1  -4    1.47    0.27
 -12  -1  -4    1.14    0.23
 -12  -1  -4    1.03    0.25
 -12   1  -5   11.75    0.57
 -12   1  -5   12.64    0.67
 -12  -1  -5   11.49    0.63
 -12  -1  -5   11.95    0.64
 -12  -1  -5   10.82    0.57
  12   1   6    6.99    0.45
 -12   1  -6    5.79    0.53
 -12   1  -6    6.11    0.42
 -12  -1  -6    5.38    0.52
 -12  -1  -6    7.00    0.49
 -12   1  -7    8.61    0.60
 -12  -1  -7    9.15    0.60
 -12  -1  -7    8.33    0.56
 -12   1  -8   17.80    0.89
 -12  -1  -8   16.45    0.82
 -12  -1  -8   15.28    0.83
 -12   1  -9    2.02    0.37
 -12  -1  -9    2.25    0.37
 -12  -1  -9    2.38    0.39
 -12   1 -10   -0.11    0.20
 -12  -1 -10    0.29    0.23
 -12  -1 -10   -0.14    0.20
 -12   1 -11    1.31    0.34
 -12  -1 -11    2.41    0.43
 -12  -1 -11    1.16    0.32
 -12   1 -12    0.44    0.29
 -12  -1 -12    0.52    0.30
 -12  -1 -12    0.22    0.25
 -12   1 -13    5.42    0.63
 -12  -1 -13    4.26    0.58
 -12  -1 -13    3.98    0.51
 -12   1 -14    2.65    0.49
 -12  -1 -14    2.83    0.52
 -12   1 -15    0.29    0.33
 -12  -1 -15    0.86    0.37
  12   2 -18    0.55    0.40
  12  -2 -18    0.52    0.39
  12   2 -17   -0.10    0.32
  12  -2 -17   -0.46    0.29
  12   2 -16    1.59    0.43
  12  -2 -16    2.07    0.50
  12   2 -15    0.10    0.30
 -12   2  15   -0.25    0.20
  12  -2 -15   -0.32    0.27
  12   2 -14    0.44    0.30
 -12   2  14   -0.01    0.20
  12   2 -14   -0.10    0.24
  12  -2 -14    0.68    0.33
 -12  -2  14   -0.10    0.20
 -12   2  13    0.04    0.22
  12   2 -13    0.59    0.30
  12  -2 -13    0.33    0.30
 -12  -2  13    0.48    0.22
  12   2 -12    0.05    0.23
 -12   2  12    0.01    0.19
  12  -2 -12   -0.06    0.23
 -12  -2  12    0.16    0.18
 -12   2  11    0.13    0.20
  12   2 -11    0.39    0.26
 -12  -2  11   -0.11    0.16
  12  -2 -11   -0.04    0.23
  12   2 -10    1.13    0.33
 -12   2  10    1.32    0.28
 -12  -2  10    1.85    0.32
  12  -2 -10    2.09    0.41
  12   2  -9   12.81    0.79
 -12   2   9   14.45    0.76
 -12  -2   9   14.42    0.75
  12  -2  -9   14.37    0.83
  12   2  -8   10.94    0.69
 -12   2   8   10.22    0.64
  12  -2  -8   10.65    0.68
 -12  -2   8   11.35    0.64
  12   2  -7    2.46    0.38
 -12   2   7    1.98    0.34
 -12  -2   7    2.73    0.36
 -12   2   6    0.57    0.22
  12   2  -6    0.15    0.21
 -12  -2   6    0.27    0.18
 -12   2   5   14.38    0.74
  12   2  -5   14.03    0.73
 -12  -2   5   14.26    0.72
 -12   2   4    0.58    0.22
 -12  -2   4    0.34    0.19
 -12   2   3    9.34    0.59
 -12  -2   3   11.32    0.61
 -12   2   2    6.40    0.48
 -12  -2   2    7.50    0.36
 -12  -2   2    6.76    0.46
 -12   2   1    9.80    0.57
 -12  -2   1    9.28    0.55
 -12  -2   1   10.01    0.46
 -12   2   0    2.23    0.32
 -12   2   0    2.73    0.34
 -12  -2   0    1.86    0.29
 -12  -2   0    3.22    0.30
 -12   2  -1   -0.05    0.14
 -12   2  -1    0.14    0.16
 -12  -2  -1    0.14    0.14
 -12  -2  -1   -0.05    0.14
 -12   2  -2    7.37    0.48
 -12   2  -2    8.22    0.55
 -12  -2  -2    8.18    0.51
 -12  -2  -2    8.62    0.48
 -12  -2  -2    7.64    0.47
 -12   2  -3   21.02    0.96
  12   2   3   22.73    0.92
 -12   2  -3   20.75    0.87
 -12  -2  -3   20.81    0.86
 -12  -2  -3   21.13    0.87
 -12  -2  -3   20.74    0.88
 -12   2  -4   16.36    0.84
  12   2   4   17.96    0.78
 -12   2  -4   16.70    0.74
 -12  -2  -4   16.87    0.77
 -12  -2  -4   16.95    0.77
 -12   2  -5    2.36    0.30
  12   2   5    2.27    0.31
 -12   2  -5    1.87    0.33
 -12  -2  -5    2.69    0.34
 -12  -2  -5    2.33    0.33
  12   2   6    0.00    0.16
 -12   2  -6    0.24    0.20
 -12   2  -6    0.12    0.14
 -12  -2  -6    0.13    0.17
 -12  -2  -6    0.00    0.17
 -12  -2  -7   16.07    0.81
 -12  -2  -7   14.93    0.75
 -12   2  -8    0.09    0.20
 -12  -2  -8   -0.20    0.18
 -12  -2  -8    0.35    0.23
 -12   2  -9    0.31    0.25
 -12  -2  -9    0.50    0.24
 -12  -2  -9    0.64    0.27
 -12   2 -10    2.21    0.39
 -12  -2 -10    2.25    0.41
 -12  -2 -10    2.27    0.38
 -12   2 -11    0.90    0.32
 -12  -2 -11    0.80    0.28
 -12  -2 -11    1.36    0.36
 -12   2 -12    4.61    0.59
 -12  -2 -12    5.30    0.62
 -12   2 -13    0.13    0.29
 -12  -2 -13    0.14    0.30
 -12   2 -14    0.39    0.33
 -12  -2 -14    0.58    0.33
 -12   2 -15   11.79    0.88
 -12  -2 -15   10.70    0.96
  12   3 -18   -0.16    0.31
  12  -3 -18   -0.21    0.34
  12   3 -17    0.07    0.32
  12  -3 -17   -0.44    0.30
  12   3 -16   -0.06    0.29
  12  -3 -16    0.15    0.34
 -12   3  15    0.14    0.24
  12   3 -15   -0.13    0.27
  12  -3 -15   -0.47    0.25
  12   3 -14    0.21    0.29
 -12   3  14    0.44    0.27
  12   3 -14    0.78    0.31
  12  -3 -14    0.52    0.32
  12   3 -13    0.48    0.26
 -12   3  13    0.37    0.25
  12   3 -13    0.41    0.30
  12  -3 -13    0.56    0.32
 -12   3  12    0.25    0.22
  12   3 -12    0.75    0.27
  12   3 -12    0.39    0.26
  12  -3 -12    0.41    0.30
  12   3 -11   -0.08    0.22
 -12   3  11   -0.13    0.18
  12   3 -11    0.24    0.24
 -12  -3  11    0.28    0.20
  12  -3 -11   -0.36    0.16
  12   3 -10    1.04    0.28
 -12   3  10    1.19    0.30
  12   3 -10    0.64    0.29
 -12  -3  10    0.78    0.25
  12  -3 -10    1.31    0.34
 -12   3   9    0.27    0.20
  12   3  -9    0.13    0.20
  12   3  -9    0.06    0.20
 -12  -3   9    0.32    0.20
  12  -3  -9    0.24    0.23
  12   3  -8    4.05    0.47
 -12   3   8    3.74    0.44
  12  -3  -8    4.22    0.49
 -12  -3   8    4.77    0.49
 -12   3   7   -0.09    0.15
  12   3  -7   -0.18    0.18
 -12  -3   7   -0.01    0.16
  12   3  -6    0.64    0.23
 -12   3   6    0.48    0.20
 -12  -3   6    0.36    0.19
 -12   3   5    2.54    0.37
  12   3  -5    2.11    0.33
 -12  -3   5    2.71    0.36
  12   3  -4   10.61    0.61
 -12   3   4   10.41    0.63
 -12  -3   4   11.00    0.63
 -12   3   3    2.86    0.37
 -12  -3   3    3.48    0.41
 -12   3   2   20.74    0.90
  12   3  -2   17.16    0.85
 -12  -3   2   19.01    0.69
 -12  -3   2   20.48    0.89
  12   3  -1    0.70    0.23
 -12   3   1    0.53    0.22
 -12   3   1    0.57    0.22
 -12  -3   1    0.18    0.14
 -12  -3   1    0.22    0.17
  12   3   0    0.28    0.19
 -12   3   0    0.39    0.20
 -12   3   0    0.28    0.19
 -12  -3   0    0.08    0.16
 -12  -3   0    0.57    0.18
 -12   3  -1    0.42    0.20
  12   3   1    0.53    0.21
 -12   3  -1    0.58    0.20
 -12  -3  -1    0.11    0.16
  12   3   2    0.25    0.20
 -12   3  -2    0.56    0.20
 -12   3  -2    0.60    0.22
 -12  -3  -2    0.05    0.16
 -12   3  -3    9.30    0.62
 -12   3  -3    9.06    0.54
  12   3   3    9.56    0.57
 -12  -3  -3    9.09    0.53
 -12  -3  -3   10.16    0.53
  12   3   4    0.92    0.25
 -12   3  -4    1.35    0.25
 -12   3  -4    1.59    0.31
 -12  -3  -4    1.18    0.27
 -12  -3  -4    1.14    0.23
 -12   3  -5    2.42    0.37
  12   3   5    2.20    0.32
 -12   3  -5    1.97    0.28
 -12  -3  -5    2.37    0.31
 -12  -3  -5    3.20    0.39
 -12   3  -6    0.37    0.17
 -12   3  -6    0.50    0.24
  12   3   6    0.82    0.23
 -12  -3  -6    0.39    0.23
 -12  -3  -6    0.43    0.19
 -12   3  -7    5.88    0.58
  12   3   7    5.46    0.47
 -12  -3  -7    4.83    0.45
 -12  -3  -7    6.17    0.57
 -12   3  -8    3.17    0.45
 -12  -3  -8    2.93    0.42
 -12   3  -9   -0.13    0.19
 -12  -3  -9    0.10    0.20
 -12   3 -10    0.00    0.21
 -12  -3 -10    0.19    0.24
 -12   3 -11    0.53    0.27
 -12  -3 -11    1.13    0.33
 -12   3 -12    0.72    0.30
 -12  -3 -12    0.12    0.27
 -12   3 -13    0.19    0.30
 -12  -3 -13    0.69    0.33
 -12   3 -14   -0.22    0.26
 -12  -3 -14   -0.08    0.26
  12   4 -17   -0.04    0.30
  12  -4 -17   -0.12    0.33
  12   4 -16    0.64    0.36
  12  -4 -16    0.61    0.38
  12   4 -15    1.94    0.46
 -12   4  15    2.62    0.44
  12  -4 -15    1.44    0.44
 -12   4  14    0.72    0.28
  12   4 -14    0.16    0.28
  12   4 -14    0.61    0.29
  12  -4 -14    0.58    0.33
 -12   4  13    2.68    0.43
  12   4 -13    4.07    0.53
  12   4 -13    3.42    0.52
  12  -4 -13    4.02    0.59
  12   4 -12    0.83    0.31
  12   4 -12    0.39    0.24
 -12   4  12    0.61    0.25
  12  -4 -12    0.58    0.29
  12   4 -11    1.50    0.34
  12   4 -11    1.22    0.34
 -12   4  11    1.41    0.31
  12  -4 -11    1.15    0.34
  12   4 -10    1.57    0.36
 -12   4  10    1.04    0.30
  12   4 -10    2.07    0.38
  12  -4 -10    1.88    0.38
  12   4  -9   10.28    0.67
  12   4  -9   10.42    0.67
 -12   4   9    8.99    0.64
  12  -4  -9    8.42    0.74
  12   4  -8    0.23    0.22
 -12   4   8   -0.04    0.19
  12   4  -8   -0.14    0.20
  12   4  -7    6.53    0.58
 -12   4   7    6.51    0.58
  12   4  -7    6.87    0.61
  12   4  -6    0.49    0.23
 -12   4   6    0.55    0.24
  12   4  -6    0.97    0.26
 -12   4   5   -0.06    0.16
  12   4  -5    0.04    0.18
  12   4  -5    0.10    0.18
  12   4  -4    3.89    0.40
 -12   4   4    2.71    0.38
  12   4  -4    3.71    0.45
  12   4  -3    8.07    0.59
 -12   4   3   10.42    0.62
  12   4  -3    8.35    0.52
  12   4  -2    8.62    0.58
  12   4  -2    7.60    0.47
 -12   4   2    5.79    0.53
 -12  -4   2    7.76    0.40
 -12   4   1    8.38    0.56
 -12   4   1    7.92    0.57
  12   4  -1    9.41    0.60
 -12  -4   1    8.35    0.44
 -12   4   0    0.31    0.19
 -12   4   0    0.30    0.19
  12   4   0    0.22    0.20
 -12  -4   0    0.18    0.15
 -12   4  -1    0.18    0.17
 -12   4  -1   -0.03    0.16
  12   4   1   -0.10    0.18
 -12  -4  -1   -0.11    0.14
 -12   4  -2    3.12    0.38
 -12   4  -2    2.87    0.40
  12   4   2    4.05    0.45
 -12  -4  -2    3.36    0.36
 -12   4  -3    8.07    0.54
  12   4   3    8.50    0.55
 -12   4  -3    8.34    0.60
 -12  -4  -3    7.91    0.52
 -12   4  -4   14.42    0.79
  12   4   4   13.87    0.73
 -12   4  -4   14.32    0.70
 -12  -4  -4   13.36    0.70
  12   4   5    9.60    0.59
 -12   4  -5    9.62    0.63
 -12   4  -5    8.93    0.54
 -12  -4  -5    8.98    0.58
 -12   4  -6    0.08    0.19
  12   4   6   -0.05    0.17
 -12   4  -6    0.12    0.16
 -12  -4  -6    0.10    0.20
  12   4   7    0.16    0.20
 -12   4  -7    0.25    0.24
 -12  -4  -7   -0.10    0.18
 -12   4  -8    3.21    0.47
 -12  -4  -8    3.81    0.48
 -12   4  -9    1.99    0.40
 -12  -4  -9    2.68    0.42
 -12   4 -10   -0.21    0.21
 -12  -4 -10   -0.18    0.22
 -12   4 -11    0.56    0.30
 -12  -4 -11   -0.02    0.24
 -12   4 -12    0.19    0.29
 -12  -4 -12    0.62    0.30
 -12   4 -13    3.60    0.54
 -12  -4 -13    2.72    0.48
 -12   4 -14    0.14    0.32
 -12  -4 -14    0.54    0.31
  12   5 -17    0.65    0.41
  12  -5 -17   -0.08    0.37
  12   5 -16    0.21    0.33
  12  -5 -16   -0.21    0.33
 -12   5  15    1.66    0.39
  12   5 -15    0.94    0.38
  12  -5 -15    1.06    0.42
  12   5 -14    2.66    0.50
  12   5 -14    3.21    0.50
 -12   5  14    3.19    0.47
  12  -5 -14    3.16    0.55
 -12   5  13    0.57    0.27
  12   5 -13    0.30    0.30
  12   5 -13    0.79    0.31
  12  -5 -13    0.22    0.30
 -12   5  12   -0.09    0.20
  12   5 -12   -0.10    0.25
  12   5 -12   -0.37    0.22
  12  -5 -12    0.19    0.25
  12   5 -11    0.48    0.29
  12   5 -11    1.09    0.33
 -12   5  11    0.99    0.32
  12  -5 -11    0.81    0.33
  12   5 -10    0.90    0.31
  12   5 -10    0.93    0.31
 -12   5  10    0.79    0.28
  12  -5 -10    0.85    0.32
  12   5  -9    0.17    0.25
 -12   5   9    0.47    0.24
  12   5  -9    0.61    0.27
  12  -5  -9    0.62    0.29
  12   5  -8    1.89    0.35
 -12   5   8    2.37    0.39
  12   5  -8    2.10    0.40
  12   5  -7    5.44    0.52
 -12   5   7    5.50    0.56
  12   5  -7    6.01    0.60
  12  -5  -7    5.64    0.49
  12   5  -6    2.89    0.44
  12   5  -6    3.58    0.41
 -12   5   6    3.10    0.43
  12   5  -5    0.46    0.21
  12   5  -5    0.38    0.25
 -12   5   5    0.92    0.27
 -12   5   4    3.53    0.44
  12   5  -4    3.54    0.46
  12   5  -4    3.54    0.38
  12   5  -3    1.07    0.24
 -12   5   3    0.67    0.25
  12   5  -3    1.28    0.31
  12   5  -2    1.36    0.31
  12   5  -2    1.42    0.25
 -12   5   2    1.01    0.29
 -12   5   1    3.47    0.43
  12   5  -1    3.84    0.46
 -12   5   1    4.46    0.48
 -12  -5   1    4.74    0.38
 -12   5   0    0.09    0.19
 -12   5   0   -0.21    0.15
  12   5   0   -0.16    0.18
 -12  -5   0   -0.06    0.13
 -12   5  -1    2.50    0.37
 -12   5  -1    2.43    0.36
  12   5   1    2.07    0.35
 -12  -5  -1    2.59    0.32
 -12   5  -2    0.50    0.23
 -12   5  -2    0.27    0.21
  12   5   2    0.37    0.22
 -12  -5  -2    0.29    0.18
 -12   5  -3    2.30    0.34
 -12   5  -3    2.24    0.37
  12   5   3    2.58    0.38
 -12  -5  -3    2.73    0.35
  12   5   4    0.08    0.20
 -12   5  -4    0.03    0.18
 -12   5  -4    0.06    0.17
 -12  -5  -4   -0.04    0.16
  12   5   5   10.23    0.64
 -12   5  -5   11.36    0.72
 -12   5  -5   10.78    0.62
 -12  -5  -5   10.24    0.65
  12   5   6    2.24    0.36
 -12   5  -6    2.49    0.34
 -12   5  -6    1.02    0.31
 -12  -5  -6    2.49    0.38
  12   5   7    1.27    0.30
 -12   5  -7    0.87    0.29
 -12  -5  -7    1.13    0.31
 -12   5  -8    0.46    0.26
 -12  -5  -8   -0.03    0.21
 -12   5  -9    0.07    0.24
 -12  -5  -9    0.07    0.25
 -12   5 -10    0.11    0.26
 -12  -5 -10    0.31    0.26
 -12   5 -11    0.31    0.27
 -12  -5 -11    0.35    0.29
 -12   5 -12    0.49    0.31
 -12  -5 -12    0.18    0.30
 -12   5 -13    0.96    0.36
 -12  -5 -13    1.59    0.42
  12   6 -16    3.24    0.58
  12  -6 -16    5.32    0.71
  12   6 -15    0.35    0.35
 -12   6  15    0.20    0.28
  12  -6 -15    0.11    0.33
 -12   6  14    0.07    0.26
  12   6 -14    0.69    0.34
  12   6 -14   -0.21    0.28
  12  -6 -14    0.61    0.37
  12   6 -13    1.07    0.38
 -12   6  13    0.72    0.31
  12   6 -13    0.19    0.29
  12  -6 -13    1.05    0.40
  12   6 -12    0.81    0.31
 -12   6  12    0.19    0.27
  12   6 -12    0.63    0.31
  12  -6 -12    0.24    0.30
 -12   6  11    0.19    0.24
  12   6 -11    0.46    0.29
  12   6 -11    0.68    0.28
  12  -6 -11    0.49    0.31
  12   6 -10    2.52    0.44
  12   6 -10    1.98    0.39
 -12   6  10    1.51    0.36
  12  -6 -10    2.30    0.45
 -12   6   9    6.92    0.66
  12   6  -9    6.58    0.62
  12   6  -9    5.53    0.61
  12  -6  -9    5.78    0.63
  12   6  -8    9.04    0.63
  12   6  -8    9.62    0.69
 -12   6   8   10.15    0.71
  12  -6  -8    9.48    0.61
  12   6  -7    3.14    0.47
  12   6  -7    2.70    0.37
 -12   6   7    2.52    0.41
  12  -6  -7    2.31    0.37
  12   6  -6    7.49    0.68
 -12   6   6    6.48    0.62
  12   6  -6    8.31    0.54
  12   6  -5    0.97    0.28
  12   6  -5    0.59    0.22
 -12   6   5    0.45    0.23
  12   6  -4    5.46    0.58
 -12   6   4    6.64    0.61
 -12   6   3    5.30    0.54
  12   6  -3    4.84    0.54
 -12   6   2    1.29    0.30
  12   6  -2    0.92    0.29
 -12   6   1    0.01    0.18
  12   6  -1    0.03    0.20
 -12   6   1    0.19    0.20
 -12  -6   1    0.37    0.18
 -12   6   0    3.84    0.46
  12   6   0    5.15    0.54
 -12   6   0    3.80    0.48
 -12  -6   0    4.94    0.42
  12   6   1    0.75    0.26
 -12   6  -1    1.07    0.29
 -12   6  -1    1.19    0.29
 -12  -6  -1    1.24    0.26
  12   6   2   -0.07    0.20
 -12   6  -2    0.05    0.18
 -12   6  -2   -0.08    0.18
 -12  -6  -2   -0.05    0.15
 -12   6  -3    0.86    0.26
  12   6   3    0.54    0.25
 -12   6  -3    0.69    0.27
 -12  -6  -3    0.46    0.22
 -12   6  -4   11.77    0.75
 -12   6  -4   10.44    0.65
  12   6   4    9.92    0.67
 -12  -6  -4   10.53    0.64
 -12   6  -5    2.18    0.34
 -12   6  -5    1.85    0.38
  12   6   5    2.76    0.41
 -12  -6  -5    2.95    0.42
  12   6   6    0.97    0.29
 -12   6  -6    0.74    0.24
 -12   6  -6    0.59    0.29
 -12  -6  -6    0.74    0.27
  12   6   7    2.10    0.39
 -12   6  -7    1.67    0.38
 -12  -6  -7    1.41    0.35
 -12   6  -8   -0.18    0.21
 -12  -6  -8   -0.12    0.21
 -12   6  -9    0.40    0.28
 -12  -6  -9   -0.43    0.18
 -12   6 -10    1.47    0.39
 -12  -6 -10    1.09    0.35
 -12   6 -11    0.34    0.30
 -12  -6 -11   -0.08    0.26
 -12   6 -12    6.02    0.70
 -12  -6 -12    6.42    0.72
 -12   6 -13    1.65    0.43
 -12  -6 -13    1.57    0.44
 -12   7  15    0.65    0.33
  12   7 -15    0.55    0.36
  12  -7 -15    0.38    0.37
  12   7 -14   -0.15    0.28
  12   7 -14   -0.07    0.29
 -12   7  14    0.19    0.30
  12  -7 -14    0.09    0.33
  12   7 -13   -0.02    0.30
 -12   7  13   -0.04    0.24
  12   7 -13    0.19    0.31
  12  -7 -13    0.08    0.33
  12   7 -12   -0.02    0.25
 -12   7  12    0.51    0.31
  12   7 -12    0.35    0.28
  12  -7 -12   -0.26    0.28
  12   7 -11    2.75    0.48
  12   7 -11    2.81    0.45
 -12   7  11    2.21    0.44
  12  -7 -11    1.73    0.44
  12   7 -10    0.16    0.25
 -12   7  10    0.23    0.25
  12   7 -10   -0.27    0.23
  12  -7 -10    0.12    0.26
  12   7  -9    0.96    0.35
 -12   7   9    0.71    0.32
  12  -7  -9    0.71    0.30
 -12   7   8    2.78    0.46
  12   7  -8    2.89    0.47
  12  -7  -8    3.29    0.47
  12   7  -7    1.74    0.39
 -12   7   7    2.24    0.42
  12  -7  -7    2.60    0.42
 -12   7   6    0.06    0.22
  12   7  -6    0.28    0.25
 -12   7   5    0.87    0.29
  12   7  -5    0.45    0.26
  12   7  -4    0.46    0.26
 -12   7   4    0.59    0.25
 -12   7   3    0.30    0.22
  12   7  -3    0.07    0.21
  12   7  -2    3.86    0.50
 -12   7   2    3.48    0.46
 -12   7   1    0.94    0.29
  12   7  -1    1.00    0.32
 -12   7   1    1.29    0.33
 -12  -7   1    1.24    0.25
 -12   7   0    1.58    0.34
  12   7   0    1.56    0.36
 -12   7   0    1.89    0.36
 -12  -7   0    1.50    0.28
 -12   7  -1    6.22    0.63
 -12   7  -1    6.57    0.61
  12   7   1    6.70    0.64
 -12  -7  -1    6.78    0.49
  12   7   2    3.16    0.48
 -12   7  -2    3.43    0.48
 -12   7  -2    3.87    0.47
 -12  -7  -2    3.83    0.43
 -12   7  -3    0.38    0.26
  12   7   3    1.69    0.38
 -12   7  -3    0.51    0.25
 -12  -7  -3    0.79    0.26
 -12   7  -4   -0.08    0.20
 -12   7  -4   -0.07    0.19
  12   7   4    0.28    0.26
 -12  -7  -4   -0.24    0.18
 -12   7  -5   -0.13    0.21
  12   7   5   -0.01    0.22
 -12   7  -5    0.03    0.20
 -12  -7  -5    0.10    0.22
 -12   7  -6   -0.34    0.20
 -12   7  -6   -0.32    0.19
  12   7   6    0.22    0.27
 -12  -7  -6   -0.03    0.20
 -12   7  -7    1.04    0.34
  12   7   7    1.27    0.33
 -12  -7  -7    0.58    0.30
 -12   7  -8   -0.14    0.23
 -12  -7  -8   -0.09    0.25
 -12   7  -9    0.50    0.32
 -12  -7  -9    0.22    0.27
 -12   7 -10    0.39    0.28
 -12  -7 -10    0.19    0.28
 -12   7 -11    8.14    0.83
 -12  -7 -11    7.28    0.76
 -12   7 -12    1.26    0.41
 -12  -7 -12    1.88    0.46
 -12   8  14    1.48    0.41
  12  -8 -14    1.37    0.46
  12   8 -13    0.61    0.38
 -12   8  13    0.66    0.33
  12  -8 -13    1.12    0.44
  12   8 -12   -0.08    0.28
 -12   8  12    0.07    0.26
  12  -8 -12   -0.19    0.29
  12   8 -11    1.07    0.38
 -12   8  11    1.60    0.43
  12  -8 -11    0.94    0.37
 -12   8  10   -0.01    0.28
  12   8 -10    0.97    0.35
  12  -8 -10    1.34    0.39
 -12   8   9    0.78    0.32
  12   8  -9    0.22    0.29
  12  -8  -9   -0.21    0.27
  12  -8  -9    0.26    0.29
 -12   8   8    0.03    0.25
  12   8  -8    0.10    0.27
  12  -8  -8    0.09    0.28
  12   8  -7    0.16    0.26
 -12   8   7   -0.05    0.23
  12  -8  -7   -0.20    0.28
  12   8  -6    1.21    0.35
 -12   8   6    1.68    0.38
  12   8  -5    1.13    0.36
 -12   8   5    0.41    0.28
 -12   8   4    1.07    0.33
  12   8  -4    1.74    0.36
  12   8  -3    3.57    0.50
 -12   8   3    2.76    0.44
  12   8  -2    1.38    0.37
 -12   8   2    1.20    0.33
 -12   8   1    0.30    0.25
 -12   8   1    0.32    0.26
  12   8  -1    0.23    0.25
  12   8   0    1.44    0.37
 -12   8   0    0.59    0.28
 -12   8   0    0.89    0.30
 -12  -8   0    0.92    0.27
 -12   8  -1    0.62    0.29
  12   8   1    0.36    0.28
 -12   8  -1    0.78    0.29
 -12  -8  -1    0.78    0.25
 -12   8  -2    1.52    0.35
  12   8   2    0.31    0.27
 -12   8  -2    1.27    0.35
 -12  -8  -2    0.55    0.25
  12   8   3    0.18    0.25
 -12   8  -3    0.26    0.24
 -12   8  -3    0.07    0.22
 -12  -8  -3    0.05    0.21
  12   8   4    0.38    0.27
 -12   8  -4    0.13    0.24
 -12   8  -4    0.38    0.24
 -12  -8  -4    0.29    0.24
  12   8   5    0.71    0.31
 -12   8  -5    0.43    0.27
 -12   8  -5   -0.10    0.21
 -12  -8  -5    0.19    0.26
 -12   8  -6    1.51    0.39
  12   8   6    0.79    0.34
 -12  -8  -6    1.17    0.33
  12   8   7    1.00    0.35
 -12   8  -7    0.84    0.33
 -12  -8  -7    0.98    0.34
 -12   8  -8    0.05    0.24
 -12  -8  -8   -0.12    0.23
 -12   8  -9    0.09    0.26
 -12  -8  -9    0.13    0.29
 -12   8 -10    1.76    0.45
 -12  -8 -10    2.71    0.49
 -12   8 -11    0.27    0.33
 -12  -8 -11    0.54    0.35
 -12   9  12    0.83    0.38
  12   9 -12    2.15    0.49
  12   9 -11    0.75    0.35
 -12   9  11    0.47    0.34
  12  -9 -11    0.10    0.34
  12   9 -10    2.33    0.49
 -12   9  10    2.61    0.50
  12  -9 -10    2.74    0.51
  12   9  -9   -0.20    0.28
 -12   9   9    0.01    0.28
  12  -9  -9    0.39    0.33
  12  -9  -9    0.38    0.33
 -12   9   8   -0.16    0.25
  12   9  -8    0.25    0.29
  12  -9  -8    0.36    0.33
 -12   9   7    0.28    0.29
  12   9  -7    0.45    0.32
  12  -9  -7    0.23    0.33
 -12   9   6    0.12    0.25
  12   9  -6    0.50    0.31
 -12   9   5    2.71    0.49
  12   9  -5    2.26    0.45
  12   9  -4    4.52    0.59
 -12   9   4    4.72    0.58
  12   9  -3    1.36    0.38
 -12   9   3    0.82    0.30
  12   9  -2    2.87    0.49
 -12   9   2    4.19    0.55
 -12   9   1    0.36    0.26
  12   9  -1    0.79    0.34
 -12   9   0    0.30    0.26
 -12   9   0    0.24    0.26
  12   9   0    0.04    0.26
  12   9   1    0.46    0.29
 -12   9  -1    0.12    0.24
 -12   9  -1    0.23    0.26
 -12  -9  -1    0.07    0.21
 -12   9  -2    0.97    0.33
 -12   9  -2    1.04    0.34
  12   9   2    0.88    0.34
 -12  -9  -2    0.49    0.28
 -12   9  -3    0.00    0.23
  12   9   3   -0.08    0.25
 -12   9  -3   -0.11    0.24
 -12  -9  -3    0.18    0.25
 -12   9  -4    4.92    0.57
  12   9   4    5.46    0.65
 -12   9  -4    4.25    0.59
 -12  -9  -4    5.27    0.58
 -12   9  -5   -0.33    0.24
  12   9   5   -0.02    0.29
 -12   9  -5    0.84    0.33
 -12  -9  -5    0.31    0.27
  12   9   6    0.65    0.35
 -12   9  -6   -0.02    0.27
 -12  -9  -6    0.21    0.28
 -12   9  -7    0.06    0.29
  12   9   7   -0.23    0.26
 -12  -9  -7   -0.16    0.25
 -12   9  -8    0.05    0.26
 -12  -9  -8    0.32    0.31
 -12   9  -9   -0.01    0.27
 -12  -9  -9    0.39    0.31
  12  10 -10    1.42    0.44
 -12  10  10    1.51    0.43
  12  10  -9    0.31    0.32
 -12  10   9    0.13    0.30
  12 -10  -9   -0.10    0.31
 -12  10   8    0.14    0.30
  12  10  -8   -0.32    0.27
  12 -10  -8    0.17    0.33
  12  10  -7    0.55    0.33
 -12  10   7   -0.22    0.27
  12 -10  -7    0.63    0.39
 -12  10   6   -0.07    0.27
  12  10  -6   -0.04    0.27
  12 -10  -6   -0.25    0.31
  12  10  -5    5.46    0.69
 -12  10   5    5.65    0.68
  12  10  -4    0.54    0.36
 -12  10   4    0.59    0.32
  12  10  -3    1.89    0.44
 -12  10   3    1.42    0.40
  12  10  -2    1.46    0.41
 -12  10   2    1.51    0.39
  12  10  -1    0.98    0.37
 -12  10   1    0.98    0.35
 -12  10   0    2.97    0.50
  12  10   0    3.22    0.54
 -12  10   0    3.49    0.53
 -12  10  -1    0.32    0.31
  12  10   1   -0.04    0.28
 -12  10  -1    0.55    0.30
 -12  10  -2    1.94    0.42
  12  10   2    2.11    0.48
 -12  10  -2    1.94    0.45
 -12 -10  -2    1.52    0.37
 -12  10  -3    0.68    0.34
 -12  10  -3    0.52    0.33
  12  10   3    1.08    0.41
 -12 -10  -3    1.04    0.34
 -12  10  -4   -0.05    0.27
  12  10   4   -0.13    0.29
 -12  10  -4    0.08    0.29
 -12 -10  -4    0.19    0.28
 -12  10  -5    4.16    0.56
 -12  10  -5    4.97    0.65
  12  10   5    4.43    0.63
 -12 -10  -5    3.80    0.54
 -12  10  -6    0.38    0.33
  12  10   6    0.23    0.32
 -12 -10  -6    1.18    0.36
 -12  10  -7    3.42    0.58
  12  10   7    2.94    0.55
 -12 -10  -7    3.40    0.55
 -12  11   8    1.57    0.48
  12  11  -8    2.19    0.53
  12 -11  -8    2.27    0.51
  12  11  -7   -0.34    0.30
 -12  11   7   -0.31    0.29
  12 -11  -7   -0.43    0.33
 -12  11   6    2.11    0.50
  12  11  -6    2.33    0.52
  12 -11  -6    2.64    0.54
 -12  11   5    0.92    0.41
  12  11  -5    1.11    0.41
  12  11  -4    0.31    0.32
 -12  11   4   -0.34    0.25
  12  11  -3    1.49    0.43
 -12  11   3    1.31    0.39
 -12  11   2   -0.19    0.28
  12  11  -2    0.38    0.32
 -12  11   1   -0.09    0.31
  12  11  -1   -0.06    0.30
  12  11   0    1.34    0.43
 -12  11   0    1.05    0.40
  12  11   1   -0.09    0.31
 -12  11  -1    0.16    0.29
 -12  11  -1    0.13    0.30
 -12  11  -2    0.05    0.27
  12  11   2    0.63    0.37
 -12  11  -2    0.25    0.32
 -12  11  -3    1.09    0.39
 -12  11  -3    0.89    0.37
  12  11   3    1.69    0.48
 -12 -11  -3    1.76    0.40
 -12  11  -4    0.19    0.29
 -12  11  -4    0.32    0.34
  12  11   4    0.84    0.38
 -12 -11  -4    0.92    0.35
  12  11   5   -0.05    0.31
 -12  11  -5   -0.05    0.30
 -12 -11  -5    0.24    0.31
  13   0 -18    1.52    0.49
  13   0 -17   -0.14    0.30
  13   0 -16    1.89    0.49
 -13   0  15   -0.19    0.21
  13   0 -15    0.10    0.31
 -13   0  14    2.23    0.39
  13   0 -14    1.75    0.43
 -13   0  13    0.07    0.21
  13   0 -13    0.11    0.26
 -13   0  12    4.34    0.49
  13   0 -12    4.13    0.55
 -13   0  11   -0.08    0.16
  13   0 -11    0.00    0.22
 -13   0  10   12.98    0.73
  13   0 -10   12.57    0.81
  13   0  -9   -0.11    0.21
 -13   0   9    0.05    0.18
  13   0  -8   21.22    1.02
 -13   0   8   19.84    0.94
  13   0  -7    0.12    0.20
 -13   0   7    0.18    0.18
 -13   0   6    1.80    0.31
 -13   0   5    0.16    0.16
 -13   0   4    9.41    0.59
 -13   0   3   -0.02    0.15
 -13   0   2   34.05    1.27
 -13   0   1    0.09    0.16
 -13   0   0   19.07    0.84
 -13   0  -1    0.00    0.14
 -13   0  -1    0.17    0.19
 -13   0  -2   80.04    2.44
 -13   0  -2   78.57    2.51
 -13   0  -3   -0.27    0.16
 -13   0  -3   -0.18    0.13
 -13   0  -4    1.98    0.34
 -13   0  -4    1.72    0.27
 -13   0  -4    1.38    0.29
 -13   0  -5   -0.16    0.17
 -13   0  -5   -0.15    0.17
 -13   0  -5   -0.04    0.13
 -13   0  -6    6.63    0.44
 -13   0  -6    6.20    0.56
 -13   0  -6    6.55    0.58
 -13   0  -7   -0.29    0.15
 -13   0  -7   -0.23    0.18
 -13   0  -8    0.15    0.20
 -13   0  -8   -0.03    0.20
 -13   0  -9   -0.13    0.19
 -13   0  -9   -0.10    0.20
 -13   0 -10    3.70    0.51
 -13   0 -10    4.20    0.51
 -13   0 -11   -0.40    0.20
 -13   0 -11   -0.01    0.22
 -13   0 -12    2.16    0.42
 -13   0 -12    2.89    0.51
 -13   0 -13    0.24    0.27
 -13   0 -13   -0.07    0.27
 -13   0 -14   -0.05    0.29
 -13   0 -14   -0.18    0.26
  13   1 -18    0.78    0.39
  13  -1 -18    0.45    0.40
  13   1 -17    2.22    0.54
  13  -1 -17    3.00    0.58
  13   1 -16    5.39    0.70
  13  -1 -16    4.50    0.67
 -13   1  15   -0.37    0.20
  13   1 -15    0.00    0.30
 -13  -1  15    0.10    0.23
  13  -1 -15    0.23    0.30
  13   1 -14    0.45    0.32
 -13   1  14    0.58    0.25
 -13  -1  14    0.66    0.27
  13  -1 -14    0.42    0.33
  13   1 -13    0.48    0.31
 -13   1  13    0.50    0.25
 -13  -1  13    0.58    0.24
  13  -1 -13    0.34    0.28
 -13   1  12    0.32    0.22
  13   1 -12    1.12    0.34
 -13  -1  12    0.04    0.19
  13  -1 -12   -0.09    0.23
  13   1 -11    2.08    0.41
 -13   1  11    3.20    0.42
  13  -1 -11    1.66    0.40
 -13  -1  11    2.52    0.39
  13   1 -10    6.25    0.63
 -13   1  10    6.59    0.61
  13  -1 -10    5.71    0.61
 -13  -1  10    6.13    0.57
 -13   1   9    9.47    0.62
  13   1  -9    9.26    0.65
  13  -1  -9   10.07    0.70
 -13  -1   9    8.31    0.59
 -13   1   8   13.27    0.72
  13   1  -8   11.48    0.74
 -13  -1   8   11.46    0.67
  13  -1  -8   13.05    0.78
 -13   1   7    3.87    0.44
  13   1  -7    3.97    0.47
 -13  -1   7    3.64    0.43
 -13   1   6    0.26    0.20
  13   1  -6    0.73    0.25
 -13  -1   6    0.45    0.20
 -13   1   5    5.02    0.49
 -13  -1   5    6.85    0.57
 -13   1   4   42.25    1.53
 -13  -1   4   42.49    1.53
 -13   1   3   13.58    0.71
 -13  -1   3   12.97    0.70
 -13   1   2   13.98    0.73
 -13  -1   2   14.33    0.73
 -13   1   1   20.96    0.92
 -13  -1   1   21.67    0.93
 -13   1   0    0.71    0.22
 -13   1   0    0.53    0.21
 -13  -1   0    0.38    0.18
 -13   1  -1    4.91    0.45
 -13   1  -1    4.64    0.48
 -13  -1  -1    4.60    0.40
 -13  -1  -1    4.23    0.43
 -13   1  -2   22.44    0.97
 -13   1  -2   23.34    1.03
 -13  -1  -2   25.19    0.98
 -13  -1  -2   25.03    1.00
 -13  -1  -2   24.86    0.96
 -13   1  -3   13.08    0.71
 -13   1  -3   12.72    0.64
 -13  -1  -3   11.92    0.65
 -13  -1  -3   11.71    0.64
 -13  -1  -3   13.41    0.65
 -13   1  -4   19.13    0.81
 -13   1  -4   18.43    0.90
 -13  -1  -4   19.45    0.82
 -13  -1  -4   17.67    0.83
 -13  -1  -4   17.54    0.84
 -13   1  -5   -0.35    0.15
 -13   1  -5   -0.01    0.14
 -13  -1  -5   -0.03    0.18
 -13  -1  -5    0.00    0.15
 -13  -1  -5    0.04    0.19
 -13   1  -6   -0.05    0.18
 -13   1  -6    0.18    0.16
  13   1   6    0.02    0.16
 -13  -1  -6   -0.27    0.15
 -13  -1  -6   -0.06    0.18
 -13   1  -7    0.00    0.20
 -13  -1  -7    0.56    0.25
 -13  -1  -7    0.60    0.23
 -13   1  -8    7.99    0.60
 -13  -1  -8    7.10    0.60
 -13  -1  -8    6.65    0.63
 -13   1  -9    2.81    0.43
 -13  -1  -9    2.13    0.37
 -13  -1  -9    3.13    0.46
 -13   1 -10    9.92    0.70
 -13  -1 -10   10.30    0.69
 -13  -1 -10    9.02    0.78
 -13   1 -11    0.20    0.26
 -13  -1 -11    0.37    0.27
 -13  -1 -11    0.21    0.24
 -13   1 -12    3.58    0.51
 -13  -1 -12    4.02    0.57
 -13  -1 -12    4.16    0.52
 -13   1 -13    3.45    0.52
 -13  -1 -13    3.29    0.53
 -13   1 -14    4.77    0.63
 -13  -1 -14    4.96    0.65
  13   2 -17   -0.10    0.34
  13  -2 -17   -0.58    0.29
  13   2 -16    0.05    0.30
  13  -2 -16    0.50    0.37
  13   2 -15    2.47    0.45
  13   2 -15    1.69    0.44
 -13   2  15    2.64    0.43
 -13  -2  15    1.74    0.37
  13  -2 -15    1.94    0.49
  13   2 -14    4.08    0.52
  13   2 -14    4.06    0.59
 -13   2  14    3.73    0.49
  13  -2 -14    3.48    0.59
 -13  -2  14    4.34    0.52
 -13   2  13    6.10    0.60
  13   2 -13    6.81    0.72
 -13  -2  13    6.62    0.61
  13  -2 -13    5.43    0.67
  13   2 -12    2.70    0.47
 -13   2  12    3.67    0.47
  13  -2 -12    3.68    0.55
 -13  -2  12    2.90    0.42
 -13   2  11    0.02    0.18
  13   2 -11    0.24    0.26
 -13  -2  11   -0.11    0.17
  13  -2 -11   -0.06    0.24
  13   2 -10    0.04    0.23
 -13   2  10    0.10    0.20
  13  -2 -10    0.50    0.30
 -13  -2  10    0.06    0.19
  13   2  -9   14.39    0.83
 -13   2   9   13.59    0.78
  13  -2  -9   13.69    0.84
 -13  -2   9   15.40    0.79
 -13   2   8    6.57    0.59
  13   2  -8    7.84    0.59
 -13  -2   8    6.73    0.51
  13  -2  -8    7.68    0.67
  13   2  -7    0.95    0.27
 -13   2   7    1.35    0.30
 -13  -2   7    1.41    0.28
  13   2  -6   10.87    0.66
 -13   2   6   12.20    0.69
 -13  -2   6   11.47    0.66
 -13   2   5    1.20    0.27
  13   2  -5    0.70    0.25
 -13  -2   5    1.45    0.29
 -13   2   4    4.71    0.49
 -13  -2   4    3.93    0.44
 -13   2   3    0.95    0.24
 -13  -2   3    0.66    0.23
 -13   2   2   22.17    0.97
 -13  -2   2   22.27    0.96
 -13   2   1   61.46    2.04
 -13  -2   1   63.98    2.05
 -13  -2   1   62.16    1.86
 -13   2   0    9.13    0.61
 -13   2   0   10.88    0.61
 -13  -2   0    9.80    0.50
 -13  -2   0   10.27    0.60
 -13   2  -1    4.92    0.50
 -13   2  -1    6.36    0.47
 -13  -2  -1    5.36    0.48
 -13  -2  -1    6.01    0.41
 -13   2  -2    3.65    0.44
 -13   2  -2    3.10    0.37
 -13  -2  -2    3.72    0.39
 -13  -2  -2    3.87    0.41
 -13   2  -3   25.86    1.03
  13   2   3   26.33    1.07
 -13   2  -3   25.49    1.11
 -13  -2  -3   27.43    1.04
 -13  -2  -3   25.23    1.02
 -13  -2  -3   26.87    1.05
  13   2   4    0.42    0.21
 -13   2  -4    0.37    0.19
 -13   2  -4    0.29    0.22
 -13  -2  -4    0.63    0.22
 -13  -2  -4    0.31    0.21
  13   2   5    2.60    0.35
 -13   2  -5    2.51    0.32
 -13   2  -5    3.03    0.41
 -13  -2  -5    2.48    0.35
 -13  -2  -5    2.63    0.37
  13   2   6    9.50    0.57
 -13   2  -6    8.93    0.62
 -13   2  -6   11.27    0.57
 -13  -2  -6    9.28    0.60
 -13  -2  -6    9.18    0.59
 -13   2  -7    0.14    0.21
 -13  -2  -7   -0.10    0.17
 -13  -2  -7    0.06    0.21
 -13   2  -8    7.31    0.66
 -13  -2  -8    8.39    0.57
 -13  -2  -8    8.31    0.62
 -13   2  -9    0.91    0.31
 -13  -2  -9    0.95    0.28
 -13  -2  -9    1.64    0.35
 -13   2 -10    0.09    0.23
 -13  -2 -10    0.45    0.28
 -13   2 -11    6.23    0.65
 -13  -2 -11    5.86    0.64
 -13   2 -12    4.03    0.56
 -13  -2 -12    4.79    0.60
 -13   2 -13    0.41    0.30
 -13  -2 -13    0.26    0.30
 -13   2 -14   -0.05    0.28
 -13  -2 -14    0.05    0.31
  13   3 -17    1.31    0.47
  13  -3 -17    2.42    0.57
  13   3 -16    1.44    0.45
  13  -3 -16    2.35    0.52
  13   3 -15    0.32    0.30
  13   3 -15    0.39    0.34
 -13   3  15    0.38    0.26
  13  -3 -15    0.68    0.37
 -13   3  14    0.55    0.28
  13   3 -14    0.54    0.33
  13   3 -14    0.97    0.35
  13  -3 -14    0.98    0.38
  13   3 -13    2.06    0.43
 -13   3  13    1.85    0.37
  13   3 -13    2.27    0.40
  13  -3 -13    2.25    0.49
  13   3 -12    0.72    0.28
  13   3 -12    0.73    0.32
 -13   3  12    0.36    0.23
  13  -3 -12    0.27    0.29
 -13   3  11    1.22    0.30
  13   3 -11    1.20    0.32
  13   3 -11    1.54    0.36
 -13  -3  11    1.04    0.29
  13  -3 -11    2.16    0.43
  13   3 -10    0.30    0.25
  13   3 -10    0.44    0.26
 -13   3  10    0.07    0.20
  13  -3 -10    0.80    0.28
 -13  -3  10    0.09    0.21
  13   3  -9    0.22    0.23
  13   3  -9    0.54    0.27
 -13   3   9   -0.21    0.17
 -13  -3   9    0.35    0.22
  13  -3  -9    0.58    0.27
 -13   3   8   10.16    0.65
  13   3  -8   10.08    0.67
 -13  -3   8    9.06    0.62
  13   3  -7    1.58    0.32
 -13   3   7    1.24    0.28
 -13  -3   7    1.02    0.26
  13   3  -6    0.00    0.19
 -13   3   6    0.09    0.17
 -13  -3   6    0.58    0.22
 -13   3   5    5.23    0.51
  13   3  -5    4.75    0.47
 -13  -3   5    4.26    0.46
 -13   3   4    5.92    0.53
  13   3  -4    6.48    0.49
 -13  -3   4    4.88    0.49
 -13   3   3    9.47    0.60
 -13  -3   3    9.15    0.59
 -13   3   2    3.52    0.42
  13   3  -2    2.60    0.38
 -13  -3   2    2.69    0.38
  13   3  -1    0.28    0.18
 -13   3   1    0.37    0.22
 -13  -3   1    0.20    0.20
 -13  -3   1    0.12    0.15
  13   3   0    5.82    0.54
 -13   3   0    6.50    0.57
 -13   3   0    6.22    0.54
 -13  -3   0    7.37    0.42
 -13  -3   0    6.76    0.56
 -13   3  -1   17.62    0.82
 -13   3  -1   18.70    0.90
  13   3   1   17.26    0.84
 -13  -3  -1   16.86    0.74
 -13   3  -2   -0.13    0.14
  13   3   2    0.20    0.18
 -13   3  -2    0.18    0.20
 -13  -3  -2   -0.01    0.15
 -13   3  -3    0.19    0.18
 -13   3  -3    0.04    0.20
  13   3   3    0.27    0.20
 -13  -3  -3   -0.10    0.16
 -13   3  -4   13.63    0.71
  13   3   4   15.18    0.76
 -13   3  -4   15.22    0.82
 -13  -3  -4   14.88    0.73
 -13  -3  -4   14.65    0.69
  13   3   5    3.46    0.40
 -13   3  -5    3.01    0.43
 -13   3  -5    2.84    0.34
 -13  -3  -5    2.62    0.38
 -13  -3  -5    2.44    0.33
 -13   3  -6    0.61    0.20
  13   3   6    1.02    0.27
 -13   3  -6    0.59    0.25
 -13  -3  -6    0.78    0.23
 -13  -3  -6    0.52    0.25
 -13   3  -7    3.42    0.48
 -13  -3  -7    2.85    0.43
 -13   3  -8   -0.04    0.19
 -13  -3  -8    0.19    0.21
 -13   3  -9    1.22    0.34
 -13  -3  -9    1.58    0.36
 -13   3 -10    0.23    0.26
 -13  -3 -10    0.13    0.24
 -13   3 -11    0.10    0.26
 -13  -3 -11    0.48    0.27
 -13   3 -12    0.81    0.34
 -13  -3 -12    1.35    0.40
 -13   3 -13    5.11    0.63
 -13  -3 -13    4.63    0.62
 -13   3 -14    2.41    0.49
 -13  -3 -14    1.57    0.45
  13   4 -17    2.76    0.57
  13  -4 -17    2.36    0.57
  13   4 -16    0.84    0.38
  13  -4 -16    1.82    0.49
 -13   4  15    1.99    0.40
  13   4 -15    1.23    0.42
  13  -4 -15    1.96    0.47
 -13   4  14    0.53    0.27
  13   4 -14    0.36    0.32
  13   4 -14    0.43    0.30
  13  -4 -14    0.30    0.34
  13   4 -13    2.08    0.44
 -13   4  13    2.08    0.40
  13   4 -13    2.23    0.43
  13  -4 -13    2.40    0.48
  13   4 -12    1.12    0.35
  13   4 -12    0.79    0.32
 -13   4  12    0.39    0.24
  13  -4 -12    1.21    0.37
  13   4 -11    0.33    0.27
  13   4 -11    0.26    0.26
 -13   4  11    0.27    0.22
  13  -4 -11    0.22    0.27
 -13   4  10    3.49    0.46
  13   4 -10    4.32    0.53
  13   4 -10    3.17    0.48
  13  -4 -10    3.27    0.48
 -13   4   9   -0.10    0.18
  13   4  -9    0.01    0.22
  13   4  -9    0.02    0.20
  13  -4  -9    0.17    0.22
  13   4  -8    2.04    0.38
 -13   4   8    1.69    0.34
  13   4  -8    2.05    0.38
 -13   4   7   12.43    0.73
  13   4  -7   11.58    0.72
  13   4  -7   11.92    0.74
  13   4  -6    1.10    0.27
  13   4  -6    1.05    0.29
 -13   4   6    1.47    0.32
  13   4  -5    0.06    0.19
  13   4  -5    0.04    0.18
 -13   4   5   -0.14    0.14
 -13   4   4    0.31    0.20
  13   4  -4    0.11    0.17
  13   4  -4    0.32    0.22
  13   4  -3    5.08    0.53
 -13   4   3    4.11    0.48
  13   4  -3    4.91    0.44
 -13   4   2    4.83    0.50
  13   4  -2    4.60    0.41
  13   4  -2    3.60    0.46
 -13   4   1    1.08    0.28
  13   4  -1    1.72    0.34
 -13   4   1    2.29    0.37
 -13  -4   1    1.82    0.24
  13   4   0    0.86    0.26
 -13   4   0    0.93    0.26
 -13   4   0    1.29    0.29
 -13  -4   0    0.93    0.21
  13   4   1   20.66    0.95
 -13   4  -1   19.48    0.96
 -13   4  -1   18.99    0.90
 -13  -4  -1   19.98    0.82
 -13   4  -2    4.18    0.45
 -13   4  -2    4.96    0.53
  13   4   2    4.30    0.48
 -13  -4  -2    4.62    0.43
  13   4   3    0.92    0.27
 -13   4  -3    0.71    0.24
 -13   4  -3    0.92    0.28
 -13  -4  -3    0.61    0.22
  13   4   4    0.21    0.21
 -13   4  -4    0.26    0.18
 -13   4  -4   -0.07    0.17
 -13  -4  -4    0.07    0.18
  13   4   5   11.38    0.67
 -13   4  -5   11.90    0.76
 -13   4  -5   11.95    0.64
 -13  -4  -5   11.77    0.68
  13   4   6    0.62    0.24
 -13   4  -6    0.27    0.19
 -13   4  -6    0.65    0.27
 -13  -4  -6    0.13    0.20
 -13   4  -7    0.34    0.25
 -13  -4  -7    0.12    0.23
 -13   4  -8    0.20    0.25
 -13  -4  -8    0.11    0.24
 -13   4  -9    1.07    0.33
 -13  -4  -9    1.84    0.38
 -13   4 -10    0.02    0.23
 -13  -4 -10   -0.14    0.24
 -13   4 -11    0.45    0.32
 -13  -4 -11   -0.11    0.24
 -13   4 -12   -0.01    0.26
 -13  -4 -12    0.40    0.29
 -13   4 -13    3.63    0.57
 -13  -4 -13    3.96    0.60
  13   5 -16    0.10    0.33
  13  -5 -16    0.64    0.40
 -13   5  15    1.19    0.36
  13   5 -15    2.18    0.49
  13  -5 -15    0.98    0.44
  13   5 -14    0.41    0.31
  13   5 -14    0.05    0.28
 -13   5  14   -0.26    0.22
  13  -5 -14    0.26    0.35
  13   5 -13    2.21    0.43
  13   5 -13    2.40    0.47
 -13   5  13    2.42    0.43
  13  -5 -13    2.63    0.50
  13   5 -12    0.69    0.32
 -13   5  12    1.89    0.38
  13   5 -12    1.05    0.34
  13  -5 -12    1.35    0.40
  13   5 -11    0.13    0.25
 -13   5  11    0.35    0.24
  13   5 -11   -0.19    0.22
  13  -5 -11   -0.19    0.22
 -13   5  10    0.14    0.23
  13   5 -10    0.46    0.27
  13   5 -10   -0.07    0.23
  13  -5 -10   -0.12    0.23
  13   5  -9    0.70    0.28
 -13   5   9    0.59    0.27
  13   5  -9    0.87    0.31
  13  -5  -9   -0.07    0.20
  13   5  -8    0.25    0.25
 -13   5   8    0.31    0.21
  13   5  -8    0.35    0.25
  13   5  -7    0.13    0.21
  13   5  -7    0.25    0.25
 -13   5   7    0.00    0.20
 -13   5   6    1.52    0.31
  13   5  -6    1.35    0.29
  13   5  -6    0.73    0.28
 -13   5   5    0.19    0.22
  13   5  -5    0.29    0.22
  13   5  -5    0.28    0.21
  13   5  -4    1.46    0.28
 -13   5   4    1.30    0.30
  13   5  -4    1.07    0.29
  13   5  -3    5.90    0.44
  13   5  -3    5.71    0.59
 -13   5   3    5.14    0.54
 -13   5   2    3.43    0.44
  13   5  -2    2.77    0.41
 -13   5   1    6.78    0.63
 -13   5   1    7.54    0.56
  13   5  -1    7.31    0.65
 -13   5   0    0.27    0.22
  13   5   0    0.14    0.20
 -13   5   0    0.39    0.22
 -13  -5   0    0.57    0.20
 -13   5  -1    0.16    0.23
 -13   5  -1    0.00    0.18
  13   5   1    0.33    0.22
 -13  -5  -1    0.13    0.15
 -13   5  -2    0.64    0.26
 -13   5  -2    0.71    0.24
  13   5   2    1.01    0.28
 -13  -5  -2    0.69    0.23
 -13   5  -3    4.82    0.55
 -13   5  -3    3.82    0.44
  13   5   3    4.16    0.48
 -13  -5  -3    4.47    0.45
 -13   5  -4    0.08    0.19
  13   5   4    0.12    0.21
 -13   5  -4   -0.09    0.19
 -13  -5  -4    0.00    0.19
 -13   5  -5    1.43    0.34
  13   5   5    2.09    0.35
 -13   5  -5    1.81    0.33
 -13  -5  -5    1.76    0.34
  13   5   6    1.14    0.28
 -13   5  -6    1.13    0.32
 -13  -5  -6    0.66    0.26
 -13   5  -7    0.31    0.26
 -13  -5  -7    0.59    0.27
 -13   5  -8    3.33    0.50
 -13  -5  -8    3.73    0.49
 -13   5  -9   -0.15    0.23
 -13  -5  -9    0.09    0.25
 -13   5 -10    0.18    0.25
 -13  -5 -10   -0.24    0.23
 -13   5 -11    2.67    0.48
 -13  -5 -11    3.69    0.55
 -13   5 -12    1.70    0.42
 -13  -5 -12    2.58    0.49
 -13   5 -13    0.99    0.39
 -13  -5 -13    0.29    0.30
 -13   6  15   -0.37    0.23
  13   6 -15    0.27    0.32
  13  -6 -15   -0.25    0.34
  13   6 -14    0.26    0.31
  13   6 -14   -0.07    0.27
 -13   6  14    0.17    0.28
  13  -6 -14   -0.17    0.33
 -13   6  13    0.62    0.32
  13   6 -13    0.72    0.35
  13   6 -13    1.37    0.39
  13  -6 -13    0.87    0.39
 -13   6  12    4.35    0.58
  13   6 -12    4.08    0.56
  13   6 -12    5.22    0.61
  13  -6 -12    5.92    0.69
  13   6 -11    1.03    0.33
 -13   6  11    0.90    0.32
  13   6 -11    0.35    0.28
  13  -6 -11    0.66    0.33
  13   6 -10    2.97    0.46
  13   6 -10    3.10    0.50
 -13   6  10    2.99    0.46
  13  -6 -10    2.76    0.47
 -13   6   9   -0.03    0.23
  13   6  -9    0.03    0.23
  13   6  -9    0.20    0.24
  13  -6  -9   -0.26    0.21
  13   6  -8    0.39    0.26
 -13   6   8    0.74    0.27
  13   6  -8    0.56    0.29
  13   6  -7    1.99    0.39
 -13   6   7    1.43    0.34
  13   6  -7    2.09    0.36
 -13   6   6    0.18    0.20
  13   6  -6    0.10    0.22
 -13   6   5    0.34    0.23
  13   6  -5    0.09    0.23
 -13   6   4    6.32    0.61
  13   6  -4    4.87    0.56
  13   6  -3    0.17    0.22
 -13   6   3    0.03    0.21
  13   6  -2    4.98    0.55
 -13   6   2    3.69    0.48
 -13   6   1    2.90    0.43
  13   6  -1    2.13    0.39
 -13   6   1    2.47    0.40
 -13   6   0    5.22    0.54
  13   6   0    5.12    0.56
 -13   6   0    5.59    0.59
 -13  -6   0    5.47    0.46
 -13   6  -1    0.40    0.24
  13   6   1   -0.05    0.21
 -13   6  -1    0.25    0.21
 -13  -6  -1    0.50    0.21
  13   6   2    1.27    0.33
 -13   6  -2    0.65    0.25
 -13   6  -2    0.81    0.27
 -13  -6  -2    0.64    0.23
 -13   6  -3    0.25    0.21
 -13   6  -3    0.39    0.25
  13   6   3    0.47    0.24
 -13  -6  -3    0.14    0.21
 -13   6  -4    0.38    0.23
  13   6   4   -0.07    0.21
 -13   6  -4    0.32    0.24
 -13  -6  -4   -0.04    0.19
  13   6   5    2.17    0.40
 -13   6  -5    2.11    0.36
 -13   6  -5    2.13    0.41
 -13  -6  -5    2.44    0.40
  13   6   6    0.31    0.24
 -13   6  -6    0.35    0.26
 -13  -6  -6    0.15    0.21
 -13   6  -7    0.42    0.27
 -13  -6  -7    0.50    0.28
 -13   6  -8    3.17    0.50
 -13  -6  -8    3.99    0.54
 -13   6  -9    0.61    0.30
 -13  -6  -9    0.60    0.31
 -13   6 -10    0.86    0.35
 -13  -6 -10    0.98    0.36
 -13   6 -11    0.03    0.28
 -13  -6 -11    0.01    0.29
 -13   6 -12    0.65    0.34
 -13  -6 -12    0.18    0.32
  13   7 -14    1.08    0.40
 -13   7  14    0.55    0.32
  13   7 -14    0.98    0.40
  13  -7 -14    1.19    0.47
  13   7 -13    0.69    0.36
 -13   7  13    0.16    0.29
  13   7 -13   -0.09    0.29
  13  -7 -13    0.79    0.39
  13   7 -12   -0.09    0.24
  13   7 -12   -0.10    0.30
 -13   7  12    0.19    0.27
  13  -7 -12   -0.33    0.27
  13   7 -11    2.76    0.49
 -13   7  11    2.23    0.46
  13  -7 -11    2.53    0.50
 -13   7  10   -0.21    0.21
  13   7 -10   -0.06    0.25
  13  -7 -10   -0.06    0.27
  13   7  -9    1.42    0.37
 -13   7   9    1.33    0.36
  13  -7  -9    1.83    0.42
 -13   7   8    0.29    0.27
  13   7  -8    0.83    0.33
 -13   7   7    0.44    0.26
  13   7  -7   -0.18    0.18
  13  -7  -7   -0.06    0.25
 -13   7   6    0.15    0.24
  13   7  -6    0.00    0.20
  13   7  -5    3.29    0.49
 -13   7   5    3.33    0.48
  13   7  -4    2.78    0.45
 -13   7   4    2.71    0.45
 -13   7   3    3.32    0.46
  13   7  -3    2.60    0.45
 -13   7   2    1.37    0.32
  13   7  -2    1.86    0.39
  13   7  -1    2.13    0.42
 -13   7   1    2.13    0.38
 -13   7   1    2.74    0.42
  13   7   0    1.35    0.35
 -13   7   0    0.39    0.26
 -13   7   0    1.62    0.35
 -13   7  -1    1.57    0.35
  13   7   1    1.78    0.38
 -13   7  -1    1.35    0.34
 -13  -7  -1    1.93    0.33
 -13   7  -2    0.22    0.23
  13   7   2   -0.16    0.22
 -13   7  -2    0.06    0.21
 -13  -7  -2    0.07    0.21
 -13   7  -3    0.83    0.30
 -13   7  -3    0.61    0.27
  13   7   3    1.17    0.32
 -13  -7  -3    1.12    0.29
 -13   7  -4    2.23    0.44
 -13   7  -4    2.46    0.40
  13   7   4    2.26    0.41
 -13  -7  -4    2.83    0.41
  13   7   5    0.20    0.27
 -13   7  -5   -0.09    0.22
 -13   7  -5   -0.17    0.23
 -13  -7  -5    0.17    0.24
  13   7   6    1.12    0.33
 -13   7  -6    1.28    0.35
 -13  -7  -6    0.47    0.28
 -13   7  -7   10.13    0.76
 -13  -7  -7   10.34    0.74
 -13   7  -8    0.02    0.26
 -13  -7  -8    0.21    0.26
 -13   7  -9    3.00    0.53
 -13  -7  -9    4.18    0.57
 -13   7 -10   -0.02    0.27
 -13  -7 -10   -0.06    0.27
 -13   7 -11   -0.30    0.24
 -13  -7 -11    0.18    0.32
  13   8 -13    0.43    0.37
 -13   8  13    0.44    0.32
  13  -8 -13    0.56    0.40
 -13   8  12    0.45    0.34
  13   8 -12    0.07    0.34
  13  -8 -12   -0.01    0.33
  13   8 -11   -0.10    0.29
 -13   8  11   -0.25    0.23
  13  -8 -11   -0.29    0.28
  13   8 -10    1.91    0.45
 -13   8  10    1.78    0.42
  13  -8 -10    1.71    0.43
  13   8  -9    0.61    0.32
 -13   8   9    1.12    0.36
  13  -8  -9    0.18    0.28
 -13   8   8    0.19    0.26
  13   8  -8    0.25    0.29
  13   8  -7    0.14    0.27
 -13   8   7   -0.19    0.24
  13  -8  -7    0.15    0.29
 -13   8   6    3.11    0.50
  13   8  -6    2.83    0.49
 -13   8   5    1.88    0.39
  13   8  -5    1.75    0.39
  13   8  -4    0.61    0.30
 -13   8   4    0.62    0.30
  13   8  -3   -0.06    0.19
 -13   8   3    0.44    0.27
 -13   8   2    0.95    0.32
  13   8  -2    0.49    0.28
  13   8  -1    0.12    0.28
 -13   8   1    0.64    0.28
  13   8   0    2.06    0.41
 -13   8   0    2.14    0.42
 -13   8   0    1.60    0.37
 -13   8  -1    0.01    0.21
 -13   8  -1    0.52    0.28
  13   8   1    0.36    0.26
 -13  -8  -1    0.25    0.22
 -13   8  -2   -0.01    0.23
  13   8   2    0.10    0.27
 -13   8  -2    0.20    0.24
 -13  -8  -2    0.14    0.22
  13   8   3    2.91    0.50
 -13   8  -3    3.24    0.51
 -13   8  -3    3.06    0.46
 -13  -8  -3    3.31    0.45
 -13   8  -4    0.36    0.28
  13   8   4   -0.15    0.23
 -13   8  -4    0.02    0.25
 -13  -8  -4   -0.22    0.21
 -13   8  -5    0.24    0.29
 -13   8  -5   -0.22    0.23
  13   8   5    0.26    0.28
 -13  -8  -5    0.49    0.28
 -13   8  -6    1.73    0.40
  13   8   6    2.71    0.46
 -13  -8  -6    2.47    0.44
 -13   8  -7   -0.12    0.26
 -13  -8  -7    0.16    0.28
 -13   8  -8    0.00    0.25
 -13  -8  -8    0.04    0.27
 -13   8  -9    0.31    0.30
 -13  -8  -9    0.25    0.29
 -13   8 -10    0.37    0.34
 -13  -8 -10   -0.01    0.30
  13   9 -12    1.41    0.47
 -13   9  12    0.51    0.37
  13   9 -11    1.64    0.45
 -13   9  11    0.39    0.34
  13  -9 -11    0.28    0.36
 -13   9  10    0.26    0.33
  13   9 -10    0.13    0.32
  13  -9 -10    0.80    0.38
  13   9  -9    0.61    0.35
 -13   9   9    0.88    0.36
  13  -9  -9    0.81    0.37
  13   9  -8    1.70    0.43
 -13   9   8    2.13    0.46
 -13   9   7    1.95    0.43
  13   9  -7    2.28    0.48
  13  -9  -7    1.54    0.42
  13   9  -6    2.31    0.48
 -13   9   6    2.54    0.47
 -13   9   5    0.95    0.35
  13   9  -5    1.54    0.40
 -13   9   4   -0.13    0.25
  13   9  -4   -0.13    0.24
  13   9  -3    0.60    0.32
 -13   9   3    0.81    0.33
 -13   9   2    0.51    0.31
  13   9  -2    0.88    0.36
 -13   9   1    0.54    0.30
  13   9  -1    0.10    0.28
 -13   9   0   -0.03    0.24
  13   9   0    0.06    0.26
 -13   9   0    0.20    0.26
 -13   9  -1    0.15    0.26
 -13   9  -1    0.61    0.30
  13   9   1   -0.10    0.26
 -13   9  -2    5.08    0.62
 -13   9  -2    4.14    0.55
  13   9   2    6.22    0.70
 -13  -9  -2    5.66    0.57
 -13   9  -3    1.73    0.40
 -13   9  -3    3.79    0.56
  13   9   3    2.12    0.48
 -13  -9  -3    2.24    0.42
 -13   9  -4   -0.15    0.25
  13   9   4   -0.16    0.29
 -13   9  -4    0.00    0.26
 -13  -9  -4    0.03    0.26
 -13   9  -5    0.87    0.36
 -13   9  -5    0.74    0.32
  13   9   5    0.29    0.30
 -13  -9  -5    0.48    0.30
  13   9   6    1.04    0.37
 -13   9  -6    0.53    0.35
 -13  -9  -6    1.59    0.39
 -13   9  -7    1.08    0.40
 -13  -9  -7    1.74    0.42
 -13   9  -8    0.54    0.35
 -13  -9  -8   -0.27    0.25
  13  10  -9    1.23    0.42
 -13  10   9    0.69    0.37
  13  10  -8    0.22    0.33
 -13  10   8    0.04    0.32
  13 -10  -8   -0.12    0.34
  13  10  -7    3.03    0.55
 -13  10   7    2.77    0.53
  13 -10  -7    3.56    0.58
  13  10  -6    0.94    0.37
 -13  10   6    0.91    0.39
  13 -10  -6    1.60    0.46
  13  10  -5    1.58    0.45
 -13  10   5    1.03    0.38
  13  10  -4   -0.09    0.26
 -13  10   4    0.13    0.28
 -13  10   3    0.03    0.26
  13  10  -3   -0.43    0.24
 -13  10   2    2.32    0.47
  13  10  -2    2.70    0.52
 -13  10   1   -0.11    0.29
  13  10  -1    0.05    0.29
 -13  10   0    1.16    0.37
  13  10   0    1.35    0.41
 -13  10  -1    5.72    0.66
  13  10   1    5.67    0.70
 -13  10  -1    4.71    0.61
 -13  10  -2    4.19    0.58
  13  10   2    4.43    0.64
 -13  10  -2    5.94    0.69
  13  10   3    4.87    0.65
 -13  10  -3    3.92    0.58
 -13  10  -3    3.56    0.54
 -13 -10  -3    3.39    0.50
  13  10   4    4.92    0.66
 -13  10  -4    4.67    0.65
 -13  10  -4    4.10    0.57
 -13 -10  -4    5.13    0.61
 -13  10  -5    0.84    0.37
  13  10   5    0.95    0.40
 -13 -10  -5    1.31    0.40
  13  10   6    0.89    0.37
 -13  10  -6    0.90    0.40
 -13 -10  -6    0.87    0.37
  13  11  -6    2.59    0.55
 -13  11   6    1.92    0.48
  13 -11  -6    1.54    0.47
  13  11  -5    1.64    0.46
 -13  11   5    0.95    0.39
  13  11  -4    0.28    0.32
 -13  11   4   -0.20    0.29
 -13  11   3    0.08    0.30
  13  11  -3    0.61    0.38
  13  11  -2    2.71    0.53
 -13  11   2    2.00    0.48
  13  11  -1    0.03    0.31
 -13  11   1   -0.17    0.27
  13  11   0    1.25    0.42
 -13  11   0    0.98    0.39
  13  11   1    1.14    0.42
 -13  11  -1    0.49    0.36
 -13  11  -1    0.79    0.39
 -13  11  -2    0.61    0.34
 -13  11  -2    0.04    0.30
  13  11   2    0.46    0.37
 -13  11  -3   -0.15    0.31
  13  11   3    0.20    0.34
 -13  11  -3   -0.28    0.30
  14   0 -17    0.18    0.36
  14   0 -16    0.65    0.39
  14   0 -15   -0.09    0.31
 -14   0  15    0.23    0.24
  14   0 -14    3.39    0.57
 -14   0  14    4.41    0.53
  14   0 -13   -0.33    0.23
 -14   0  13   -0.09    0.19
 -14   0  12    1.31    0.33
  14   0 -12    1.05    0.36
  14   0 -11    0.09    0.25
 -14   0  11    0.25    0.20
 -14   0  10    0.78    0.26
  14   0 -10    0.64    0.28
 -14   0   9    0.00    0.17
  14   0  -9   -0.13    0.21
 -14   0   8    2.15    0.36
  14   0  -8    2.42    0.41
 -14   0   7    0.10    0.16
  14   0  -7   -0.09    0.19
 -14   0   6    1.68    0.32
 -14   0   5   -0.03    0.15
 -14   0   4    0.55    0.21
 -14   0   3   -0.15    0.15
 -14   0   2    8.62    0.57
 -14   0   1   -0.23    0.14
 -14   0   0   12.82    0.68
 -14   0  -1    0.12    0.15
 -14   0  -1   -0.10    0.16
 -14   0  -2    1.93    0.32
 -14   0  -2    3.18    0.37
 -14   0  -3    0.15    0.18
 -14   0  -3    0.01    0.18
 -14   0  -4   15.80    0.82
 -14   0  -4   16.75    0.78
 -14   0  -5    0.07    0.16
 -14   0  -5    0.10    0.19
 -14   0  -6    3.87    0.46
 -14   0  -6    3.33    0.43
 -14   0  -6    3.66    0.39
 -14   0  -7   -0.10    0.19
 -14   0  -7    0.14    0.20
 -14   0  -8    0.51    0.24
 -14   0  -8    0.05    0.22
 -14   0  -9   -0.05    0.21
 -14   0  -9    0.24    0.26
 -14   0 -10   -0.16    0.23
 -14   0 -10   -0.19    0.23
 -14   0 -11    0.09    0.26
 -14   0 -11    0.03    0.23
 -14   0 -12    2.35    0.45
 -14   0 -13    0.03    0.27
  14   1 -17   -0.17    0.32
  14  -1 -17   -0.51    0.30
  14   1 -16    0.12    0.35
  14  -1 -16    0.81    0.41
 -14   1  15    3.48    0.49
  14   1 -15    3.38    0.59
  14  -1 -15    2.43    0.54
 -14  -1  15    3.27    0.46
  14   1 -14    1.98    0.48
 -14   1  14    2.76    0.43
 -14  -1  14    3.19    0.46
  14  -1 -14    2.69    0.51
 -14   1  13    2.57    0.42
  14   1 -13    3.06    0.52
 -14  -1  13    3.70    0.47
  14  -1 -13    2.61    0.52
  14   1 -12    0.74    0.32
 -14   1  12    0.15    0.22
  14  -1 -12    0.09    0.29
 -14  -1  12    0.63    0.27
  14   1 -11    1.44    0.37
 -14   1  11    1.24    0.31
  14  -1 -11    0.97    0.36
 -14  -1  11    1.34    0.32
 -14   1  10    7.43    0.65
  14   1 -10    7.31    0.70
 -14  -1  10    6.95    0.64
  14  -1 -10    8.35    0.76
 -14   1   9    0.11    0.19
  14   1  -9    0.13    0.22
 -14  -1   9   -0.06    0.16
  14  -1  -9    0.00    0.21
 -14   1   8    2.75    0.40
  14   1  -8    2.30    0.41
  14  -1  -8    2.51    0.41
 -14  -1   8    3.04    0.41
 -14   1   7    2.41    0.38
  14   1  -7    1.93    0.35
 -14  -1   7    2.76    0.39
 -14   1   6    1.63    0.31
  14   1  -6    1.77    0.33
 -14  -1   6    1.44    0.30
 -14   1   5    2.08    0.34
 -14  -1   5    1.33    0.29
 -14   1   4    1.39    0.29
 -14  -1   4    1.56    0.30
 -14   1   3   22.98    1.00
 -14  -1   3   22.57    1.00
 -14   1   2   41.16    1.49
 -14  -1   2   40.17    1.48
 -14   1   1    1.51    0.30
 -14  -1   1    1.67    0.31
 -14   1   0    1.93    0.32
 -14  -1   0    1.94    0.32
 -14   1  -1    1.24    0.26
 -14   1  -1    1.07    0.27
 -14  -1  -1    0.98    0.24
 -14   1  -2    4.87    0.50
 -14   1  -2    4.72    0.45
 -14  -1  -2    4.69    0.45
 -14  -1  -2    4.20    0.41
 -14  -1  -2    5.03    0.48
 -14   1  -3    0.78    0.22
 -14   1  -3    0.91    0.27
 -14  -1  -3    1.27    0.27
 -14  -1  -3    0.62    0.24
 -14  -1  -3    0.45    0.21
 -14   1  -4    7.81    0.58
 -14   1  -4    7.30    0.51
 -14  -1  -4    7.40    0.55
 -14  -1  -4    8.00    0.51
 -14  -1  -4    7.87    0.54
 -14   1  -5   18.66    0.84
 -14   1  -5   19.40    0.96
  14   1   5   19.34    0.87
 -14  -1  -5   19.03    0.91
 -14  -1  -5   20.62    0.87
 -14  -1  -5   20.04    0.92
 -14   1  -6    1.73    0.35
  14   1   6    1.69    0.29
 -14  -1  -6    1.67    0.33
 -14  -1  -6    1.27    0.32
 -14   1  -7    0.03    0.20
 -14  -1  -7   -0.01    0.19
 -14  -1  -7   -0.10    0.21
 -14   1  -8    0.35    0.25
 -14  -1  -8    0.09    0.20
 -14  -1  -8   -0.06    0.20
 -14   1  -9    4.85    0.56
 -14  -1  -9    5.17    0.53
 -14  -1  -9    4.27    0.54
 -14   1 -10    2.40    0.43
 -14  -1 -10    2.35    0.44
 -14  -1 -10    2.44    0.40
 -14   1 -11   -0.19    0.22
 -14  -1 -11   -0.05    0.26
 -14  -1 -11    0.26    0.29
 -14   1 -12    2.10    0.44
 -14  -1 -12    2.07    0.45
 -14   1 -13   -0.13    0.25
 -14  -1 -13    0.23    0.33
  14   2 -17    0.74    0.39
  14  -2 -17   -0.24    0.34
  14   2 -16    0.35    0.37
  14  -2 -16    0.48    0.39
  14   2 -15    0.50    0.33
  14   2 -15    0.41    0.31
 -14   2  15    0.31    0.26
  14  -2 -15   -0.03    0.29
 -14  -2  15    0.03    0.24
  14   2 -14   -0.08    0.28
 -14   2  14   -0.06    0.22
  14   2 -14   -0.16    0.25
 -14  -2  14   -0.01    0.21
  14  -2 -14    0.13    0.30
  14   2 -13    3.24    0.52
 -14   2  13    4.90    0.56
  14  -2 -13    4.23    0.62
 -14  -2  13    5.01    0.55
  14   2 -12    6.67    0.70
 -14   2  12    6.64    0.64
 -14  -2  12    6.48    0.62
  14  -2 -12    6.80    0.74
 -14   2  11    0.04    0.19
  14   2 -11    0.19    0.26
  14  -2 -11   -0.31    0.22
 -14  -2  11    0.08    0.21
 -14   2  10    8.32    0.70
  14   2 -10    8.07    0.73
  14  -2 -10    7.27    0.71
 -14  -2  10    6.77    0.63
  14   2  -9    2.85    0.45
 -14   2   9    2.18    0.38
  14  -2  -9    2.85    0.45
 -14  -2   9    3.10    0.42
 -14   2   8   -0.06    0.17
  14   2  -8   -0.03    0.22
 -14  -2   8    0.16    0.19
  14  -2  -8    0.01    0.23
  14   2  -7    9.52    0.65
 -14   2   7    9.32    0.63
 -14  -2   7    9.20    0.61
  14   2  -6   13.22    0.74
 -14   2   6   11.03    0.68
 -14  -2   6   12.39    0.71
  14   2  -5    3.61    0.44
 -14   2   5    4.14    0.46
 -14  -2   5    4.24    0.47
 -14   2   4   11.87    0.70
 -14  -2   4   11.45    0.67
 -14   2   3    6.65    0.58
 -14  -2   3    6.77    0.58
 -14   2   2    0.55    0.22
 -14  -2   2    0.63    0.22
 -14   2   1   25.99    1.07
 -14  -2   1   24.18    1.06
 -14   2   0    0.18    0.20
 -14   2   0    0.14    0.18
 -14  -2   0    0.28    0.16
 -14  -2   0    0.12    0.16
 -14   2  -1    1.32    0.29
 -14   2  -1    2.20    0.33
 -14  -2  -1    2.01    0.32
 -14  -2  -1    2.08    0.30
 -14   2  -2    0.71    0.22
 -14   2  -2    0.45    0.23
 -14  -2  -2    0.60    0.23
 -14  -2  -2    0.87    0.22
 -14   2  -3    2.07    0.36
  14   2   3    2.59    0.36
 -14   2  -3    3.13    0.37
 -14  -2  -3    2.69    0.35
 -14  -2  -3    2.62    0.35
 -14  -2  -3    2.97    0.37
 -14   2  -4    3.12    0.44
 -14   2  -4    2.81    0.37
  14   2   4    2.46    0.36
 -14  -2  -4    2.48    0.36
 -14  -2  -4    2.82    0.38
 -14   2  -5    4.61    0.44
  14   2   5    4.19    0.45
 -14   2  -5    3.89    0.48
 -14  -2  -5    4.34    0.45
 -14  -2  -5    4.18    0.47
  14   2   6    2.28    0.33
 -14   2  -6    1.81    0.37
 -14  -2  -6    1.81    0.34
 -14  -2  -6    1.29    0.31
 -14   2  -7    3.39    0.47
 -14  -2  -7    3.74    0.48
 -14  -2  -7    3.12    0.41
 -14   2  -8    0.56    0.27
 -14  -2  -8    0.33    0.24
 -14  -2  -8    0.75    0.30
 -14   2  -9    0.22    0.24
 -14  -2  -9    0.28    0.25
 -14   2 -10    0.45    0.27
 -14  -2 -10    0.19    0.26
 -14   2 -11    0.38    0.29
 -14  -2 -11    0.14    0.28
 -14   2 -12    2.61    0.48
 -14  -2 -12    3.33    0.54
 -14   2 -13    0.27    0.29
 -14  -2 -13   -0.24    0.26
  14   3 -16    0.43    0.37
  14  -3 -16    0.36    0.36
 -14   3  15    2.26    0.44
  14   3 -15    2.32    0.46
  14   3 -15    1.64    0.45
  14  -3 -15    1.36    0.44
  14   3 -14    0.07    0.29
  14   3 -14    0.06    0.26
 -14   3  14    0.16    0.25
  14  -3 -14    0.35    0.35
 -14   3  13   -0.16    0.21
  14   3 -13   -0.01    0.25
  14   3 -13   -0.20    0.25
  14  -3 -13    0.35    0.32
  14   3 -12    3.73    0.55
 -14   3  12    4.66    0.55
  14   3 -12    4.90    0.58
  14  -3 -12    4.68    0.61
  14   3 -11    0.13    0.23
 -14   3  11   -0.17    0.18
  14   3 -11    0.01    0.23
  14  -3 -11   -0.10    0.22
 -14  -3  11   -0.11    0.18
  14   3 -10    2.31    0.40
  14   3 -10    0.96    0.34
 -14   3  10    1.58    0.35
  14  -3 -10    1.85    0.42
 -14  -3  10    1.84    0.37
  14   3  -9    2.35    0.40
 -14   3   9    2.54    0.40
  14   3  -9    2.12    0.40
 -14  -3   9    2.96    0.42
  14  -3  -9    2.69    0.46
 -14   3   8    0.08    0.21
  14   3  -8    0.20    0.23
 -14  -3   8    0.25    0.20
 -14   3   7    3.62    0.45
  14   3  -7    3.44    0.45
 -14  -3   7    2.75    0.40
  14   3  -6   -0.26    0.18
 -14   3   6    0.12    0.19
 -14  -3   6    0.13    0.18
  14   3  -5    0.47    0.23
 -14   3   5    0.40    0.22
 -14  -3   5    0.25    0.17
  14   3  -4    7.32    0.53
 -14   3   4    8.47    0.58
 -14  -3   4    7.97    0.57
 -14   3   3   16.19    0.82
 -14  -3   3   14.39    0.79
  14   3  -2    5.34    0.55
 -14   3   2    5.35    0.52
 -14  -3   2    5.29    0.51
 -14   3   1    3.13    0.41
  14   3  -1    3.49    0.44
 -14  -3   1    3.82    0.43
 -14   3   0    8.52    0.60
  14   3   0    8.38    0.59
 -14   3   0    8.44    0.57
 -14  -3   0    8.40    0.48
 -14  -3   0    7.84    0.56
 -14   3  -1    7.74    0.54
 -14   3  -1    8.58    0.61
  14   3   1    8.57    0.59
 -14  -3  -1    6.87    0.47
 -14   3  -2    7.86    0.59
  14   3   2    7.40    0.55
 -14   3  -2    7.70    0.53
 -14  -3  -2    7.67    0.50
 -14   3  -3    1.09    0.27
 -14   3  -3    0.98    0.30
  14   3   3    0.48    0.24
 -14  -3  -3    0.83    0.24
 -14   3  -4    0.29    0.20
 -14   3  -4    0.01    0.21
  14   3   4    0.49    0.22
 -14  -3  -4    0.13    0.18
 -14  -3  -4    0.05    0.20
 -14   3  -5    2.38    0.39
 -14   3  -5    2.11    0.33
  14   3   5    2.41    0.37
 -14  -3  -5    1.91    0.34
 -14   3  -6    0.59    0.26
  14   3   6    0.88    0.26
 -14  -3  -6    0.65    0.27
 -14   3  -7    1.08    0.31
 -14  -3  -7    0.69    0.27
 -14   3  -8    3.78    0.51
 -14  -3  -8    3.91    0.50
 -14   3  -9    4.55    0.58
 -14  -3  -9    4.74    0.57
 -14   3 -10    1.57    0.38
 -14  -3 -10    1.10    0.36
 -14   3 -11    0.74    0.34
 -14  -3 -11    0.54    0.31
 -14   3 -12    0.20    0.28
 -14  -3 -12    0.06    0.28
 -14   3 -13    1.33    0.41
 -14  -3 -13    1.21    0.42
  14   4 -16    2.37    0.54
  14  -4 -16    1.89    0.52
 -14   4  15   -0.25    0.23
  14   4 -15   -0.01    0.26
  14   4 -15    0.28    0.36
  14  -4 -15   -0.07    0.34
  14   4 -14    2.78    0.51
  14   4 -14    3.02    0.54
 -14   4  14    3.27    0.51
  14  -4 -14    4.33    0.63
 -14   4  13    0.00    0.23
  14   4 -13   -0.17    0.27
  14   4 -13    0.08    0.29
  14  -4 -13    0.36    0.32
 -14   4  12   -0.06    0.23
  14   4 -12    0.45    0.29
  14   4 -12    0.42    0.26
  14  -4 -12   -0.05    0.28
  14   4 -11    7.64    0.71
 -14   4  11    6.16    0.63
  14   4 -11    6.26    0.67
  14  -4 -11    6.58    0.72
  14   4 -10   -0.02    0.23
  14   4 -10   -0.19    0.21
 -14   4  10    0.07    0.22
  14  -4 -10    0.54    0.30
  14   4  -9    0.67    0.28
 -14   4   9    0.70    0.27
  14   4  -9    1.07    0.32
  14  -4  -9    0.74    0.29
 -14   4   8    0.28    0.22
  14   4  -8    0.05    0.22
  14   4  -8    0.36    0.23
  14   4  -7    1.78    0.37
 -14   4   7    1.50    0.32
  14   4  -7    1.28    0.32
 -14   4   6    0.53    0.24
  14   4  -6    1.01    0.28
  14   4  -6    0.60    0.27
  14   4  -5    0.68    0.24
 -14   4   5    0.39    0.23
  14   4  -5    1.13    0.31
 -14   4   4    6.57    0.61
  14   4  -4    5.95    0.60
  14   4  -4    5.90    0.53
 -14   4   3    5.47    0.56
  14   4  -3    6.46    0.47
  14   4  -3    5.89    0.59
  14   4  -2   -0.09    0.19
 -14   4   2   -0.12    0.18
  14   4  -2    0.01    0.17
 -14   4   1    4.03    0.46
  14   4  -1    3.84    0.48
 -14   4   0    1.17    0.28
  14   4   0    0.84    0.27
 -14   4   0    1.15    0.31
 -14  -4   0    1.19    0.24
  14   4   1   -0.06    0.19
 -14   4  -1    0.42    0.22
 -14   4  -1    0.40    0.24
 -14  -4  -1    0.39    0.20
 -14   4  -2    0.20    0.20
 -14   4  -2    0.25    0.20
  14   4   2    0.72    0.25
 -14  -4  -2    0.55    0.22
 -14   4  -3    6.38    0.62
 -14   4  -3    7.07    0.58
  14   4   3    5.00    0.53
 -14  -4  -3    5.87    0.52
 -14   4  -4    0.14    0.18
 -14   4  -4    0.53    0.24
  14   4   4   -0.04    0.20
 -14  -4  -4   -0.23    0.19
  14   4   5    1.22    0.31
 -14   4  -5    0.35    0.26
 -14   4  -5    0.57    0.23
 -14  -4  -5    0.71    0.27
 -14   4  -6    0.38    0.24
  14   4   6    0.30    0.24
 -14  -4  -6    0.15    0.21
 -14   4  -7    0.81    0.27
 -14  -4  -7    0.85    0.30
 -14   4  -8    1.15    0.33
 -14  -4  -8    0.76    0.29
 -14   4  -9    1.64    0.40
 -14  -4  -9    1.81    0.40
 -14   4 -10    0.37    0.31
 -14  -4 -10    0.74    0.31
 -14   4 -11    3.88    0.56
 -14  -4 -11    2.86    0.51
 -14   4 -12    0.83    0.38
 -14  -4 -12    1.04    0.39
  14   5 -15    0.12    0.34
 -14   5  15    0.61    0.31
  14  -5 -15    0.15    0.34
 -14   5  14   -0.25    0.23
  14   5 -14    0.17    0.29
  14   5 -14   -0.46    0.27
  14  -5 -14    0.04    0.34
  14   5 -13    1.53    0.41
 -14   5  13    2.00    0.43
  14   5 -13    1.85    0.44
  14  -5 -13    2.34    0.50
  14   5 -12    0.63    0.33
  14   5 -12    0.24    0.27
 -14   5  12    0.30    0.27
  14  -5 -12   -0.18    0.24
 -14   5  11    0.37    0.25
  14   5 -11    0.76    0.32
  14   5 -11    0.53    0.30
  14  -5 -11   -0.14    0.26
  14   5 -10    0.91    0.32
 -14   5  10    0.65    0.28
  14   5 -10    1.40    0.38
  14  -5 -10    1.34    0.38
 -14   5   9   -0.17    0.20
  14   5  -9   -0.26    0.20
  14   5  -9    0.48    0.26
  14  -5  -9   -0.07    0.21
  14   5  -8    0.07    0.22
  14   5  -8   -0.20    0.21
 -14   5   8   -0.09    0.18
 -14   5   7    0.41    0.25
  14   5  -7    1.56    0.32
  14   5  -7    1.36    0.35
  14   5  -6    0.05    0.20
 -14   5   6    0.15    0.22
  14   5  -6    0.19    0.24
  14   5  -5    2.00    0.34
  14   5  -5    3.09    0.47
 -14   5   5    2.18    0.39
  14   5  -4    0.61    0.28
 -14   5   4    0.66    0.26
  14   5  -4    0.12    0.20
 -14   5   3    0.11    0.20
  14   5  -3    0.37    0.24
  14   5  -2    0.96    0.30
 -14   5   2    0.61    0.25
 -14   5   1    0.24    0.20
  14   5  -1    0.00    0.20
 -14   5   0   -0.05    0.19
  14   5   0    0.04    0.20
 -14   5   0   -0.22    0.18
 -14   5  -1    0.96    0.31
  14   5   1    1.13    0.32
 -14   5  -1    1.47    0.32
 -14  -5  -1    1.08    0.24
 -14   5  -2    0.24    0.22
 -14   5  -2    0.41    0.24
  14   5   2    0.24    0.23
 -14  -5  -2    0.21    0.19
  14   5   3    2.19    0.38
 -14   5  -3    2.45    0.41
 -14   5  -3    1.28    0.31
 -14  -5  -3    1.55    0.30
 -14   5  -4    0.78    0.26
 -14   5  -4    0.27    0.25
  14   5   4    0.40    0.26
 -14  -5  -4    0.66    0.26
 -14   5  -5    1.51    0.31
  14   5   5    1.18    0.32
 -14   5  -5    1.61    0.37
 -14  -5  -5    1.22    0.31
  14   5   6    1.09    0.32
 -14   5  -6    0.37    0.25
 -14  -5  -6    1.26    0.32
 -14   5  -7    2.54    0.45
 -14  -5  -7    4.05    0.51
 -14   5  -8    0.24    0.28
 -14  -5  -8    0.54    0.29
 -14   5  -9    1.26    0.36
 -14  -5  -9    0.77    0.33
 -14   5 -10    0.71    0.33
 -14  -5 -10    0.49    0.31
 -14   5 -11    0.28    0.29
 -14  -5 -11    0.14    0.27
 -14   5 -12    0.62    0.35
 -14  -5 -12    0.72    0.36
 -14   6  15    0.71    0.36
  14   6 -15    1.30    0.44
  14  -6 -15    0.99    0.45
  14   6 -14    3.11    0.53
 -14   6  14    2.92    0.51
  14   6 -14    1.46    0.44
  14  -6 -14    2.82    0.59
 -14   6  13   -0.01    0.26
  14   6 -13    0.26    0.31
  14   6 -13    0.49    0.35
  14  -6 -13    0.38    0.36
 -14   6  12    2.71    0.48
  14   6 -12    2.78    0.51
  14   6 -12    2.38    0.49
  14  -6 -12    2.13    0.49
  14   6 -11    0.33    0.28
  14   6 -11   -0.06    0.25
 -14   6  11   -0.06    0.25
  14  -6 -11    0.12    0.30
 -14   6  10    0.17    0.25
  14   6 -10   -0.29    0.22
  14   6 -10    0.20    0.25
  14  -6 -10    0.31    0.30
  14   6  -9    0.37    0.27
  14   6  -9    0.39    0.29
 -14   6   9    0.70    0.29
  14  -6  -9    0.66    0.31
  14   6  -8    1.00    0.32
  14   6  -8    1.10    0.32
 -14   6   8    0.82    0.30
  14   6  -7    0.07    0.24
 -14   6   7   -0.12    0.20
  14   6  -6    1.11    0.35
 -14   6   6    0.58    0.28
 -14   6   5    2.05    0.39
  14   6  -5    1.41    0.35
  14   6  -4    6.20    0.64
 -14   6   4    4.27    0.52
 -14   6   3    0.79    0.29
  14   6  -3    0.63    0.26
  14   6  -2    0.74    0.30
 -14   6   2    1.37    0.33
  14   6  -1    2.46    0.41
 -14   6   1    2.43    0.40
 -14   6   0    0.14    0.23
  14   6   0    0.67    0.28
 -14   6   0    0.12    0.20
 -14   6  -1    1.12    0.30
 -14   6  -1    0.89    0.29
  14   6   1    0.20    0.24
 -14  -6  -1    1.07    0.27
 -14   6  -2    4.69    0.54
 -14   6  -2    5.99    0.63
  14   6   2    4.90    0.57
 -14  -6  -2    6.40    0.55
  14   6   3    1.31    0.35
 -14   6  -3    1.58    0.36
 -14   6  -3    1.04    0.30
 -14  -6  -3    1.18    0.29
  14   6   4    6.91    0.66
 -14   6  -4    5.72    0.65
 -14   6  -4    6.66    0.61
 -14  -6  -4    5.44    0.54
 -14   6  -5    0.24    0.23
 -14   6  -5   -0.11    0.20
  14   6   5    0.09    0.24
 -14  -6  -5    0.24    0.24
 -14   6  -6    6.00    0.67
  14   6   6    6.40    0.63
 -14  -6  -6    6.30    0.62
 -14   6  -7   -0.04    0.25
 -14  -6  -7    0.13    0.25
 -14   6  -8   -0.22    0.23
 -14  -6  -8    0.03    0.24
 -14   6  -9   -0.01    0.27
 -14  -6  -9    0.13    0.30
 -14   6 -10    0.19    0.31
 -14  -6 -10    0.99    0.37
 -14   6 -11    0.15    0.30
 -14  -6 -11    0.24    0.32
  14   7 -14    1.44    0.42
 -14   7  14    1.64    0.42
  14   7 -13    0.53    0.35
 -14   7  13    0.22    0.31
  14  -7 -13    0.37    0.37
 -14   7  12    0.14    0.30
  14   7 -12    0.12    0.30
  14  -7 -12    0.15    0.33
 -14   7  11    2.02    0.44
  14   7 -11    1.74    0.44
  14  -7 -11    2.19    0.48
 -14   7  10    0.34    0.28
  14   7 -10    0.16    0.29
  14  -7 -10    0.48    0.33
 -14   7   9    3.06    0.49
  14   7  -9    2.56    0.47
  14   7  -8    0.59    0.31
 -14   7   8    0.92    0.32
 -14   7   7    0.84    0.32
  14   7  -7    0.50    0.30
  14   7  -6   -0.04    0.23
 -14   7   6   -0.01    0.21
 -14   7   5    2.05    0.41
  14   7  -5    1.47    0.37
 -14   7   4   -0.20    0.20
  14   7  -4    0.43    0.26
 -14   7   3    3.65    0.50
  14   7  -3    2.87    0.47
 -14   7   2   -0.03    0.22
  14   7  -2   -0.01    0.23
  14   7  -1    0.53    0.27
 -14   7   1    0.44    0.26
 -14   7   0    0.73    0.29
 -14   7   0    1.26    0.35
  14   7   0    1.43    0.37
 -14   7  -1    0.22    0.24
  14   7   1    0.16    0.24
 -14   7  -1    0.29    0.26
  14   7   2    0.50    0.28
 -14   7  -2   -0.29    0.18
 -14   7  -2    0.23    0.25
 -14  -7  -2    0.13    0.21
 -14   7  -3   12.65    0.80
 -14   7  -3   14.11    0.91
  14   7   3   13.39    0.85
 -14  -7  -3   15.24    0.80
 -14   7  -4    0.31    0.28
 -14   7  -4    0.03    0.24
  14   7   4    0.09    0.27
 -14  -7  -4    0.09    0.24
  14   7   5    3.23    0.50
 -14   7  -5    2.69    0.43
 -14   7  -5    2.49    0.46
 -14  -7  -5    2.81    0.45
  14   7   6    1.37    0.37
 -14   7  -6    1.33    0.38
 -14  -7  -6    1.86    0.40
 -14   7  -7    1.13    0.37
 -14  -7  -7    0.93    0.32
 -14   7  -8   -0.02    0.26
 -14  -7  -8    0.16    0.27
 -14   7  -9    1.02    0.39
 -14  -7  -9    0.47    0.33
 -14   7 -10   -0.06    0.28
 -14  -7 -10    0.27    0.33
  14   8 -12    1.32    0.42
 -14   8  12    0.95    0.37
  14  -8 -12    0.66    0.40
  14   8 -11    0.06    0.34
 -14   8  11    0.10    0.30
  14  -8 -11    0.74    0.39
  14   8 -10    3.40    0.57
 -14   8  10    2.60    0.48
  14  -8 -10    2.79    0.54
 -14   8   9    0.66    0.34
  14   8  -9    1.45    0.41
  14  -8  -9    1.51    0.42
 -14   8   8    2.15    0.44
  14   8  -8    2.37    0.47
  14   8  -7    0.46    0.32
 -14   8   7    0.06    0.27
 -14   8   6    0.19    0.26
  14   8  -6    0.09    0.27
 -14   8   5    0.47    0.28
  14   8  -5    0.42    0.29
 -14   8   4    1.85    0.42
  14   8  -4    1.86    0.41
 -14   8   3    1.80    0.40
  14   8  -3    0.80    0.34
  14   8  -2    0.26    0.26
 -14   8   2    0.04    0.24
  14   8  -1    2.19    0.44
 -14   8   1    3.25    0.49
 -14   8   0    1.35    0.36
 -14   8   0    0.84    0.33
  14   8   0    1.40    0.39
  14   8   1    0.29    0.27
 -14   8  -1    0.38    0.29
 -14   8  -1   -0.24    0.21
 -14   8  -2    0.55    0.29
 -14   8  -2    0.27    0.29
  14   8   2   -0.05    0.26
 -14   8  -3    0.38    0.31
  14   8   3    0.76    0.35
 -14   8  -3    0.09    0.25
 -14  -8  -3    0.22    0.24
  14   8   4   -0.11    0.25
 -14   8  -4    0.01    0.24
 -14   8  -4   -0.05    0.26
 -14  -8  -4    0.34    0.26
 -14   8  -5    2.57    0.48
  14   8   5    1.27    0.38
 -14  -8  -5    1.16    0.33
 -14   8  -6    0.40    0.32
  14   8   6    0.24    0.31
 -14  -8  -6    0.09    0.27
 -14   8  -7    0.20    0.30
 -14  -8  -7    0.59    0.33
 -14   8  -8    1.67    0.46
 -14  -8  -8    2.11    0.45
 -14  -8  -9    3.69    0.58
 -14   9  11   -0.21    0.27
  14   9 -11    0.03    0.32
  14   9 -10    2.71    0.53
 -14   9  10    2.01    0.48
  14  -9 -10    1.79    0.47
  14   9  -9    0.42    0.35
 -14   9   9    0.33    0.32
  14  -9  -9    0.20    0.33
  14   9  -8    0.33    0.32
 -14   9   8    0.25    0.32
  14   9  -7    1.04    0.39
 -14   9   7    0.20    0.31
 -14   9   6   -0.08    0.25
  14   9  -6    0.22    0.30
  14   9  -5    0.28    0.29
 -14   9   5    0.05    0.27
 -14   9   4    0.61    0.31
  14   9  -4    0.34    0.30
 -14   9   3   -0.27    0.25
  14   9  -3   -0.10    0.24
  14   9  -2    3.57    0.57
 -14   9   2    3.54    0.54
  14   9  -1    0.14    0.29
 -14   9   1    0.21    0.27
  14   9   0    0.03    0.27
 -14   9   0    0.12    0.27
 -14   9  -1    0.16    0.26
  14   9   1   -0.03    0.28
 -14   9  -1    0.08    0.27
 -14   9  -2    1.92    0.42
 -14   9  -2    1.10    0.40
  14   9   2    1.42    0.42
 -14   9  -3    0.88    0.35
  14   9   3    0.58    0.34
 -14   9  -3    0.69    0.32
  14   9   4    3.06    0.55
 -14   9  -4    2.97    0.50
 -14   9  -4    1.94    0.49
 -14  -9  -4    2.54    0.44
  14   9   5    0.24    0.32
 -14   9  -5    0.12    0.29
 -14  -9  -5    0.36    0.31
 -14   9  -6    2.67    0.53
  14   9   6    3.15    0.56
 -14  -9  -6    3.80    0.56
 -14   9  -7    0.55    0.35
 -14  -9  -7    0.52    0.33
  14  10  -8    0.08    0.33
 -14  10   8    0.24    0.34
  14  10  -7    0.63    0.36
 -14  10   7    1.01    0.39
  14  10  -6    0.12    0.31
 -14  10   6   -0.02    0.27
  14  10  -5   -0.23    0.28
 -14  10   5   -0.12    0.28
 -14  10   4    0.04    0.30
  14  10  -4    0.58    0.35
 -14  10   3    2.89    0.52
  14  10  -3    1.80    0.46
 -14  10   2   -0.20    0.28
  14  10  -2    0.18    0.31
  14  10  -1    0.05    0.28
 -14  10   1    0.25    0.31
 -14  10   0    0.03    0.30
  14  10   0    0.67    0.34
 -14  10  -1    4.20    0.62
 -14  10  -1    4.40    0.61
  14  10   1    4.10    0.64
  14  10   2    0.56    0.35
 -14  10  -2    0.12    0.29
 -14  10  -2   -0.14    0.30
 -14  10  -3    0.34    0.34
  14  10   3    0.54    0.36
 -14  10  -3    1.18    0.39
  14  10   4   -0.08    0.31
 -14  10  -4    0.13    0.31
 -14  10  -4    0.54    0.36
 -14  11   3    0.51    0.37
  14  11  -3   -0.04    0.31
 -14  11   2    0.71    0.37
  14  11  -2    1.26    0.45
 -14  11   1    0.45    0.33
  14  11  -1   -0.10    0.32
  14  11   0    2.85    0.57
  15   0 -16    0.71    0.40
 -15   0  15   -0.02    0.23
  15   0 -15    0.00    0.29
  15   0 -14    1.11    0.41
 -15   0  14    0.66    0.30
 -15   0  13   -0.03    0.22
  15   0 -13   -0.24    0.25
 -15   0  12    0.05    0.22
  15   0 -12   -0.20    0.26
 -15   0  11   -0.13    0.18
  15   0 -11    0.52    0.31
 -15   0  10    2.30    0.40
  15   0 -10    2.41    0.46
 -15   0   9   -0.26    0.15
  15   0  -9   -0.01    0.21
 -15   0   8    0.76    0.26
  15   0  -8    0.79    0.30
  15   0  -7    0.00    0.21
 -15   0   7    0.19    0.20
 -15   0   6   16.92    0.87
 -15   0   5   -0.16    0.17
 -15   0   4    7.73    0.56
 -15   0   3    0.05    0.17
 -15   0   2    2.12    0.33
 -15   0   1    0.07    0.16
 -15   0   0    1.29    0.28
 -15   0  -1    0.03    0.17
 -15   0  -2    7.46    0.55
 -15   0  -2    7.79    0.54
 -15   0  -3   -0.12    0.16
 -15   0  -3   -0.16    0.17
 -15   0  -4    1.08    0.24
 -15   0  -4    0.61    0.25
 -15   0  -5    0.10    0.20
 -15   0  -5   -0.08    0.16
 -15   0  -6    1.95    0.36
 -15   0  -7    0.43    0.24
 -15   0  -8    0.40    0.25
 -15   0  -9    0.14    0.25
 -15   0 -10    0.21    0.26
 -15   0 -11   -0.05    0.25
 -15   0 -12    1.85    0.42
  15   1 -16    0.45    0.37
  15  -1 -16    0.20    0.34
  15   1 -15    0.22    0.35
 -15   1  15    0.70    0.30
 -15  -1  15    0.67    0.30
  15  -1 -15    0.93    0.41
 -15   1  14    4.25    0.54
  15   1 -14    4.60    0.64
 -15  -1  14    5.15    0.59
  15  -1 -14    4.20    0.65
 -15   1  13    0.62    0.29
  15   1 -13    1.22    0.38
  15  -1 -13    0.74    0.38
 -15  -1  13    0.76    0.30
  15   1 -12    4.23    0.59
 -15   1  12    4.52    0.53
 -15  -1  12    4.70    0.55
  15  -1 -12    4.64    0.61
  15   1 -11    2.44    0.46
 -15   1  11    2.30    0.40
  15  -1 -11    2.76    0.48
 -15  -1  11    2.81    0.43
  15   1 -10    5.45    0.62
 -15   1  10    5.29    0.57
 -15  -1  10    4.65    0.55
  15  -1 -10    4.97    0.60
 -15   1   9    1.46    0.32
  15   1  -9    1.06    0.34
  15  -1  -9    0.46    0.29
 -15  -1   9    1.49    0.32
 -15   1   8    0.19    0.20
  15   1  -8   -0.14    0.20
 -15  -1   8   -0.08    0.18
  15  -1  -8   -0.39    0.19
 -15   1   7    0.74    0.27
  15   1  -7    0.55    0.25
 -15  -1   7    0.85    0.26
 -15   1   6    5.62    0.57
  15   1  -6    4.84    0.54
 -15  -1   6    5.98    0.57
 -15   1   5    5.82    0.57
 -15  -1   5    7.16    0.62
 -15   1   4    6.94    0.61
 -15  -1   4    7.12    0.61
 -15   1   3    4.48    0.50
 -15  -1   3    4.96    0.51
 -15   1   2    0.44    0.20
 -15  -1   2    0.41    0.21
 -15   1   1    0.58    0.23
 -15  -1   1    0.28    0.20
 -15   1   0    3.56    0.44
 -15  -1   0    5.42    0.51
 -15   1  -1    6.89    0.51
 -15   1  -1    7.37    0.56
 -15  -1  -1    7.53    0.52
 -15   1  -2    0.20    0.19
 -15   1  -2    0.08    0.22
 -15  -1  -2    0.02    0.18
 -15   1  -3    6.50    0.61
 -15   1  -3    6.43    0.55
 -15  -1  -3    7.79    0.54
 -15  -1  -3    6.82    0.52
 -15  -1  -3    6.69    0.50
 -15   1  -4    3.67    0.47
 -15   1  -4    3.75    0.41
 -15  -1  -4    3.46    0.40
 -15  -1  -4    2.32    0.37
 -15  -1  -4    2.96    0.42
 -15   1  -5    1.09    0.25
  15   1   5    0.33    0.21
 -15   1  -5    0.05    0.21
 -15  -1  -5    0.02    0.21
 -15  -1  -5    0.03    0.22
 -15  -1  -5    0.56    0.22
 -15   1  -6    3.64    0.49
 -15  -1  -6    3.37    0.44
 -15  -1  -6    3.52    0.46
 -15   1  -7   -0.36    0.20
 -15  -1  -7    0.09    0.23
 -15  -1  -7    0.29    0.24
 -15   1  -8    2.66    0.42
 -15  -1  -8    2.58    0.44
 -15  -1  -8    1.34    0.33
 -15   1  -9   -0.06    0.22
 -15  -1  -9    0.40    0.29
 -15  -1  -9    0.14    0.23
 -15   1 -10    0.31    0.27
 -15  -1 -10    0.31    0.31
 -15  -1 -10    0.87    0.33
 -15   1 -11   -0.01    0.27
 -15  -1 -11   -0.33    0.26
 -15   1 -12    0.15    0.28
 -15  -1 -12    0.65    0.35
 -15   2  16    0.69    0.31
  15   2 -16   -0.03    0.31
  15  -2 -16    0.40    0.37
 -15   2  15    0.39    0.27
  15   2 -15    0.26    0.31
  15   2 -15    0.54    0.37
  15  -2 -15    0.32    0.31
 -15  -2  15    0.03    0.24
  15   2 -14    0.30    0.34
 -15   2  14   -0.03    0.23
  15   2 -14    0.01    0.26
  15  -2 -14    0.04    0.31
 -15  -2  14   -0.15    0.24
 -15   2  13    2.43    0.43
  15   2 -13    2.72    0.51
 -15  -2  13    3.08    0.46
  15  -2 -13    2.78    0.53
 -15   2  12   -0.08    0.22
  15   2 -12    0.22    0.29
 -15  -2  12    0.28    0.24
  15  -2 -12    0.40    0.30
 -15   2  11    0.61    0.27
  15   2 -11    0.30    0.30
  15  -2 -11    0.24    0.27
 -15  -2  11    0.42    0.25
 -15   2  10    4.74    0.54
  15   2 -10    4.31    0.57
  15  -2 -10    4.37    0.58
 -15  -2  10    5.67    0.59
 -15   2   9    2.43    0.40
  15   2  -9    1.61    0.38
 -15  -2   9    2.13    0.37
  15  -2  -9    1.88    0.41
 -15   2   8   -0.21    0.17
  15   2  -8    0.45    0.27
  15  -2  -8   -0.27    0.21
 -15  -2   8    0.07    0.19
 -15   2   7    1.10    0.28
  15   2  -7    0.73    0.29
 -15  -2   7    0.89    0.27
  15   2  -6    0.03    0.21
 -15   2   6    0.12    0.17
 -15  -2   6    0.47    0.23
 -15   2   5    5.81    0.58
  15   2  -5    5.91    0.56
 -15  -2   5    6.61    0.59
 -15   2   4    0.21    0.19
 -15  -2   4    0.70    0.25
 -15   2   3    8.80    0.62
 -15  -2   3    9.43    0.62
 -15   2   2    2.23    0.36
 -15  -2   2    2.35    0.37
 -15   2   1    4.44    0.48
 -15  -2   1    4.52    0.48
 -15   2   0    1.94    0.34
 -15  -2   0    1.39    0.30
 -15   2  -1    1.70    0.31
 -15   2  -1    1.65    0.33
 -15  -2  -1    2.07    0.30
 -15  -2  -1    2.06    0.34
 -15   2  -2    6.72    0.50
  15   2   2    6.09    0.56
 -15   2  -2    5.56    0.56
 -15  -2  -2    6.77    0.49
 -15  -2  -2    6.61    0.57
 -15   2  -3    2.60    0.41
  15   2   3    3.01    0.40
 -15   2  -3    2.60    0.38
 -15  -2  -3    2.10    0.34
 -15  -2  -3    2.21    0.35
 -15   2  -4    4.75    0.47
  15   2   4    4.46    0.48
 -15   2  -4    3.50    0.48
 -15  -2  -4    3.80    0.44
 -15  -2  -4    4.09    0.45
 -15   2  -5    6.02    0.52
 -15   2  -5    4.92    0.57
  15   2   5    6.33    0.56
 -15  -2  -5    5.37    0.52
 -15  -2  -5    4.68    0.51
 -15   2  -6   -0.03    0.22
 -15  -2  -6   -0.14    0.19
 -15  -2  -6    0.11    0.22
 -15   2  -7    0.83    0.30
 -15  -2  -7    1.07    0.31
 -15  -2  -7    1.03    0.30
 -15   2  -8    0.61    0.27
 -15  -2  -8    0.42    0.26
 -15   2  -9    0.70    0.29
 -15  -2  -9    1.18    0.34
 -15   2 -10    0.44    0.30
 -15  -2 -10   -0.16    0.22
 -15   2 -11    2.05    0.45
 -15  -2 -11    2.10    0.45
 -15   2 -12    0.32    0.31
 -15  -2 -12    1.03    0.39
  15   3 -16    3.21    0.60
  15  -3 -16    2.84    0.61
  15   3 -15   -0.09    0.29
  15   3 -15   -0.09    0.30
 -15   3  15   -0.19    0.24
  15  -3 -15   -0.21    0.32
  15   3 -14    1.94    0.44
  15   3 -14    1.55    0.42
 -15   3  14    1.89    0.43
  15  -3 -14    1.28    0.45
  15   3 -13   -0.32    0.26
  15   3 -13    0.21    0.26
 -15   3  13   -0.05    0.23
  15  -3 -13   -0.21    0.30
  15   3 -12    3.76    0.53
  15   3 -12    3.35    0.52
 -15   3  12    3.52    0.51
  15  -3 -12    2.77    0.52
  15   3 -11    0.27    0.27
 -15   3  11    0.73    0.31
  15   3 -11    0.26    0.26
 -15  -3  11    0.57    0.27
  15  -3 -11    0.36    0.31
  15   3 -10    1.45    0.36
 -15   3  10    0.73    0.30
  15   3 -10    0.66    0.29
 -15  -3  10    1.15    0.31
  15  -3 -10    1.76    0.41
 -15   3   9   -0.05    0.17
  15   3  -9   -0.02    0.21
  15   3  -9   -0.30    0.21
  15  -3  -9   -0.18    0.21
 -15  -3   9   -0.08    0.18
  15   3  -8   -0.20    0.20
 -15   3   8    0.42    0.23
 -15  -3   8    0.33    0.22
  15   3  -7    1.63    0.34
 -15   3   7    1.44    0.33
 -15  -3   7    1.67    0.34
  15   3  -6    1.70    0.35
 -15   3   6    1.08    0.29
 -15  -3   6    1.79    0.34
  15   3  -5    0.11    0.19
 -15   3   5    0.14    0.20
 -15  -3   5    0.14    0.19
  15   3  -4   13.53    0.75
 -15   3   4   13.03    0.76
 -15  -3   4   13.12    0.75
  15   3  -3    0.55    0.26
 -15   3   3    0.82    0.26
 -15  -3   3    1.13    0.28
  15   3  -2    1.04    0.28
 -15   3   2    1.14    0.30
 -15  -3   2    0.68    0.24
  15   3  -1    0.21    0.21
 -15   3   1    0.31    0.21
 -15  -3   1    0.84    0.26
 -15   3   0    0.71    0.27
  15   3   0    1.03    0.29
 -15   3   0    0.44    0.23
 -15   3  -1    1.43    0.30
 -15   3  -1    2.00    0.37
  15   3   1    1.44    0.33
 -15  -3  -1    1.17    0.26
  15   3   2    2.84    0.41
 -15   3  -2    2.64    0.41
 -15   3  -2    2.46    0.36
 -15  -3  -2    2.22    0.33
  15   3   3    2.93    0.41
 -15   3  -3    2.82    0.43
 -15   3  -3    2.04    0.35
 -15  -3  -3    2.73    0.37
  15   3   4    5.36    0.54
 -15   3  -4    6.05    0.62
 -15   3  -4    5.86    0.54
 -15  -3  -4    6.43    0.57
  15   3   5    1.31    0.31
 -15   3  -5    2.56    0.43
 -15   3  -5    1.71    0.32
 -15  -3  -5    1.71    0.34
 -15   3  -6    5.34    0.60
 -15  -3  -6    4.96    0.54
 -15   3  -7    0.86    0.32
 -15  -3  -7    0.96    0.32
 -15   3  -8    0.76    0.32
 -15  -3  -8    0.36    0.28
 -15   3  -9    1.02    0.34
 -15  -3  -9    0.83    0.31
 -15   3 -10    0.09    0.27
 -15  -3 -10    0.30    0.28
 -15   3 -11    2.12    0.46
 -15  -3 -11    2.84    0.49
 -15   3 -12   -0.23    0.26
 -15  -3 -12    0.22    0.30
  15   4 -15    2.15    0.50
 -15   4  15    2.49    0.47
  15   4 -15    2.33    0.48
  15  -4 -15    1.94    0.51
 -15   4  14    1.02    0.37
  15   4 -14    1.12    0.39
  15   4 -14    1.09    0.39
  15  -4 -14    1.25    0.45
  15   4 -13    2.05    0.46
  15   4 -13    2.95    0.49
 -15   4  13    2.84    0.47
  15  -4 -13    2.28    0.52
  15   4 -12    0.14    0.30
  15   4 -12    0.32    0.28
 -15   4  12    0.21    0.26
  15  -4 -12    0.30    0.31
  15   4 -11    3.01    0.50
 -15   4  11    3.63    0.51
  15   4 -11    2.53    0.48
  15  -4 -11    2.54    0.48
  15   4 -10   -0.22    0.21
  15   4 -10    0.18    0.25
 -15   4  10    0.28    0.23
  15  -4 -10    0.17    0.27
  15   4  -9    1.69    0.38
 -15   4   9    1.20    0.34
  15   4  -9    0.59    0.30
  15  -4  -9    0.72    0.33
 -15   4   8    0.18    0.23
  15   4  -8   -0.01    0.21
  15   4  -8   -0.01    0.23
 -15   4   7    0.61    0.25
  15   4  -7    0.31    0.25
  15   4  -7   -0.17    0.19
  15   4  -6   -0.24    0.18
  15   4  -6   -0.32    0.19
 -15   4   6    0.30    0.21
  15   4  -5    5.44    0.53
 -15   4   5    4.76    0.55
  15   4  -5    5.97    0.61
  15   4  -4    1.07    0.31
 -15   4   4    1.02    0.28
  15   4  -4    0.86    0.27
 -15   4   3    1.59    0.33
  15   4  -3    1.07    0.31
  15   4  -3    1.47    0.29
  15   4  -2    0.10    0.20
 -15   4   2    0.04    0.17
  15   4  -2    0.07    0.18
  15   4  -1    0.15    0.22
 -15   4   1    0.13    0.19
 -15   4   0   -0.06    0.20
 -15   4   0    0.21    0.22
  15   4   0    0.28    0.23
 -15   4  -1    0.60    0.28
 -15   4  -1    0.24    0.22
  15   4   1    0.73    0.28
 -15   4  -2    0.63    0.25
 -15   4  -2    0.17    0.21
  15   4   2    0.79    0.28
 -15  -4  -2    0.71    0.23
  15   4   3    5.15    0.55
 -15   4  -3    4.31    0.55
 -15   4  -3    4.60    0.49
 -15  -4  -3    5.56    0.51
  15   4   4    2.73    0.41
 -15   4  -4    2.77    0.39
 -15   4  -4    2.75    0.46
 -15  -4  -4    2.97    0.42
  15   4   5    5.07    0.54
 -15   4  -5    4.12    0.54
 -15   4  -5    6.18    0.55
 -15  -4  -5    5.39    0.55
  15   4   6    1.16    0.32
 -15   4  -6    1.11    0.34
 -15  -4  -6    0.50    0.25
 -15   4  -7    2.37    0.44
 -15  -4  -7    1.47    0.36
 -15   4  -8    0.17    0.26
 -15  -4  -8   -0.22    0.23
 -15   4  -9    0.07    0.26
 -15  -4  -9    0.20    0.28
 -15   4 -10    0.86    0.35
 -15  -4 -10    0.73    0.31
 -15   4 -11   -0.31    0.23
 -15  -4 -11    0.28    0.28
  15   5 -15    0.10    0.35
 -15   5  15    0.10    0.31
  15   5 -15    0.38    0.35
  15  -5 -15   -0.40    0.35
 -15   5  14   -0.01    0.25
  15   5 -14   -0.27    0.28
  15   5 -14   -0.02    0.28
  15  -5 -14   -0.50    0.31
 -15   5  13    0.30    0.26
  15   5 -13    0.01    0.29
  15   5 -13    0.44    0.34
  15  -5 -13    0.24    0.34
  15   5 -12    0.69    0.34
 -15   5  12    0.62    0.32
  15   5 -12    0.52    0.33
  15  -5 -12    0.33    0.35
  15   5 -11    1.14    0.37
 -15   5  11    0.56    0.29
  15   5 -11    1.05    0.36
  15  -5 -11    1.06    0.37
 -15   5  10    0.29    0.25
  15   5 -10    0.57    0.31
  15   5 -10    0.47    0.30
  15  -5 -10   -0.13    0.23
 -15   5   9    0.47    0.27
  15   5  -9    0.11    0.24
  15   5  -9    0.31    0.27
  15  -5  -9   -0.30    0.24
  15   5  -8    0.07    0.23
 -15   5   8    0.11    0.21
  15   5  -8    0.02    0.21
 -15   5   7    0.17    0.23
  15   5  -7   -0.20    0.19
  15   5  -7   -0.18    0.20
 -15   5   6    0.34    0.23
  15   5  -6   -0.06    0.21
  15   5  -6    0.03    0.22
  15   5  -5    0.05    0.20
  15   5  -5    0.04    0.21
 -15   5   5    0.26    0.22
 -15   5   4    0.29    0.21
  15   5  -4    0.34    0.26
 -15   5   3    0.62    0.27
  15   5  -3    0.89    0.30
 -15   5   2    2.05    0.38
  15   5  -2    2.39    0.42
  15   5  -1    5.88    0.62
 -15   5   1    5.91    0.59
 -15   5   0   -0.14    0.19
 -15   5   0   -0.18    0.19
  15   5   0    0.39    0.25
 -15   5  -1    0.04    0.21
 -15   5  -1    0.19    0.22
  15   5   1    0.14    0.24
  15   5   2    0.31    0.26
 -15   5  -2    0.30    0.22
 -15   5  -2    0.58    0.26
 -15  -5  -2    0.16    0.21
 -15   5  -3    5.41    0.63
  15   5   3    6.53    0.64
 -15   5  -3    7.53    0.64
 -15  -5  -3    7.03    0.59
 -15   5  -4    0.68    0.29
 -15   5  -4    0.81    0.28
  15   5   4    1.19    0.33
 -15  -5  -4    0.59    0.25
 -15   5  -5    0.59    0.29
 -15   5  -5    0.52    0.24
  15   5   5    0.86    0.31
 -15  -5  -5    0.29    0.24
 -15   5  -6    0.76    0.30
  15   5   6    0.43    0.27
 -15  -5  -6    0.54    0.27
 -15   5  -7    0.20    0.26
 -15  -5  -7   -0.17    0.23
 -15   5  -8    0.18    0.28
 -15  -5  -8   -0.02    0.25
 -15   5  -9   -0.29    0.24
 -15  -5  -9    0.03    0.28
 -15   5 -10   -0.25    0.25
 -15  -5 -10    0.29    0.31
 -15   5 -11    0.98    0.39
 -15  -5 -11    0.79    0.34
  15   6 -14    1.43    0.43
  15   6 -14    1.68    0.45
 -15   6  14    0.60    0.34
  15  -6 -14    0.63    0.43
  15   6 -13    0.43    0.36
  15   6 -13   -0.06    0.29
 -15   6  13    0.16    0.28
  15  -6 -13    0.00    0.35
 -15   6  12    2.66    0.50
  15   6 -12    2.51    0.51
  15   6 -12    2.43    0.49
  15  -6 -12    1.97    0.50
  15   6 -11    0.00    0.28
 -15   6  11   -0.06    0.25
  15   6 -11    0.38    0.31
  15  -6 -11    0.26    0.32
  15   6 -10    0.75    0.33
  15   6 -10    0.36    0.29
 -15   6  10    0.16    0.25
  15  -6 -10    0.29    0.31
  15   6  -9    0.27    0.28
 -15   6   9    0.14    0.26
  15   6  -8    1.56    0.38
 -15   6   8    1.58    0.37
  15   6  -7    0.89    0.33
 -15   6   7    0.36    0.27
 -15   6   6    0.36    0.25
  15   6  -6    0.92    0.33
 -15   6   5    1.28    0.33
  15   6  -5    1.50    0.37
  15   6  -4    0.24    0.25
 -15   6   4    0.71    0.26
  15   6  -3    1.82    0.39
 -15   6   3    1.29    0.33
 -15   6   2    1.60    0.36
  15   6  -2    2.21    0.43
 -15   6   1   -0.11    0.20
  15   6  -1    0.44    0.25
  15   6   0    5.42    0.61
 -15   6   0    5.71    0.60
 -15   6   0    5.62    0.63
 -15   6  -1    0.19    0.22
  15   6   1    0.06    0.24
 -15   6  -1    0.07    0.25
 -15   6  -2    3.46    0.51
  15   6   2    3.34    0.49
 -15   6  -2    3.06    0.46
 -15   6  -3    0.51    0.27
 -15   6  -3    0.14    0.23
  15   6   3    0.00    0.26
 -15  -6  -3    0.29    0.23
 -15   6  -4    0.18    0.23
 -15   6  -4    0.03    0.25
  15   6   4   -0.03    0.24
 -15  -6  -4    0.18    0.22
  15   6   5    0.64    0.29
 -15   6  -5    0.35    0.28
 -15  -6  -5    0.17    0.26
  15   6   6    1.28    0.36
 -15   6  -6    1.15    0.38
 -15  -6  -6    1.25    0.35
 -15   6  -7    0.82    0.34
 -15  -6  -7    1.11    0.34
 -15   6  -8    2.23    0.48
 -15  -6  -8    2.02    0.42
 -15   6  -9    0.57    0.34
 -15  -6  -9    0.29    0.30
 -15   6 -10    3.26    0.55
 -15  -6 -10    2.90    0.54
 -15   7  13    0.14    0.31
  15   7 -13    0.78    0.41
  15  -7 -13    0.31    0.37
 -15   7  12    3.88    0.59
  15   7 -12    2.58    0.53
  15  -7 -12    4.64    0.67
 -15   7  11    0.37    0.31
  15   7 -11   -0.03    0.30
  15  -7 -11    0.07    0.29
 -15   7  10   -0.14    0.26
  15   7 -10    0.43    0.34
  15  -7 -10    0.62    0.36
 -15   7   9    3.10    0.51
  15   7  -9    1.79    0.45
 -15   7   8    1.16    0.35
  15   7  -8    1.28    0.38
 -15   7   7    2.84    0.47
  15   7  -7    3.60    0.54
  15   7  -6   -0.23    0.22
 -15   7   6    0.04    0.24
  15   7  -5    0.03    0.23
 -15   7   5    0.05    0.22
 -15   7   4    0.27    0.26
  15   7  -4    0.09    0.26
 -15   7   3    0.07    0.20
  15   7  -3    0.21    0.25
 -15   7   2    0.27    0.25
  15   7  -2    0.22    0.25
  15   7  -1    5.55    0.64
 -15   7   1    5.54    0.61
  15   7   0    0.53    0.30
 -15   7   0    0.03    0.24
 -15   7   0   -0.29    0.22
  15   7   1    1.77    0.39
 -15   7  -1    1.36    0.36
 -15   7  -1    1.39    0.35
  15   7   2    0.53    0.29
 -15   7  -2    0.09    0.24
 -15   7  -2   -0.10    0.22
 -15   7  -3    1.30    0.38
  15   7   3    1.36    0.39
 -15   7  -3    1.27    0.35
 -15   7  -4    0.28    0.26
 -15   7  -4    0.27    0.28
  15   7   4    0.40    0.30
 -15  -7  -4    0.57    0.29
 -15   7  -5    0.39    0.31
  15   7   5    0.58    0.31
 -15  -7  -5    0.33    0.29
 -15   7  -6    2.34    0.48
 -15  -7  -6    2.23    0.43
 -15   7  -7    0.16    0.28
 -15  -7  -7   -0.31    0.22
 -15   7  -8    0.02    0.30
 -15  -7  -8    1.16    0.41
 -15   7  -9    4.67    0.67
 -15  -7  -9    5.56    0.66
  15   8 -11   -0.35    0.28
 -15   8  11   -0.19    0.27
  15  -8 -11    0.17    0.34
 -15   8  10    0.21    0.30
  15   8 -10    0.26    0.31
  15  -8 -10    0.14    0.32
 -15   8   9   -0.02    0.28
  15   8  -9    0.33    0.33
 -15   8   8    2.83    0.51
  15   8  -8    3.36    0.56
  15   8  -7    0.91    0.36
 -15   8   7    0.56    0.33
 -15   8   6    0.03    0.26
  15   8  -6    0.10    0.29
 -15   8   5    0.38    0.30
  15   8  -5    0.53    0.31
  15   8  -4    2.79    0.50
 -15   8   4    2.76    0.47
  15   8  -3    0.15    0.26
 -15   8   3   -0.07    0.24
 -15   8   2    0.13    0.25
  15   8  -2    0.21    0.28
  15   8  -1   -0.35    0.25
 -15   8   1    0.20    0.25
 -15   8   0    0.57    0.29
 -15   8  -1    3.52    0.52
  15   8   1    3.40    0.55
 -15   8  -1    3.48    0.54
 -15   8  -2    0.69    0.30
  15   8   2    0.40    0.31
 -15   8  -2    0.27    0.30
  15   8   3    4.47    0.61
 -15   8  -3    3.51    0.53
 -15   8  -3    4.55    0.61
 -15   8  -4    1.66    0.43
 -15   8  -4    0.84    0.35
  15   8   4    2.20    0.49
 -15   8  -5    2.95    0.53
  15   8   5    2.76    0.51
 -15  -8  -5    3.35    0.50
 -15   8  -6    0.79    0.36
 -15  -8  -6    0.32    0.30
 -15   8  -7    3.92    0.63
 -15  -8  -7    3.96    0.57
  15   9  -9    0.86    0.40
 -15   9   9    1.15    0.40
  15  -9  -9    0.18    0.33
  15   9  -8    0.45    0.33
 -15   9   8   -0.32    0.28
  15   9  -7    0.70    0.35
 -15   9   7    0.25    0.32
 -15   9   6    3.00    0.53
  15   9  -6    3.78    0.59
 -15   9   5   -0.11    0.25
  15   9  -5    0.30    0.31
 -15   9   4    0.19    0.28
  15   9  -4    0.48    0.33
 -15   9   3    0.18    0.29
  15   9  -3    0.46    0.32
 -15   9   2    0.04    0.29
  15   9  -2    0.05    0.28
  15   9  -1    0.15    0.29
 -15   9   1    0.16    0.29
  15   9   0    0.49    0.33
 -15   9   0    0.77    0.35
 -15   9  -1    0.88    0.37
 -15   9  -1    0.43    0.33
  15   9   1    0.27    0.33
  15   9   2    8.00    0.83
 -15   9  -2    7.08    0.74
 -15   9  -2    7.61    0.80
 -15   9  -3    0.13    0.32
 -15   9  -3    0.57    0.34
  15   9   3    0.39    0.33
 -15   9  -4    0.99    0.37
 -15   9  -4    0.32    0.34
  15   9   4    1.39    0.43
  15   9   5    0.40    0.37
 -15   9  -5    0.47    0.34
 -15  10   6   -0.18    0.29
  15  10  -6   -0.09    0.31
 -15  10   5    0.03    0.33
  15  10  -5   -0.05    0.29
 -15  10   4   -0.10    0.31
  15  10  -4    0.04    0.29
 -15  10   3    0.36    0.32
  15  10  -3    0.92    0.37
 -15  10   2    0.19    0.31
  15  10  -2    0.17    0.32
 -15  10   1    0.45    0.33
  15  10  -1    0.37    0.33
 -15  10   0    1.94    0.49
  15  10   0    1.78    0.47
  15  10   1    0.27    0.35
 -15  10  -1   -0.06    0.32
 -15  10  -2    0.21    0.32
  15  10   2    0.98    0.43
 -15  10  -2    0.83    0.39
  16   0 -16   -0.23    0.33
 -16   0  16   -0.01    0.25
 -16   0  15    0.01    0.24
  16   0 -15    0.09    0.29
 -16   0  14    1.94    0.42
  16   0 -14    2.53    0.51
 -16   0  13   -0.15    0.22
  16   0 -13   -0.18    0.28
  16   0 -12    7.76    0.81
 -16   0  12    9.18    0.78
  16   0 -11    0.05    0.29
 -16   0  11    0.32    0.24
 -16   0  10    0.05    0.20
  16   0 -10   -0.25    0.21
 -16   0   9   -0.16    0.17
  16   0  -9    0.11    0.25
 -16   0   8    0.60    0.23
  16   0  -8    0.55    0.28
  16   0  -7   -0.42    0.16
 -16   0   7   -0.12    0.16
 -16   0   6    0.25    0.22
 -16   0   5    0.18    0.20
 -16   0   4    7.36    0.65
 -16   0   3   -0.21    0.14
 -16   0   2    3.07    0.42
 -16   0   1    0.05    0.18
 -16   0   0    0.09    0.18
 -16   0  -1   -0.01    0.18
 -16   0  -2    3.12    0.43
 -16   0  -2    3.12    0.41
 -16   0  -3   -0.05    0.19
 -16   0  -3   -0.05    0.17
 -16   0  -4    1.12    0.26
 -16   0  -4    1.24    0.31
 -16   0  -5   -0.03    0.20
 -16   0  -5    0.08    0.18
 -16   0  -6    3.47    0.49
 -16   0  -7   -0.17    0.22
 -16   0  -8    1.82    0.40
 -16   0  -9    0.41    0.27
 -16   0 -10    0.40    0.29
 -16   0 -11    0.31    0.28
 -16   1  16    2.94    0.49
  16   1 -16    1.93    0.52
  16  -1 -16    2.64    0.55
 -16   1  15    0.46    0.29
  16   1 -15    0.31    0.36
 -16  -1  15    0.42    0.26
  16  -1 -15    0.31    0.36
 -16   1  14    0.50    0.30
  16   1 -14    0.70    0.36
 -16  -1  14    0.83    0.33
  16  -1 -14    0.79    0.39
 -16   1  13    4.60    0.57
  16   1 -13    4.04    0.59
  16  -1 -13    4.94    0.68
 -16  -1  13    5.70    0.61
  16   1 -12    0.06    0.29
 -16   1  12   -0.33    0.18
  16  -1 -12   -0.11    0.28
 -16  -1  12   -0.04    0.21
  16   1 -11    1.70    0.41
 -16   1  11    1.87    0.37
  16  -1 -11    1.40    0.39
 -16  -1  11    1.33    0.33
  16   1 -10   -0.03    0.23
 -16   1  10   -0.30    0.17
  16  -1 -10    0.06    0.24
 -16  -1  10    0.17    0.21
 -16   1   9    1.66    0.34
  16   1  -9    0.80    0.32
 -16  -1   9    0.68    0.28
  16  -1  -9    1.62    0.37
  16   1  -8    1.63    0.37
 -16   1   8    1.12    0.31
  16  -1  -8    1.31    0.34
 -16  -1   8    1.68    0.34
  16   1  -7    0.10    0.23
 -16   1   7    0.50    0.24
 -16  -1   7    0.05    0.17
 -16   1   6    2.33    0.38
  16   1  -6    1.89    0.37
 -16  -1   6    2.17    0.37
 -16   1   5    0.41    0.23
 -16  -1   5    0.30    0.21
 -16   1   4    0.26    0.22
 -16  -1   4    0.46    0.23
 -16   1   3    6.50    0.59
 -16  -1   3    6.81    0.62
 -16   1   2    0.14    0.20
 -16  -1   2    0.08    0.19
 -16   1   1   -0.02    0.17
 -16  -1   1   -0.22    0.16
 -16   1   0    1.60    0.31
 -16  -1   0    1.47    0.30
 -16   1  -1    2.07    0.34
 -16  -1  -1    2.28    0.36
 -16   1  -2    3.24    0.45
 -16   1  -2    2.74    0.38
 -16  -1  -2    3.11    0.42
 -16   1  -3    0.78    0.30
 -16   1  -3    0.75    0.24
 -16  -1  -3    0.90    0.27
 -16  -1  -3    1.22    0.31
 -16   1  -4    0.40    0.24
 -16   1  -4    0.12    0.19
 -16  -1  -4   -0.09    0.19
 -16  -1  -4    0.08    0.18
  16   1   5    0.33    0.23
 -16   1  -5    0.34    0.25
 -16   1  -5    0.59    0.22
 -16  -1  -5    0.01    0.22
 -16  -1  -5    0.16    0.21
 -16  -1  -5   -0.13    0.20
 -16   1  -6   -0.23    0.20
 -16  -1  -6   -0.01    0.23
 -16  -1  -6   -0.23    0.21
 -16   1  -7    0.22    0.26
 -16  -1  -7    0.68    0.30
 -16  -1  -7    0.33    0.24
 -16   1  -8    0.64    0.30
 -16  -1  -8   -0.22    0.22
 -16  -1  -8    0.27    0.29
 -16   1  -9    2.23    0.43
 -16  -1  -9    3.10    0.49
 -16  -1  -9    3.32    0.49
 -16   1 -10    0.01    0.25
 -16  -1 -10   -0.07    0.31
 -16   1 -11   -0.14    0.24
 -16  -1 -11   -0.32    0.26
 -16   2  15    0.22    0.28
  16   2 -15    0.37    0.32
  16   2 -15   -0.12    0.30
 -16  -2  15   -0.01    0.23
  16  -2 -15   -0.04    0.33
 -16   2  14    0.93    0.33
  16   2 -14    1.35    0.43
  16   2 -14    1.77    0.44
 -16  -2  14    1.96    0.42
  16  -2 -14    2.66    0.54
  16   2 -13    0.07    0.27
 -16   2  13    0.36    0.28
 -16  -2  13   -0.16    0.22
  16  -2 -13   -0.06    0.30
 -16   2  12    0.34    0.27
  16   2 -12    0.22    0.28
  16  -2 -12    0.13    0.30
 -16  -2  12    0.68    0.29
  16   2 -11    3.76    0.55
 -16   2  11    3.14    0.48
  16  -2 -11    3.58    0.55
 -16  -2  11    3.85    0.50
  16   2 -10   -0.26    0.23
 -16   2  10   -0.01    0.20
 -16  -2  10   -0.15    0.19
  16  -2 -10   -0.05    0.24
 -16   2   9    1.74    0.36
  16   2  -9    1.92    0.41
  16  -2  -9    2.76    0.47
 -16  -2   9    2.34    0.40
 -16   2   8    1.93    0.37
  16   2  -8    2.07    0.39
  16  -2  -8    1.42    0.37
 -16  -2   8    1.27    0.32
  16   2  -7   -0.14    0.19
 -16   2   7   -0.22    0.16
 -16  -2   7   -0.08    0.17
  16   2  -6    0.37    0.25
 -16   2   6    0.10    0.20
 -16  -2   6    0.55    0.23
  16   2  -5    2.59    0.40
 -16   2   5    2.84    0.42
 -16  -2   5    2.80    0.41
 -16   2   4    0.92    0.28
 -16  -2   4    0.91    0.27
 -16   2   3    9.47    0.64
 -16  -2   3    8.78    0.62
 -16   2   2    0.02    0.19
 -16  -2   2    0.27    0.21
 -16   2   1    0.65    0.25
 -16  -2   1    0.29    0.22
 -16   2   0    1.83    0.33
 -16  -2   0    1.71    0.34
 -16   2  -1    2.13    0.37
 -16   2  -1    2.40    0.42
 -16  -2  -1    1.78    0.33
  16   2   2    2.15    0.37
 -16   2  -2    2.10    0.39
 -16   2  -2    1.49    0.31
 -16  -2  -2    1.67    0.32
 -16  -2  -2    2.42    0.38
 -16   2  -3    8.36    0.72
 -16   2  -3    8.25    0.58
  16   2   3    8.44    0.62
 -16  -2  -3    8.81    0.59
 -16  -2  -3    9.21    0.58
  16   2   4    2.68    0.41
 -16   2  -4    2.62    0.38
 -16   2  -4    2.71    0.44
 -16  -2  -4    2.75    0.41
 -16  -2  -4    4.11    0.47
  16   2   5    0.20    0.22
 -16   2  -5   -0.11    0.17
 -16   2  -5   -0.13    0.21
 -16  -2  -5    0.06    0.23
 -16  -2  -5   -0.28    0.20
 -16   2  -6   -0.08    0.23
 -16  -2  -6    0.09    0.24
 -16  -2  -6    0.05    0.21
 -16   2  -7    1.14    0.34
 -16  -2  -7    1.30    0.36
 -16   2  -8    2.72    0.46
 -16  -2  -8    2.17    0.41
 -16   2  -9    1.81    0.42
 -16  -2  -9    1.54    0.40
 -16   2 -10    0.05    0.27
 -16  -2 -10    0.22    0.30
 -16   2 -11    0.28    0.31
 -16  -2 -11    0.12    0.29
 -16   3  15    0.50    0.29
  16   3 -15    0.30    0.33
  16   3 -15    0.41    0.38
  16  -3 -15    0.44    0.40
 -16   3  14    2.50    0.47
  16   3 -14    0.85    0.39
  16   3 -14    1.21    0.39
  16  -3 -14    1.65    0.46
  16   3 -13   -0.11    0.29
  16   3 -13   -0.05    0.27
 -16   3  13   -0.11    0.25
  16  -3 -13   -0.33    0.29
 -16   3  12    1.35    0.37
  16   3 -12    1.13    0.38
  16   3 -12    1.02    0.37
  16  -3 -12    1.19    0.41
  16   3 -11    0.36    0.29
  16   3 -11    0.20    0.27
 -16   3  11   -0.14    0.20
  16  -3 -11    0.09    0.30
 -16  -3  11    0.08    0.24
 -16   3  10    2.89    0.46
  16   3 -10    2.81    0.48
  16   3 -10    2.52    0.46
  16  -3 -10    4.06    0.58
 -16  -3  10    3.46    0.48
  16   3  -9    0.73    0.30
  16   3  -9    0.56    0.29
 -16   3   9    0.64    0.26
  16  -3  -9    0.30    0.29
 -16  -3   9    0.35    0.24
 -16   3   8    1.61    0.37
  16   3  -8    1.29    0.34
  16   3  -8    1.81    0.39
 -16  -3   8    1.41    0.33
 -16   3   7    0.20    0.22
  16   3  -7   -0.08    0.21
 -16  -3   7    0.09    0.21
  16   3  -6    7.47    0.67
 -16   3   6    8.73    0.65
 -16  -3   6    9.50    0.66
 -16   3   5   -0.06    0.16
  16   3  -5   -0.01    0.21
 -16  -3   5    0.02    0.19
  16   3  -4    2.64    0.40
 -16   3   4    3.10    0.43
  16   3  -4    1.94    0.37
 -16  -3   4    2.03    0.36
  16   3  -3    0.75    0.27
 -16   3   3    0.57    0.25
 -16  -3   3    0.43    0.21
  16   3  -2    2.89    0.44
 -16   3   2    2.05    0.37
 -16  -3   2    2.91    0.42
  16   3  -1    2.14    0.40
 -16   3   1    2.22    0.38
 -16  -3   1    2.50    0.39
 -16   3   0    3.28    0.43
  16   3   0    2.82    0.43
  16   3   1    0.20    0.22
 -16   3  -1    0.04    0.20
 -16   3  -1    0.21    0.23
 -16   3  -2    5.18    0.58
 -16   3  -2    4.53    0.51
  16   3   2    5.42    0.56
 -16  -3  -2    6.37    0.53
  16   3   3    2.51    0.41
 -16   3  -3    2.76    0.40
 -16   3  -3    3.43    0.49
 -16  -3  -3    2.50    0.37
  16   3   4    4.93    0.54
 -16   3  -4    4.01    0.54
 -16   3  -4    4.29    0.48
 -16  -3  -4    5.62    0.54
  16   3   5    0.10    0.22
 -16   3  -5    0.11    0.23
 -16  -3  -5    0.21    0.23
 -16   3  -6    1.36    0.36
 -16  -3  -6    0.47    0.27
 -16   3  -7    1.11    0.35
 -16  -3  -7    1.20    0.33
 -16   3  -8    1.36    0.36
 -16  -3  -8    1.13    0.35
 -16   3  -9    0.61    0.31
 -16  -3  -9    0.81    0.33
 -16   3 -10    0.57    0.34
 -16  -3 -10    0.41    0.30
 -16   3 -11    0.34    0.30
 -16  -3 -11   -0.10    0.28
  16   4 -15    1.37    0.42
 -16   4  15    1.14    0.39
  16   4 -14    0.32    0.30
 -16   4  14    0.32    0.30
  16   4 -14    0.67    0.39
  16  -4 -14    0.20    0.36
  16   4 -13   -0.18    0.26
 -16   4  13   -0.10    0.25
  16   4 -13    0.29    0.30
  16  -4 -13    0.41    0.35
 -16   4  12    1.63    0.41
  16   4 -12    1.43    0.44
  16   4 -12    2.18    0.47
  16  -4 -12    0.81    0.40
  16   4 -11    0.77    0.33
 -16   4  11    0.27    0.27
  16   4 -11    0.04    0.29
  16  -4 -11    0.20    0.32
  16   4 -10    1.05    0.37
 -16   4  10    0.97    0.32
  16   4 -10    1.10    0.34
  16  -4 -10    0.88    0.34
 -16   4   9    0.32    0.27
  16   4  -9    0.78    0.32
  16   4  -9    0.59    0.29
  16  -4  -9   -0.06    0.24
  16   4  -8    1.95    0.39
  16   4  -8    1.42    0.35
 -16   4   8    0.97    0.29
  16   4  -7    4.51    0.58
 -16   4   7    4.25    0.54
  16   4  -7    6.82    0.63
 -16   4   6    0.12    0.21
  16   4  -6   -0.21    0.19
  16   4  -6    0.13    0.22
  16   4  -5    0.04    0.21
 -16   4   5    0.07    0.21
  16   4  -5   -0.01    0.21
  16   4  -4    0.78    0.28
 -16   4   4    1.15    0.31
  16   4  -4    1.13    0.29
  16   4  -3    0.08    0.20
 -16   4   3    0.12    0.21
  16   4  -3    0.25    0.22
 -16   4   2    0.06    0.21
  16   4  -2    0.11    0.22
  16   4  -2    0.30    0.20
 -16   4   1    3.92    0.50
  16   4  -1    3.33    0.48
 -16   4   0   -0.14    0.19
  16   4   0    0.09    0.22
 -16   4  -1    6.52    0.61
 -16   4  -1    6.20    0.63
  16   4   1    5.69    0.61
 -16   4  -2    2.03    0.42
  16   4   2    2.47    0.42
 -16   4  -2    2.40    0.39
 -16   4  -3    3.18    0.48
  16   4   3    3.00    0.46
 -16   4  -3    2.82    0.41
 -16  -4  -3    3.34    0.43
 -16   4  -4    0.08    0.24
 -16   4  -4   -0.07    0.19
  16   4   4    0.36    0.25
 -16  -4  -4    0.39    0.24
 -16   4  -5    0.08    0.24
  16   4   5    0.04    0.23
 -16  -4  -5   -0.22    0.20
 -16   4  -6    4.24    0.57
 -16  -4  -6    2.55    0.44
 -16   4  -7   -0.27    0.24
 -16  -4  -7    0.17    0.27
 -16   4  -8    0.45    0.32
 -16  -4  -8    0.35    0.28
 -16   4  -9    0.32    0.31
 -16  -4  -9    1.18    0.39
 -16   4 -10   -0.19    0.26
 -16  -4 -10   -0.08    0.26
  16   5 -14    0.03    0.30
 -16   5  14   -0.19    0.28
  16   5 -14   -0.01    0.31
  16  -5 -14   -0.40    0.32
  16   5 -13    0.08    0.31
  16   5 -13    1.21    0.41
 -16   5  13    1.42    0.40
  16  -5 -13    1.09    0.46
 -16   5  12    0.32    0.29
  16   5 -12    0.39    0.32
  16   5 -12    0.44    0.34
  16  -5 -12    0.28    0.34
 -16   5  11    3.23    0.51
  16   5 -11    3.44    0.54
  16   5 -11    3.83    0.58
  16  -5 -11    3.15    0.57
  16   5 -10    0.60    0.32
  16   5 -10    0.01    0.27
 -16   5  10   -0.09    0.21
  16  -5 -10    0.06    0.29
 -16   5   9    0.88    0.32
  16   5  -9    0.88    0.33
  16   5  -9    0.38    0.29
  16  -5  -9    0.78    0.33
  16   5  -8    0.20    0.25
 -16   5   8   -0.19    0.21
  16   5  -8   -0.15    0.21
 -16   5   7    0.88    0.31
  16   5  -7    1.39    0.33
  16   5  -7    1.16    0.36
  16   5  -6   -0.03    0.23
 -16   5   6    0.00    0.21
 -16   5   5    0.55    0.25
  16   5  -5    0.60    0.29
  16   5  -4    0.20    0.24
 -16   5   4   -0.17    0.19
  16   5  -3    1.13    0.33
 -16   5   3    1.47    0.34
  16   5  -2    0.22    0.25
 -16   5   2    0.08    0.23
 -16   5   1    0.36    0.23
  16   5  -1    0.58    0.29
 -16   5   0    1.09    0.30
  16   5   0    1.65    0.38
 -16   5  -1    0.87    0.29
  16   5   1    1.20    0.35
 -16   5  -1    1.61    0.38
 -16   5  -2    3.30    0.50
 -16   5  -2    2.97    0.45
  16   5   2    3.41    0.50
 -16   5  -3    0.56    0.28
  16   5   3    0.12    0.24
 -16   5  -3    0.26    0.23
 -16   5  -4    0.47    0.25
 -16   5  -4    0.03    0.25
  16   5   4    0.30    0.26
 -16  -5  -4    0.41    0.25
  16   5   5    1.94    0.39
 -16   5  -5    2.08    0.45
 -16  -5  -5    1.41    0.34
 -16   5  -6    0.61    0.31
 -16  -5  -6    0.18    0.26
 -16   5  -7    3.33    0.54
 -16  -5  -7    2.87    0.47
 -16   5  -8    0.42    0.30
 -16  -5  -8   -0.16    0.23
 -16   5  -9   -0.07    0.28
 -16  -5  -9    0.41    0.30
 -16   5 -10    2.28    0.50
 -16  -5 -10    2.19    0.46
  16   6 -13   -0.09    0.31
 -16   6  13   -0.05    0.27
  16   6 -13    0.40    0.37
  16  -6 -13    0.00    0.34
  16   6 -12    2.39    0.48
 -16   6  12    1.66    0.42
  16   6 -12    0.94    0.42
  16  -6 -12    1.70    0.50
  16   6 -11    0.58    0.36
 -16   6  11    0.55    0.33
  16  -6 -11    0.31    0.35
  16   6 -10    0.60    0.34
 -16   6  10    0.61    0.30
  16  -6 -10    0.92    0.39
 -16   6   9    0.11    0.24
  16   6  -9    0.20    0.30
 -16   6   8    0.17    0.24
  16   6  -8    0.20    0.26
  16   6  -7   -0.13    0.24
 -16   6   7    0.04    0.22
  16   6  -6    0.91    0.34
 -16   6   6    1.64    0.39
  16   6  -5   -0.07    0.24
 -16   6   5    0.75    0.30
  16   6  -4    4.41    0.59
 -16   6   4    4.18    0.55
 -16   6   3    0.69    0.29
  16   6  -3    0.59    0.28
  16   6  -2    0.27    0.26
 -16   6   2    0.60    0.29
  16   6  -1   -0.10    0.23
 -16   6   1    0.25    0.23
 -16   6   0    0.42    0.27
  16   6   0    0.24    0.25
 -16   6  -1    0.33    0.26
  16   6   1    0.13    0.23
 -16   6  -1    0.25    0.24
  16   6   2    1.31    0.36
 -16   6  -2    1.45    0.36
 -16   6  -2    1.81    0.42
  16   6   3    1.18    0.35
 -16   6  -3    0.70    0.30
 -16   6  -3    1.13    0.35
 -16   6  -4    0.13    0.27
  16   6   4    0.41    0.29
 -16   6  -4    0.12    0.25
  16   6   5    1.87    0.42
 -16   6  -5    2.69    0.48
 -16  -6  -5    1.87    0.40
 -16   6  -6    4.53    0.62
 -16  -6  -6    4.62    0.57
 -16   6  -7    0.90    0.37
 -16  -6  -7    1.68    0.39
 -16   6  -8    1.72    0.45
 -16  -6  -8    1.98    0.44
 -16   6  -9    1.29    0.40
 -16  -6  -9    0.79    0.37
  16   7 -12    0.05    0.33
 -16   7  12    0.77    0.34
  16   7 -11    2.10    0.47
 -16   7  11    3.62    0.55
  16  -7 -11    2.77    0.55
  16   7 -10    0.06    0.29
 -16   7  10   -0.27    0.24
  16  -7 -10    0.36    0.35
  16   7  -9    0.20    0.31
 -16   7   9   -0.41    0.20
  16   7  -8    0.47    0.33
 -16   7   8    0.57    0.29
 -16   7   7   -0.33    0.23
  16   7  -7    0.05    0.26
 -16   7   6    0.70    0.31
  16   7  -6    0.32    0.28
 -16   7   5    3.38    0.51
  16   7  -5    3.10    0.51
  16   7  -4   -0.05    0.24
 -16   7   4    0.28    0.26
 -16   7   3    0.52    0.28
  16   7  -3   -0.05    0.24
 -16   7   2    0.59    0.28
  16   7  -2   -0.09    0.24
 -16   7   1    1.54    0.37
  16   7  -1    1.40    0.39
 -16   7   0    0.93    0.32
  16   7   0    1.15    0.37
 -16   7  -1    2.95    0.48
  16   7   1    3.11    0.51
 -16   7  -1    2.61    0.47
  16   7   2    0.19    0.28
 -16   7  -2   -0.29    0.24
 -16   7  -2   -0.10    0.26
 -16   7  -3    2.86    0.46
  16   7   3    2.27    0.46
 -16   7  -3    2.15    0.47
 -16   7  -4    1.44    0.38
 -16   7  -4    1.97    0.44
  16   7   4    1.48    0.42
  16   7   5    1.08    0.36
 -16   7  -5    0.64    0.35
 -16  -7  -5    1.46    0.38
 -16   7  -6   -0.05    0.28
 -16  -7  -6    0.01    0.27
 -16   7  -7    2.27    0.50
 -16  -7  -7    3.22    0.51
 -16   8  10    0.66    0.35
  16   8 -10    0.54    0.36
  16  -8 -10    0.52    0.38
  16   8  -9    1.44    0.43
 -16   8   9    1.04    0.39
  16   8  -8    0.63    0.38
 -16   8   8    1.17    0.38
 -16   8   7    0.36    0.29
  16   8  -7    0.25    0.32
 -16   8   6    0.02    0.26
  16   8  -6    0.49    0.33
 -16   8   5    0.43    0.30
  16   8  -5    0.49    0.31
 -16   8   4    1.33    0.37
  16   8  -4    0.81    0.35
 -16   8   3    4.41    0.59
  16   8  -3    3.74    0.58
 -16   8   2    0.31    0.28
  16   8  -2    0.44    0.32
 -16   8   1    5.65    0.65
  16   8  -1    4.62    0.63
 -16   8   0    2.04    0.44
  16   8   0    2.06    0.46
  16   8   1    1.40    0.42
 -16   8  -1    1.51    0.40
 -16   8  -1    1.71    0.44
  16   8   2    0.36    0.31
 -16   8  -2    0.05    0.30
 -16   8  -2    0.35    0.30
 -16   8  -3    3.57    0.54
  16   8   3    3.22    0.55
 -16   8  -3    3.39    0.58
  16   8   4    0.46    0.32
 -16   8  -4    0.07    0.28
 -16   8  -4    0.28    0.32
  16   8   5    0.17    0.32
 -16   8  -5   -0.34    0.24
 -16   8  -6   -0.18    0.32
  16   9  -8    1.09    0.43
 -16   9   8    0.23    0.31
  16   9  -7    2.39    0.53
 -16   9   7    2.78    0.53
  16   9  -6   -0.15    0.28
 -16   9   6    0.32    0.30
 -16   9   5    1.49    0.41
  16   9  -5    1.19    0.41
 -16   9   4    1.58    0.43
  16   9  -4    1.01    0.39
 -16   9   3   -0.23    0.29
  16   9  -3    0.05    0.30
  16   9  -2    2.53    0.51
 -16   9   2    3.23    0.55
 -16   9   1    2.83    0.52
  16   9  -1    3.43    0.58
  16   9   0    2.36    0.51
 -16   9   0    2.64    0.50
  16   9   1    0.93    0.39
 -16   9  -1    0.72    0.35
 -16   9  -2    3.26    0.58
 -16   9  -2    3.38    0.55
  16   9   2    3.47    0.59
 -16   9  -3    0.21    0.31
  16   9   3    0.99    0.40
 -16   9  -3    0.52    0.36
  17   0 -15   -0.08    0.35
 -17   0  15    0.29    0.29
 -17   0  14    3.23    0.50
  17   0 -14    3.96    0.65
 -17   0  13   -0.28    0.23
  17   0 -13    0.44    0.36
  17   0 -12    3.18    0.55
 -17   0  12    3.53    0.53
  17   0 -11   -0.47    0.21
 -17   0  11    0.04    0.24
  17   0 -10    0.10    0.28
 -17   0  10    0.36    0.25
  17   0  -9    0.03    0.24
 -17   0   9    0.03    0.20
 -17   0   8    0.38    0.24
  17   0  -8    0.61    0.28
  17   0  -7   -0.23    0.19
 -17   0   7   -0.06    0.19
 -17   0   6   11.51    0.75
 -17   0   5   -0.17    0.16
 -17   0   4   -0.13    0.18
 -17   0   3    0.01    0.18
 -17   0   2    0.28    0.22
 -17   0   1    0.06    0.21
 -17   0   0    2.59    0.40
 -17   0  -1   -0.06    0.18
 -17   0  -2    8.43    0.61
 -17   0  -3   -0.23    0.16
 -17   0  -3   -0.19    0.20
 -17   0  -4    6.13    0.62
 -17   0  -4    7.02    0.60
 -17   0  -5    0.44    0.27
 -17   0  -6    1.21    0.34
 -17   0  -7    0.02    0.25
 -17   0  -8    0.03    0.27
 -17   0  -9   -0.30    0.26
 -17   0 -10    0.31    0.29
  17   1 -15    1.10    0.45
 -17   1  15    2.16    0.47
  17  -1 -15    1.09    0.45
 -17  -1  15    0.66    0.33
  17   1 -14    0.74    0.38
 -17   1  14   -0.28    0.22
  17  -1 -14    1.05    0.44
 -17  -1  14    0.35    0.29
 -17   1  13    2.23    0.44
  17   1 -13    2.02    0.49
  17  -1 -13    1.48    0.45
 -17  -1  13    2.40    0.46
  17   1 -12    5.62    0.71
 -17   1  12    5.19    0.62
 -17  -1  12    4.32    0.56
  17  -1 -12    5.30    0.68
 -17   1  11    0.90    0.32
  17   1 -11    0.83    0.37
 -17  -1  11    1.48    0.37
  17  -1 -11    0.63    0.34
 -17   1  10    0.18    0.21
  17   1 -10   -0.03    0.26
 -17  -1  10    0.25    0.23
  17  -1 -10   -0.10    0.27
  17   1  -9    0.09    0.26
 -17   1   9    0.07    0.21
 -17  -1   9    0.21    0.21
  17  -1  -9    0.16    0.28
  17   1  -8   -0.07    0.21
 -17   1   8    0.20    0.22
 -17  -1   8    0.30    0.22
  17  -1  -8    0.43    0.27
  17   1  -7    2.24    0.41
 -17   1   7    2.32    0.40
 -17  -1   7    2.21    0.40
  17   1  -6    0.25    0.24
 -17   1   6   -0.01    0.18
 -17  -1   6   -0.24    0.17
 -17   1   5    1.81    0.35
 -17  -1   5    1.58    0.34
 -17   1   4    0.22    0.21
 -17  -1   4    0.43    0.25
 -17   1   3    0.44    0.23
 -17  -1   3    0.34    0.21
 -17   1   2   -0.11    0.17
 -17  -1   2    0.31    0.20
 -17   1   1    0.30    0.21
 -17  -1   1   -0.21    0.16
 -17   1   0    0.22    0.22
 -17  -1   0    0.39    0.22
 -17   1  -1    1.22    0.29
 -17  -1  -1    0.88    0.27
 -17   1  -2    0.23    0.20
 -17   1  -2   -0.14    0.20
 -17  -1  -2    0.26    0.21
 -17   1  -3    2.94    0.44
 -17   1  -3    2.26    0.37
 -17  -1  -3    1.76    0.33
 -17   1  -4    0.15    0.24
 -17   1  -4    0.11    0.18
 -17  -1  -4   -0.04    0.21
 -17  -1  -4    0.15    0.20
 -17   1  -5    0.77    0.29
 -17  -1  -5    0.96    0.33
 -17   1  -6    0.24    0.26
 -17  -1  -6    0.18    0.26
 -17   1  -7    0.29    0.26
 -17  -1  -7    0.50    0.29
 -17   1  -8    0.20    0.27
 -17   1  -9    1.46    0.39
 -17   1 -10    0.42    0.31
 -17   2  15    0.80    0.33
  17   2 -15    0.90    0.41
 -17  -2  15    1.38    0.39
  17   2 -14   -0.10    0.32
 -17   2  14    0.80    0.32
  17   2 -14    0.55    0.33
 -17  -2  14    0.77    0.31
  17  -2 -14    0.34    0.38
  17   2 -13    5.35    0.70
 -17   2  13    4.88    0.61
  17  -2 -13    6.19    0.76
 -17  -2  13    5.64    0.64
  17   2 -12    0.03    0.29
 -17   2  12   -0.05    0.23
  17  -2 -12   -0.13    0.27
 -17  -2  12   -0.31    0.21
  17   2 -11    1.07    0.38
 -17   2  11    0.34    0.27
  17  -2 -11   -0.17    0.27
 -17  -2  11    0.76    0.31
  17   2 -10    0.35    0.30
 -17   2  10   -0.05    0.20
  17  -2 -10    0.30    0.29
 -17  -2  10    0.23    0.23
 -17   2   9    0.48    0.25
  17   2  -9    0.49    0.30
 -17  -2   9    0.72    0.29
  17  -2  -9    0.16    0.30
  17   2  -8    0.31    0.27
 -17   2   8    0.62    0.28
 -17  -2   8    0.70    0.29
  17  -2  -8    0.78    0.31
  17   2  -7    0.92    0.32
 -17   2   7    1.13    0.32
 -17  -2   7    1.15    0.31
  17   2  -6    1.85    0.37
 -17   2   6    2.23    0.39
 -17  -2   6    1.78    0.37
 -17   2   5    2.25    0.40
  17   2  -5    2.09    0.39
 -17  -2   5    1.94    0.37
 -17   2   4    0.53    0.25
 -17  -2   4    0.10    0.21
 -17   2   3    0.53    0.23
 -17  -2   3    0.41    0.23
 -17   2   2    0.74    0.27
 -17  -2   2    0.44    0.23
 -17   2   1    2.30    0.38
 -17  -2   1    2.57    0.40
 -17   2   0    2.32    0.39
 -17  -2   0    2.54    0.40
 -17   2  -1   -0.03    0.19
 -17  -2  -1    0.23    0.21
  17   2   2    0.47    0.25
 -17   2  -2    0.49    0.23
 -17   2  -2    1.04    0.33
 -17  -2  -2    0.59    0.25
 -17   2  -3    1.27    0.30
  17   2   3    1.83    0.35
 -17   2  -3    0.74    0.31
 -17  -2  -3    1.30    0.32
 -17   2  -4    0.36    0.22
  17   2   4    0.12    0.24
 -17   2  -4    0.16    0.25
 -17  -2  -4    0.09    0.23
  17   2   5    1.61    0.34
 -17   2  -5    1.60    0.38
 -17  -2  -5    1.57    0.35
 -17   2  -6    0.01    0.25
 -17  -2  -6    0.15    0.26
 -17   2  -7    0.39    0.30
 -17  -2  -7    0.40    0.30
 -17   2  -8    0.22    0.29
 -17  -2  -8    0.13    0.28
 -17   2  -9    1.54    0.41
 -17  -2  -9    1.33    0.40
 -17   2 -10    0.22    0.29
 -17  -2 -10    0.06    0.30
 -17   3  14    3.23    0.52
  17   3 -14    3.64    0.59
  17   3 -14    3.59    0.61
  17  -3 -14    4.19    0.67
 -17   3  13    0.45    0.31
  17   3 -13    1.08    0.37
  17   3 -13    0.38    0.35
  17  -3 -13    0.62    0.42
  17   3 -12    8.13    0.81
  17   3 -12    7.61    0.81
 -17   3  12    7.30    0.75
  17  -3 -12    7.38    0.82
 -17   3  11    0.20    0.25
  17   3 -11   -0.14    0.26
  17   3 -11   -0.09    0.27
 -17  -3  11    0.12    0.25
  17  -3 -11   -0.08    0.30
 -17   3  10    0.12    0.25
  17   3 -10    0.05    0.27
  17   3 -10    0.08    0.27
 -17  -3  10    0.15    0.24
  17  -3 -10   -0.03    0.27
  17   3  -9    2.55    0.46
  17   3  -9    2.01    0.44
 -17   3   9    1.30    0.36
  17  -3  -9    1.89    0.43
 -17  -3   9    2.54    0.43
  17   3  -8    2.40    0.44
  17   3  -8    2.94    0.47
 -17   3   8    3.12    0.48
 -17  -3   8    3.33    0.48
  17   3  -7    1.97    0.40
  17   3  -7    2.01    0.41
 -17   3   7    2.10    0.40
 -17  -3   7    2.05    0.40
 -17   3   6    2.32    0.40
  17   3  -6    2.10    0.40
  17   3  -6    2.79    0.46
 -17  -3   6    3.15    0.45
 -17   3   5    5.54    0.61
  17   3  -5    5.53    0.61
  17   3  -5    4.94    0.55
 -17  -3   5    5.16    0.58
  17   3  -4    0.49    0.26
  17   3  -4    0.72    0.28
 -17   3   4    1.02    0.31
 -17  -3   4    0.45    0.25
 -17   3   3    0.70    0.26
  17   3  -3    0.50    0.28
 -17  -3   3    0.74    0.28
  17   3  -2    2.82    0.45
 -17   3   2    2.25    0.40
 -17  -3   2    2.29    0.40
  17   3  -1    0.21    0.23
 -17   3   1    0.26    0.23
 -17  -3   1    0.45    0.24
 -17   3   0    6.86    0.64
  17   3   0    6.44    0.64
 -17   3  -1    1.03    0.31
  17   3   1    1.16    0.31
  17   3   2    0.66    0.26
 -17   3  -2    0.42    0.28
 -17   3  -2    0.38    0.24
 -17   3  -3    0.12    0.22
 -17   3  -3    0.20    0.24
  17   3   3    0.38    0.26
  17   3   4    0.06    0.22
 -17   3  -4    0.41    0.25
 -17   3  -4    0.12    0.22
 -17  -3  -4    0.04    0.22
  17   3   5    0.62    0.28
 -17   3  -5    0.50    0.30
 -17  -3  -5    0.07    0.22
 -17   3  -6    8.87    0.80
 -17  -3  -6    7.41    0.69
 -17   3  -7   -0.15    0.26
 -17  -3  -7   -0.01    0.25
 -17   3  -8    1.79    0.43
 -17  -3  -8    1.06    0.37
 -17   3  -9    0.46    0.33
 -17  -3  -9    0.54    0.32
 -17   3 -10    0.97    0.37
 -17  -3 -10    0.62    0.36
 -17   4  14   -0.04    0.27
  17   4 -14    0.11    0.32
  17   4 -13    1.50    0.44
 -17   4  13    1.33    0.41
  17   4 -13    1.96    0.48
  17  -4 -13    1.26    0.46
 -17   4  12   -0.35    0.27
  17   4 -12   -0.28    0.29
  17   4 -12    0.38    0.30
  17  -4 -12   -0.02    0.32
 -17   4  11    3.71    0.56
  17   4 -11    4.30    0.61
  17   4 -11    3.94    0.57
  17  -4 -11    3.93    0.61
  17   4 -10    0.32    0.29
 -17   4  10    0.09    0.25
  17   4 -10   -0.17    0.24
  17  -4 -10    0.05    0.29
  17   4  -9    0.42    0.27
  17   4  -9    0.30    0.29
 -17   4   9    0.42    0.25
  17  -4  -9    0.22    0.28
  17   4  -8    0.49    0.29
  17   4  -8    0.12    0.25
 -17   4   8    0.11    0.24
  17   4  -7   -0.23    0.18
  17   4  -7    0.23    0.26
 -17   4   7    0.15    0.20
  17   4  -6    1.61    0.35
  17   4  -6    1.32    0.34
 -17   4   6    1.82    0.38
  17   4  -5    2.94    0.48
  17   4  -5    3.54    0.46
 -17   4   5    3.75    0.52
 -17   4   4   -0.25    0.18
  17   4  -4   -0.21    0.20
  17   4  -4   -0.01    0.20
  17   4  -3    2.56    0.45
 -17   4   3    2.55    0.42
  17   4  -2    1.44    0.36
 -17   4   2    2.00    0.37
  17   4  -1    1.39    0.35
 -17   4   1    1.11    0.32
 -17   4   0    0.56    0.27
  17   4   0   -0.20    0.19
 -17   4  -1    0.03    0.23
  17   4   1    0.25    0.26
 -17   4  -1    0.33    0.27
 -17   4  -2    0.53    0.25
 -17   4  -2    0.41    0.28
  17   4   2    1.07    0.32
 -17   4  -3    2.37    0.45
 -17   4  -3    2.73    0.43
  17   4   3    3.04    0.47
 -17   4  -4    0.06    0.23
 -17   4  -4   -0.39    0.20
  17   4   4    0.03    0.23
 -17   4  -5    1.39    0.40
  17   4   5    1.08    0.35
 -17  -4  -5    1.51    0.37
 -17   4  -6   -0.16    0.25
 -17  -4  -6    0.05    0.26
 -17   4  -7    8.35    0.81
 -17  -4  -7    7.20    0.70
 -17   4  -8    3.71    0.59
 -17  -4  -8    2.34    0.45
 -17   4  -9    2.25    0.48
 -17  -4  -9    1.86    0.43
 -17   5  13    0.69    0.34
  17   5 -13    0.30    0.34
  17   5 -13    0.51    0.35
  17  -5 -13    0.54    0.39
 -17   5  12    0.54    0.33
  17   5 -12    0.89    0.39
  17   5 -12    0.44    0.35
  17  -5 -12    0.70    0.40
 -17   5  11    0.35    0.30
  17   5 -11    0.96    0.37
  17   5 -11    0.81    0.35
  17  -5 -11    0.52    0.33
  17   5 -10    0.17    0.30
  17   5 -10    0.33    0.29
 -17   5  10    0.64    0.30
  17  -5 -10    0.64    0.36
  17   5  -9    0.31    0.30
  17   5  -9    0.56    0.31
 -17   5   9    0.12    0.25
  17  -5  -9    0.63    0.33
  17   5  -8   -0.47    0.20
  17   5  -8    0.03    0.27
 -17   5   8    0.14    0.24
  17   5  -7    2.64    0.49
 -17   5   7    2.41    0.43
 -17   5   6    1.07    0.33
  17   5  -6    1.92    0.42
 -17   5   5    1.14    0.33
  17   5  -5    1.32    0.35
  17   5  -4    4.07    0.55
 -17   5   4    3.70    0.51
  17   5  -3    1.30    0.34
 -17   5   3    1.25    0.33
  17   5  -2    0.99    0.35
 -17   5   2    0.92    0.31
 -17   5   1    0.44    0.25
  17   5  -1    0.08    0.24
 -17   5   0    0.42    0.25
  17   5   0    0.18    0.26
 -17   5  -1    1.11    0.32
 -17   5  -1    0.61    0.31
 -17   5  -2    0.78    0.30
 -17   5  -2    0.97    0.32
  17   5   2    0.40    0.29
 -17   5  -3    1.23    0.33
  17   5   3    1.18    0.35
 -17   5  -3    0.68    0.32
  17   5   4    1.55    0.39
 -17   5  -4    1.07    0.36
 -17   5  -4    1.39    0.35
 -17   5  -5    2.06    0.46
  17   5   5    2.63    0.48
 -17  -5  -5    2.18    0.42
 -17   5  -6   -0.20    0.26
 -17  -5  -6   -0.30    0.24
 -17   5  -7    0.00    0.29
 -17  -5  -7    0.45    0.31
 -17   5  -8    2.00    0.48
 -17  -5  -8    2.94    0.50
 -17   6  12    0.02    0.27
  17   6 -12    0.36    0.33
  17  -6 -12   -0.33    0.35
 -17   6  11    1.25    0.40
  17   6 -11    2.25    0.47
  17  -6 -11    1.92    0.49
 -17   6  10    1.21    0.38
  17   6 -10    0.73    0.37
  17  -6 -10    0.34    0.36
  17   6  -9    2.17    0.48
 -17   6   9    1.14    0.36
 -17   6   8    0.09    0.26
  17   6  -8    0.37    0.31
 -17   6   7    3.42    0.52
  17   6  -7    3.08    0.54
 -17   6   6    0.55    0.30
  17   6  -6    0.62    0.32
  17   6  -5   -0.19    0.23
 -17   6   5    0.20    0.25
 -17   6   4   -0.17    0.22
  17   6  -4    0.04    0.26
  17   6  -3    0.20    0.27
 -17   6   3    0.28    0.26
 -17   6   2   -0.02    0.23
  17   6  -2    0.35    0.27
  17   6  -1   -0.16    0.24
 -17   6   1   -0.21    0.22
  17   6   0    3.19    0.51
 -17   6   0    2.83    0.45
  17   6   1    0.03    0.25
 -17   6  -1   -0.09    0.22
 -17   6  -1   -0.36    0.23
  17   6   2    3.31    0.53
 -17   6  -2    3.57    0.51
 -17   6  -2    2.97    0.51
 -17   6  -3   -0.27    0.24
 -17   6  -3    0.14    0.25
  17   6   3    0.19    0.29
 -17   6  -4    6.57    0.73
 -17   6  -4    8.20    0.73
  17   6   4    5.38    0.65
  17   6   5    0.05    0.28
 -17   6  -5    0.43    0.32
 -17   6  -6    0.47    0.35
 -17  -6  -6    1.18    0.35
 -17   6  -7   -0.40    0.25
 -17  -6  -7    0.12    0.29
  17   7 -10    0.77    0.37
 -17   7  10   -0.08    0.27
  17  -7 -10    0.19    0.34
 -17   7   9    3.67    0.58
  17   7  -9    4.19    0.63
  17   7  -8    0.94    0.36
 -17   7   8    0.83    0.34
  17   7  -7   -0.07    0.28
 -17   7   7    0.12    0.25
  17   7  -6    0.54    0.30
 -17   7   6    0.10    0.25
 -17   7   5    0.76    0.34
  17   7  -5    1.00    0.36
  17   7  -4   -0.17    0.24
 -17   7   4    0.09    0.25
  17   7  -3    1.51    0.39
 -17   7   3    1.11    0.37
 -17   7   2    0.35    0.27
  17   7  -2    0.14    0.27
 -17   7   1    1.48    0.38
  17   7  -1    1.80    0.44
  17   7   0    0.47    0.34
 -17   7   0    0.16    0.27
 -17   7  -1    2.04    0.47
 -17   7  -1    1.92    0.42
  17   7   1    1.56    0.42
  17   7   2    0.80    0.35
 -17   7  -2    0.64    0.31
 -17   7  -2    0.38    0.32
 -17   7  -3    1.42    0.43
  17   7   3    0.83    0.36
 -17   7  -3    1.01    0.36
  17   7   4    0.06    0.30
 -17   7  -4    0.35    0.32
  17   7   5    1.17    0.38
 -17   7  -5    0.71    0.35
 -17   7  -6    1.71    0.47
 -17   8   8    3.51    0.57
  17   8  -8    3.76    0.62
  17   8  -7    1.89    0.47
 -17   8   7    0.50    0.32
  17   8  -6    0.33    0.32
 -17   8   6   -0.16    0.25
 -17   8   5    0.52    0.31
  17   8  -5    0.67    0.35
 -17   8   4    2.48    0.48
  17   8  -4    3.26    0.56
 -17   8   3    4.38    0.60
  17   8  -3    4.89    0.67
  17   8  -2    0.16    0.28
 -17   8   2    0.09    0.27
  17   8  -1    1.03    0.39
 -17   8   1    0.89    0.36
 -17   8   0    0.84    0.35
  17   8   0    0.39    0.33
 -17   8  -1   -0.21    0.25
  17   8   1   -0.10    0.30
 -17   8  -2    1.03    0.37
  17   8   2    1.32    0.44
 -17   8  -2    0.67    0.36
 -17   8  -3    0.54    0.34
 -17   8  -3    0.00    0.33
  17   8   3   -0.19    0.28
  17   8   4    0.67    0.40
 -17   8  -4    0.96    0.40
  17   9  -5    1.68    0.46
 -17   9   5    0.96    0.38
  17   9  -4    2.38    0.52
 -17   9   4    1.92    0.48
 -17   9   3    0.05    0.28
  17   9  -3   -0.17    0.32
 -17   9   2    2.67    0.52
  17   9  -2    3.18    0.58
  17   9  -1    1.11    0.43
 -17   9   1    1.26    0.41
 -17   9   0    0.35    0.32
  17   9   0    0.20    0.33
  18   0 -14    0.65    0.41
 -18   0  14    0.48    0.31
  18   0 -13   -0.26    0.32
 -18   0  13   -0.02    0.25
 -18   0  12    6.40    0.70
  18   0 -12    6.23    0.78
 -18   0  11    0.01    0.23
  18   0 -11   -0.29    0.28
 -18   0  10    8.82    0.78
  18   0 -10    7.68    0.78
  18   0  -9    0.11    0.28
 -18   0   9    0.21    0.23
  18   0  -8    8.38    0.79
 -18   0   8   10.86    0.75
 -18   0   7    0.06    0.21
  18   0  -7   -0.09    0.21
 -18   0   6   -0.18    0.19
 -18   0   5    0.02    0.20
 -18   0   4    0.24    0.24
 -18   0   3    0.04    0.20
 -18   0   2    0.78    0.27
 -18   0   1    0.07    0.20
 -18   0   0    6.96    0.64
 -18   0  -1    0.01    0.18
 -18   0  -2    0.30    0.22
 -18   0  -3   -0.13    0.19
 -18   0  -4    0.87    0.34
 -18   0  -4    1.71    0.36
 -18   0  -5   -0.15    0.22
 -18   0  -6    6.37    0.67
 -18   0  -7   -0.05    0.24
 -18   0  -8    0.60    0.33
 -18   0  -9    0.51    0.32
 -18   1  14    1.03    0.36
  18   1 -14    0.10    0.34
 -18  -1  14    0.19    0.29
  18  -1 -14    1.02    0.44
 -18   1  13    0.62    0.33
  18   1 -13    1.81    0.48
 -18  -1  13    1.19    0.38
  18  -1 -13    1.24    0.44
  18   1 -12    1.28    0.45
 -18   1  12    0.35    0.30
 -18  -1  12    0.81    0.34
  18  -1 -12    1.00    0.42
  18   1 -11    2.32    0.49
 -18   1  11    1.92    0.41
 -18  -1  11    2.30    0.43
  18  -1 -11    1.51    0.45
 -18   1  10   -0.24    0.20
  18   1 -10   -0.19    0.27
 -18  -1  10    0.18    0.25
  18  -1 -10   -0.02    0.30
  18   1  -9    0.22    0.29
 -18   1   9    0.73    0.30
 -18  -1   9    0.94    0.29
  18  -1  -9    0.63    0.33
 -18   1   8    0.09    0.22
  18   1  -8    0.53    0.30
  18  -1  -8   -0.02    0.27
 -18  -1   8    0.16    0.20
  18   1  -7    3.47    0.51
 -18   1   7    4.12    0.53
 -18  -1   7    3.53    0.49
  18   1  -6    0.03    0.25
 -18   1   6    0.03    0.20
 -18  -1   6   -0.12    0.18
 -18   1   5    1.26    0.32
 -18  -1   5    1.68    0.35
 -18   1   4    0.12    0.20
 -18  -1   4   -0.39    0.15
 -18   1   3    0.16    0.21
 -18  -1   3    0.28    0.23
 -18   1   2   -0.21    0.16
 -18  -1   2   -0.12    0.17
 -18   1   1    4.04    0.49
 -18  -1   1    4.34    0.50
 -18   1   0    1.04    0.30
 -18  -1   0    0.89    0.29
 -18   1  -1   -0.02    0.18
 -18  -1  -1   -0.04    0.19
 -18   1  -2    0.34    0.21
 -18  -1  -2    0.76    0.26
 -18   1  -3    0.65    0.30
 -18   1  -3    0.45    0.25
 -18  -1  -3    0.58    0.26
 -18   1  -4    0.16    0.23
 -18   1  -4   -0.08    0.23
  18   1   4    0.26    0.24
 -18  -1  -4    0.38    0.25
 -18   1  -5    0.51    0.30
 -18  -1  -5    0.09    0.27
 -18   1  -6   -0.04    0.24
 -18  -1  -6   -0.29    0.23
 -18   1  -7    3.71    0.55
 -18   1  -8    3.20    0.53
 -18   1  -9   -0.08    0.27
  18   2 -13    1.82    0.49
 -18   2  13    1.39    0.38
 -18  -2  13    1.24    0.38
  18  -2 -13    1.46    0.48
  18   2 -12    1.22    0.42
 -18   2  12    0.00    0.26
  18  -2 -12    0.51    0.39
 -18  -2  12    0.31    0.28
 -18   2  11    0.33    0.27
  18   2 -11   -0.10    0.28
  18  -2 -11   -0.12    0.27
 -18  -2  11    0.17    0.25
  18   2 -10    0.13    0.28
 -18   2  10   -0.06    0.23
 -18  -2  10    0.19    0.24
  18  -2 -10   -0.01    0.28
  18   2  -9    0.13    0.29
 -18   2   9    0.18    0.24
 -18  -2   9    0.43    0.26
  18  -2  -9    0.21    0.31
  18   2  -8    0.14    0.27
 -18   2   8    0.11    0.22
 -18  -2   8   -0.06    0.19
  18  -2  -8   -0.04    0.21
  18   2  -7    0.27    0.28
 -18   2   7    0.12    0.21
 -18  -2   7    0.26    0.22
 -18   2   6    0.35    0.25
  18   2  -6    0.54    0.29
 -18  -2   6    1.11    0.32
  18   2  -5    3.48    0.50
 -18   2   5    3.75    0.51
 -18  -2   5    3.02    0.46
 -18   2   4    0.96    0.31
 -18  -2   4    0.72    0.26
 -18   2   3    0.45    0.24
 -18  -2   3    0.57    0.24
 -18   2   2   -0.08    0.19
 -18  -2   2   -0.07    0.19
 -18   2   1    0.18    0.22
 -18  -2   1    0.17    0.20
 -18   2   0    2.65    0.42
 -18  -2   0    2.90    0.43
 -18   2  -1    0.75    0.27
  18   2   1    0.34    0.25
 -18  -2  -1    0.31    0.22
  18   2   2    0.74    0.29
 -18   2  -2    0.66    0.26
 -18  -2  -2    0.18    0.23
 -18   2  -3    0.41    0.23
 -18   2  -3    0.20    0.27
  18   2   3    0.51    0.28
  18   2   4    1.33    0.36
 -18   2  -4    1.80    0.35
 -18   2  -4    1.17    0.38
 -18   2  -5    2.21    0.44
 -18  -2  -5    1.61    0.39
 -18   2  -6    1.35    0.39
 -18  -2  -6    1.58    0.39
 -18   2  -7   -0.16    0.26
 -18  -2  -7    0.01    0.29
 -18   2  -8   -0.54    0.24
 -18  -2  -8    0.43    0.32
 -18   2  -9    1.99    0.46
 -18  -2  -9    0.91    0.38
  18   3 -13    1.97    0.48
 -18   3  13    1.33    0.38
  18   3 -13    1.89    0.47
  18  -3 -13    1.93    0.51
  18   3 -12    0.38    0.35
 -18   3  12    0.20    0.27
  18   3 -12    0.05    0.30
  18  -3 -12    0.27    0.35
 -18   3  11   -0.20    0.23
  18   3 -11   -0.24    0.28
  18   3 -11    0.50    0.32
 -18  -3  11   -0.01    0.25
  18  -3 -11    0.13    0.32
  18   3 -10    0.53    0.34
  18   3 -10    0.29    0.30
 -18   3  10    0.28    0.28
 -18  -3  10    0.38    0.27
  18  -3 -10    0.58    0.34
 -18   3   9    0.17    0.25
  18   3  -9    0.02    0.24
  18   3  -9   -0.37    0.24
 -18  -3   9    0.09    0.22
  18  -3  -9    0.45    0.33
  18   3  -8    0.08    0.26
  18   3  -8    0.00    0.23
 -18   3   8    0.53    0.27
 -18  -3   8    0.01    0.21
 -18   3   7    0.68    0.28
  18   3  -7    1.15    0.35
  18   3  -7    0.57    0.30
 -18  -3   7    0.75    0.30
 -18   3   6    7.27    0.71
  18   3  -6    8.40    0.78
  18   3  -6    8.91    0.76
 -18  -3   6    8.75    0.77
  18   3  -5   -0.26    0.19
  18   3  -5    0.26    0.27
 -18   3   5    0.31    0.24
 -18  -3   5    0.35    0.23
  18   3  -4    1.90    0.40
  18   3  -4    1.38    0.35
 -18   3   4    1.38    0.35
 -18  -3   4    1.10    0.32
 -18   3   3   -0.27    0.18
  18   3  -3   -0.04    0.22
 -18  -3   3   -0.13    0.18
  18   3  -2    0.57    0.28
 -18   3   2    0.44    0.26
 -18  -3   2    1.30    0.32
 -18   3   1   -0.10    0.18
  18   3  -1    0.05    0.22
  18   3   0    3.34    0.50
 -18   3   0    3.76    0.50
 -18   3  -1    0.36    0.25
  18   3   1   -0.17    0.21
  18   3   2    0.56    0.29
 -18   3  -2    1.31    0.33
 -18   3  -2    0.90    0.35
 -18   3  -3   -0.03    0.22
  18   3   3    0.62    0.29
 -18   3  -3   -0.17    0.23
 -18   3  -4    3.14    0.52
 -18   3  -4    2.41    0.41
  18   3   4    3.05    0.46
 -18   3  -5    2.32    0.46
 -18  -3  -5    0.70    0.33
 -18   3  -6    1.56    0.42
 -18  -3  -6    1.64    0.41
 -18   3  -7   -0.22    0.26
 -18  -3  -7    0.09    0.29
 -18   3  -8    0.58    0.34
 -18  -3  -8   -0.13    0.28
  18   4 -12    2.90    0.53
  18   4 -12    3.31    0.57
 -18   4  12    3.09    0.54
  18  -4 -12    3.25    0.61
  18   4 -11    1.37    0.43
  18   4 -11    2.00    0.47
 -18   4  11    1.93    0.45
  18  -4 -11    1.82    0.48
  18   4 -10   -0.13    0.27
 -18   4  10   -0.12    0.23
  18   4 -10    0.18    0.28
  18  -4 -10    0.02    0.28
 -18   4   9    0.19    0.27
  18   4  -9    0.41    0.31
  18   4  -9    0.29    0.30
  18  -4  -9    0.18    0.30
 -18   4   8   -0.08    0.22
  18   4  -8    0.28    0.28
  18   4  -8    0.07    0.25
  18   4  -7    5.61    0.67
 -18   4   7    7.13    0.72
  18   4  -7    7.19    0.70
  18   4  -6    0.89    0.33
 -18   4   6    1.32    0.36
  18   4  -6    1.41    0.36
  18   4  -5    0.05    0.24
 -18   4   5    0.44    0.25
  18   4  -5    0.42    0.28
 -18   4   4    0.16    0.22
  18   4  -4    0.23    0.24
  18   4  -3    0.08    0.24
 -18   4   3    0.02    0.22
  18   4  -2    0.10    0.25
 -18   4   2   -0.02    0.22
 -18   4   1    0.13    0.24
  18   4  -1    0.88    0.32
  18   4   0    0.09    0.23
 -18   4   0    0.05    0.21
 -18   4  -1   10.98    0.75
  18   4   1    9.93    0.75
 -18   4  -2    0.38    0.30
  18   4   2    0.04    0.24
 -18   4  -2    0.35    0.27
 -18   4  -3    0.32    0.26
  18   4   3    0.01    0.27
 -18   4  -3    0.54    0.32
 -18   4  -4   -0.12    0.28
  18   4   4    0.65    0.31
 -18   4  -5   11.64    0.86
 -18   4  -6    5.59    0.68
 -18  -4  -6    6.80    0.68
 -18   4  -7    0.40    0.32
 -18  -4  -7    0.12    0.29
 -18   4  -8   -0.11    0.31
 -18  -4  -8   -0.23    0.28
 -18   5  12   -0.25    0.29
  18   5 -12    0.16    0.33
 -18   5  11    3.96    0.60
  18   5 -11    3.94    0.61
  18   5 -11    4.97    0.66
  18  -5 -11    4.14    0.66
 -18   5  10    0.76    0.34
  18   5 -10    0.56    0.36
  18  -5 -10    1.23    0.42
 -18   5   9    0.37    0.30
  18   5  -9    0.12    0.29
  18  -5  -9    0.18    0.32
 -18   5   8    5.19    0.64
  18   5  -8    5.06    0.66
 -18   5   7    3.68    0.54
  18   5  -7    2.50    0.49
 -18   5   6    0.64    0.31
  18   5  -6    0.58    0.32
 -18   5   5    0.36    0.26
  18   5  -5   -0.31    0.21
  18   5  -4    1.16    0.36
 -18   5   4    0.62    0.29
 -18   5   3    0.22    0.25
  18   5  -3   -0.28    0.22
  18   5  -2    0.80    0.33
 -18   5   2    0.38    0.28
 -18   5   1    0.39    0.28
  18   5  -1    0.51    0.31
 -18   5   0    0.71    0.29
  18   5   0    0.91    0.35
  18   5   1    0.11    0.28
 -18   5  -1    0.33    0.28
 -18   5  -2    3.10    0.52
 -18   5  -2    2.92    0.47
  18   5   2    2.45    0.46
 -18   5  -3   -0.07    0.25
 -18   5  -3    0.05    0.24
  18   5   3    0.35    0.30
 -18   5  -4    2.26    0.49
  18   5   4    2.43    0.45
 -18   5  -5   -0.06    0.27
 -18   5  -6    4.07    0.61
 -18   5  -7    0.76    0.38
 -18  -5  -7    0.75    0.36
 -18   6  10   -0.03    0.27
  18   6 -10    0.23    0.32
  18  -6 -10    0.45    0.39
  18   6  -9    0.91    0.39
 -18   6   9    0.64    0.34
 -18   6   8    0.88    0.35
  18   6  -8    1.30    0.42
 -18   6   7   -0.04    0.24
  18   6  -7   -0.29    0.26
 -18   6   6   -0.04    0.25
  18   6  -6    0.02    0.24
 -18   6   5    0.09    0.25
  18   6  -5    0.24    0.29
 -18   6   4    0.03    0.24
  18   6  -4   -0.19    0.24
  18   6  -3    0.24    0.29
 -18   6   3    0.37    0.28
  18   6  -2    3.37    0.54
 -18   6   2    2.14    0.45
 -18   6   1   -0.08    0.25
  18   6  -1   -0.10    0.26
  18   6   0    0.78    0.34
 -18   6   0    0.13    0.27
  18   6   1    0.15    0.28
 -18   6  -1    0.07    0.25
 -18   6  -2    0.01    0.27
  18   6   2   -0.28    0.27
 -18   6  -2   -0.18    0.24
 -18   6  -3    1.46    0.41
  18   6   3    1.47    0.42
 -18   6  -3    1.06    0.36
  18   6   4    0.51    0.33
 -18   6  -4    0.55    0.33
 -18   6  -5    4.41    0.63
  18   7  -9    1.07    0.43
 -18   7   9    1.61    0.44
 -18   7   8    1.60    0.41
  18   7  -8    0.96    0.39
  18   7  -7   -0.04    0.29
 -18   7   7    0.12    0.27
  18   7  -6    2.07    0.47
 -18   7   6    1.87    0.45
  18   7  -5    0.32    0.31
 -18   7   5    0.03    0.27
  18   7  -4    0.75    0.34
 -18   7   4    1.19    0.37
 -18   7   3    1.57    0.40
  18   7  -3    1.01    0.37
 -18   7   2    0.48    0.30
  18   7  -2    0.78    0.37
  18   7  -1    0.09    0.31
 -18   7   1    0.35    0.30
 -18   7   0    1.07    0.37
  18   7   0    1.08    0.39
  18   7   1    1.58    0.43
 -18   7  -1    1.48    0.40
 -18   7  -2   -0.11    0.27
 -18   7  -2    0.28    0.31
  18   7   2    0.11    0.31
 -18   7  -3   -0.29    0.26
 -18   7  -3   -0.11    0.28
  18   7   3   -0.11    0.31
  18   7   4    2.61    0.52
 -18   7  -4    2.66    0.53
 -18   8   6    0.20    0.29
  18   8  -6    0.00    0.31
  18   8  -5    3.71    0.63
 -18   8   5    4.57    0.65
  18   8  -4   -0.23    0.28
 -18   8   4    0.01    0.28
  18   8  -3    0.33    0.33
 -18   8   3   -0.03    0.28
 -18   8   2    1.61    0.43
  18   8  -2    1.66    0.45
 -18   8   1    0.02    0.29
  18   8  -1   -0.04    0.30
 -18   8   0   -0.26    0.25
  18   8   0   -0.04    0.30
  18   8   1    4.75    0.68
 -18   8  -1    3.66    0.58
  19   0 -13    0.30    0.37
 -19   0  13    0.13    0.28
  19   0 -12    1.21    0.43
 -19   0  12    1.31    0.39
  19   0 -11   -0.45    0.26
 -19   0  11    0.14    0.27
 -19   0  10    1.13    0.37
  19   0 -10    1.73    0.44
 -19   0   9    0.05    0.24
  19   0  -9    0.07    0.29
 -19   0   8    3.56    0.50
  19   0  -8    3.73    0.57
  19   0  -7    0.10    0.27
 -19   0   7   -0.13    0.21
 -19   0   6    0.31    0.24
 -19   0   5   -0.08    0.19
 -19   0   4   16.51    0.93
 -19   0   3    0.14    0.21
 -19   0   2    1.11    0.33
 -19   0   1    0.05    0.21
 -19   0   0    0.37    0.24
 -19   0  -1   -0.31    0.19
 -19   0  -2    0.07    0.23
 -19   0  -3    0.30    0.25
 -19   0  -5   -0.30    0.24
 -19   0  -6    4.25    0.57
 -19   0  -7    0.17    0.30
 -19   0  -8    0.37    0.32
 -19   1  13    1.05    0.39
 -19  -1  13    0.59    0.34
 -19   1  12    0.52    0.31
  19   1 -12    0.35    0.36
  19  -1 -12    1.09    0.45
 -19  -1  12    0.28    0.30
  19   1 -11    0.44    0.37
 -19   1  11    0.59    0.31
  19  -1 -11    0.38    0.34
 -19  -1  11    0.39    0.28
 -19   1  10    0.16    0.26
  19   1 -10   -0.35    0.25
  19  -1 -10   -0.07    0.31
 -19  -1  10    0.15    0.26
 -19   1   9    0.29    0.27
  19   1  -9    0.48    0.33
 -19  -1   9    0.29    0.25
  19  -1  -9    0.30    0.29
 -19   1   8   -0.06    0.21
  19   1  -8    0.09    0.28
  19  -1  -8    0.16    0.31
 -19  -1   8    0.61    0.27
  19   1  -7   -0.11    0.24
 -19   1   7   -0.02    0.21
 -19  -1   7    0.04    0.22
 -19   1   6    0.64    0.27
  19   1  -6    1.10    0.35
 -19  -1   6    0.58    0.28
 -19   1   5    3.92    0.51
 -19  -1   5    3.86    0.51
 -19   1   4    1.66    0.37
 -19  -1   4    1.96    0.38
 -19   1   3    0.13    0.21
 -19  -1   3    0.17    0.21
 -19   1   2    0.02    0.21
 -19  -1   2   -0.09    0.21
 -19   1   1    0.16    0.24
 -19  -1   1    0.14    0.22
 -19   1   0    1.66    0.36
 -19  -1   0    2.09    0.40
 -19   1  -1    0.10    0.24
 -19  -1  -1    0.22    0.23
 -19   1  -2    0.31    0.26
 -19  -1  -2    0.68    0.29
 -19   1  -3    2.23    0.40
  19   1   3    2.29    0.40
 -19  -1  -3    1.59    0.37
  19   1   4    5.16    0.59
 -19   1  -4    3.71    0.55
 -19   1  -5    1.41    0.39
 -19   1  -6    2.51    0.48
 -19   1  -7    1.94    0.45
 -19   1  -8   -0.18    0.27
 -19   2  12    0.33    0.28
  19   2 -12   -0.22    0.27
  19  -2 -12    0.35    0.35
 -19  -2  12    0.07    0.26
 -19   2  11    1.75    0.41
  19   2 -11    0.76    0.40
 -19  -2  11    2.39    0.45
  19  -2 -11    1.51    0.45
 -19   2  10    0.31    0.28
  19   2 -10    0.01    0.30
  19  -2 -10   -0.03    0.32
 -19  -2  10    0.12    0.24
  19   2  -9    0.81    0.38
 -19   2   9    0.76    0.31
 -19  -2   9    0.23    0.26
  19  -2  -9    0.31    0.33
 -19   2   8   -0.02    0.23
  19   2  -8   -0.48    0.24
  19  -2  -8    0.09    0.27
 -19  -2   8    0.06    0.22
  19   2  -7    1.63    0.40
 -19   2   7    1.30    0.34
 -19  -2   7    1.86    0.38
 -19   2   6    0.19    0.24
  19   2  -6    0.09    0.26
 -19  -2   6   -0.21    0.19
 -19   2   5    0.16    0.22
  19   2  -5   -0.26    0.23
 -19  -2   5    0.04    0.21
 -19   2   4    0.03    0.22
 -19  -2   4   -0.07    0.20
 -19   2   3   -0.02    0.21
 -19  -2   3    0.40    0.24
 -19   2   2   -0.20    0.18
 -19  -2   2    0.07    0.22
 -19   2   1    0.47    0.27
 -19  -2   1    0.32    0.26
  19   2   0    0.26    0.26
 -19   2   0    0.23    0.24
 -19  -2   0    0.28    0.23
 -19   2  -1    0.17    0.22
  19   2   1    0.39    0.27
 -19  -2  -1    0.28    0.23
 -19   2  -2    2.84    0.44
  19   2   2    2.61    0.46
  19   2   3    0.16    0.27
 -19   2  -3    0.45    0.32
 -19   2  -3    1.32    0.34
 -19   2  -4    0.04    0.28
  19   2   4    0.44    0.28
 -19   2  -5    0.11    0.28
 -19   2  -6    2.04    0.47
 -19   2  -7    4.06    0.60
 -19   3  12    1.50    0.42
  19   3 -12    1.75    0.46
  19   3 -12    1.64    0.45
  19  -3 -12    0.95    0.42
 -19   3  11    0.04    0.25
  19   3 -11    0.10    0.32
  19   3 -11   -0.13    0.27
  19  -3 -11   -0.05    0.32
  19   3 -10    4.98    0.66
  19   3 -10    5.13    0.67
 -19   3  10    3.68    0.57
  19  -3 -10    5.06    0.70
 -19  -3  10    4.77    0.61
  19   3  -9   -0.59    0.23
 -19   3   9   -0.20    0.25
  19   3  -9    0.02    0.27
 -19  -3   9   -0.03    0.23
  19  -3  -9   -0.09    0.27
  19   3  -8    4.56    0.60
  19   3  -8    3.24    0.55
 -19   3   8    4.47    0.60
 -19  -3   8    4.73    0.60
  19   3  -7    0.31    0.30
 -19   3   7   -0.11    0.21
  19   3  -7    0.39    0.30
 -19  -3   7    0.34    0.28
  19   3  -6    0.13    0.26
  19   3  -6   -0.12    0.23
 -19   3   6    0.28    0.24
 -19  -3   6    0.08    0.24
  19   3  -5    2.81    0.48
 -19   3   5    2.52    0.44
  19   3  -5    2.75    0.46
 -19  -3   5    2.95    0.48
  19   3  -4   -0.05    0.24
  19   3  -4   -0.10    0.24
 -19   3   4   -0.05    0.21
 -19  -3   4    0.31    0.25
 -19   3   3    0.36    0.25
  19   3  -3    0.22    0.28
  19   3  -3    0.15    0.24
 -19  -3   3    0.61    0.28
  19   3  -2    0.11    0.24
 -19   3   2   -0.14    0.20
  19   3  -1    0.49    0.28
 -19   3   1    0.31    0.25
 -19   3   0    2.35    0.43
  19   3   0    2.76    0.47
  19   3   1    1.39    0.38
 -19   3  -1    1.62    0.38
  19   3   2    0.77    0.32
 -19   3  -2    0.61    0.29
 -19   3  -3    1.80    0.44
 -19   3  -3    1.95    0.39
 -19   3  -4    2.50    0.49
  19   3   4    3.02    0.49
 -19   3  -5    0.17    0.27
 -19   3  -6    1.17    0.39
 -19   3  -7    0.00    0.30
  19   4 -11    4.61    0.65
 -19   4  11    4.62    0.63
  19   4 -11    4.78    0.65
  19  -4 -11    4.93    0.71
  19   4 -10    0.53    0.37
  19   4 -10    1.72    0.44
 -19   4  10    0.73    0.36
  19  -4 -10    1.72    0.47
  19   4  -9    0.29    0.31
 -19   4   9    0.16    0.28
  19   4  -9    0.23    0.32
  19  -4  -9    0.19    0.33
  19   4  -8    1.98    0.45
  19   4  -8    2.75    0.52
 -19   4   8    2.05    0.43
  19   4  -7    2.07    0.43
  19   4  -7    1.27    0.38
 -19   4   7    1.37    0.38
  19   4  -6    0.72    0.34
 -19   4   6    1.17    0.36
  19   4  -5    2.58    0.48
 -19   4   5    3.35    0.52
 -19   4   4    0.08    0.26
  19   4  -4    0.34    0.28
  19   4  -3    6.40    0.70
 -19   4   3    5.32    0.64
  19   4  -2   -0.13    0.23
 -19   4   2    0.03    0.23
 -19   4   1    1.62    0.39
  19   4  -1    2.00    0.42
  19   4   0    1.18    0.37
 -19   4   0    0.48    0.28
 -19   4  -1    6.83    0.68
  19   4   1    6.93    0.72
  19   4   2    4.16    0.57
 -19   4  -2    3.79    0.53
 -19   4  -3   -0.06    0.28
 -19   4  -3    0.46    0.28
  19   4   3    0.10    0.28
  19   4   4    0.97    0.35
 -19   4  -4    1.30    0.42
 -19   4  -5    0.34    0.34
 -19   4  -6    2.01    0.48
  19   5 -10    1.46    0.45
 -19   5  10    1.28    0.41
  19  -5 -10    1.46    0.48
  19   5  -9    1.71    0.46
 -19   5   9    1.57    0.42
  19  -5  -9    0.88    0.40
 -19   5   8    0.04    0.28
  19   5  -8   -0.20    0.27
 -19   5   7   -0.06    0.24
  19   5  -7    0.14    0.28
  19   5  -6   -0.07    0.26
 -19   5   6    0.21    0.28
  19   5  -5    2.51    0.49
 -19   5   5    2.09    0.44
  19   5  -4   -0.13    0.25
 -19   5   4   -0.32    0.22
 -19   5   3    0.77    0.32
  19   5  -3    0.28    0.31
 -19   5   2    9.03    0.82
 -19   5   1    4.45    0.58
  19   5  -1    4.88    0.63
 -19   5   0    3.97    0.54
  19   5   0    3.32    0.56
 -19   5  -1    2.92    0.49
  19   5   1    3.15    0.53
  19   5   2    2.56    0.49
 -19   5  -2    2.30    0.45
  19   5   3    4.80    0.62
 -19   5  -3    2.70    0.51
 -19   5  -3    3.42    0.51
  19   5   4    0.01    0.29
 -19   5  -4    0.34    0.32
 -19   5  -5    0.66    0.38
  19   6  -8    0.06    0.31
 -19   6   8    0.28    0.30
 -19   6   7    5.43    0.68
  19   6  -7    5.69    0.72
  19   6  -6    3.32    0.57
 -19   6   6    4.51    0.62
 -19   6   5    1.58    0.41
  19   6  -5    1.10    0.39
  19   6  -4    0.00    0.27
 -19   6   4   -0.11    0.23
 -19   6   3   -0.03    0.27
  19   6  -3    0.13    0.30
 -19   6   2   -0.08    0.26
  19   6  -2    0.17    0.29
  19   6  -1    3.16    0.55
 -19   6   1    3.03    0.51
  19   6   0   -0.19    0.28
 -19   6   0   -0.09    0.25
  19   6   1    3.32    0.57
 -19   6  -1    3.65    0.55
 -19   6  -2    0.06    0.27
  19   6   2    0.36    0.30
 -19   6  -3    4.09    0.64
  19   6   3    4.51    0.63
 -19   7   6    0.71    0.35
  19   7  -6    1.69    0.44
 -19   7   5   -0.34    0.25
  19   7  -5    0.33    0.32
 -19   7   4    0.56    0.34
  19   7  -4    0.91    0.38
  19   7  -3    1.98    0.49
 -19   7   3    2.80    0.50
 -19   7   2    0.09    0.27
  19   7  -2   -0.11    0.28
 -19   7   1    0.21    0.30
  19   7  -1    0.41    0.34
 -19   7   0    1.50    0.40
  19   7   0    1.94    0.48
  19   7   1    0.52    0.35
 -19   7  -1   -0.08    0.26
 -20   0  11   -0.08    0.25
  20   0 -11    0.07    0.33
 -20   0  10    1.53    0.41
  20   0 -10    2.30    0.51
  20   0  -9    0.00    0.31
 -20   0   9    0.10    0.27
 -20   0   8    6.32    0.70
  20   0  -8    4.75    0.64
 -20   0   7    0.19    0.24
  20   0  -7   -0.04    0.27
 -20   0   6    1.23    0.34
 -20   0   5    0.06    0.24
 -20   0   4    5.05    0.60
 -20   0   3   -0.04    0.23
 -20   0   2    5.03    0.59
 -20   0   1    0.04    0.23
 -20   0   0    2.12    0.42
 -20   0  -1    0.09    0.21
 -20   0  -2    6.66    0.67
 -20   0  -3   -0.06    0.24
 -20   0  -6    4.59    0.61
 -20   1  11    0.31    0.29
  20   1 -11    0.13    0.33
  20  -1 -11    0.25    0.34
 -20  -1  11   -0.05    0.27
  20   1 -10    4.78    0.67
 -20   1  10    3.94    0.59
 -20  -1  10    3.82    0.58
  20  -1 -10    3.75    0.63
  20   1  -9    3.23    0.56
 -20   1   9    2.94    0.51
 -20  -1   9    2.34    0.45
  20  -1  -9    3.16    0.56
 -20   1   8    6.04    0.68
  20   1  -8    5.13    0.66
  20  -1  -8    5.42    0.69
 -20  -1   8    6.14    0.67
 -20   1   7    0.56    0.29
  20   1  -7    0.29    0.30
  20  -1  -7   -0.07    0.28
 -20  -1   7    0.88    0.31
  20   1  -6   -0.11    0.26
 -20   1   6    0.12    0.24
 -20  -1   6    0.94    0.30
 -20   1   5    0.26    0.25
 -20  -1   5    0.28    0.26
 -20   1   4    0.30    0.27
 -20  -1   4    0.58    0.28
 -20   1   3    0.00    0.23
 -20  -1   3    0.13    0.23
 -20   1   2    1.80    0.39
 -20  -1   2    1.42    0.36
 -20   1   1    2.90    0.47
 -20  -1   1    3.32    0.50
 -20   1   0   10.94    0.75
 -20  -1   0    9.17    0.69
 -20   1  -1   -0.19    0.23
 -20  -1  -1   -0.14    0.24
 -20   1  -2   -0.28    0.23
 -20  -1  -2    0.02    0.26
 -20   1  -3    4.45    0.54
  20   1   3    3.90    0.54
 -20  -1  -3    4.46    0.56
 -20   1  -5    0.38    0.34
 -20   1  -6    0.40    0.32
  20   2 -11    0.38    0.35
 -20   2  11    0.70    0.33
  20  -2 -11    0.35    0.37
 -20  -2  11   -0.05    0.26
  20   2 -10    0.94    0.40
 -20   2  10    1.17    0.37
 -20  -2  10    1.64    0.42
  20  -2 -10    0.96    0.38
 -20   2   9    0.23    0.27
  20   2  -9   -0.35    0.27
  20  -2  -9   -0.10    0.31
 -20  -2   9   -0.08    0.22
  20   2  -8    0.85    0.34
 -20   2   8   -0.04    0.24
 -20  -2   8    0.14    0.27
  20  -2  -8    0.77    0.36
 -20   2   7    0.05    0.24
  20   2  -7    0.10    0.28
 -20  -2   7    0.30    0.26
 -20   2   6    0.12    0.25
  20   2  -6    0.01    0.25
 -20  -2   6    0.12    0.25
 -20   2   5    0.22    0.24
  20   2  -5   -0.13    0.25
 -20  -2   5    0.16    0.25
 -20   2   4    0.13    0.25
 -20  -2   4    0.02    0.23
 -20   2   3    2.20    0.43
 -20  -2   3    1.72    0.39
 -20   2   2    0.57    0.29
 -20  -2   2    0.53    0.26
  20   2  -1    4.74    0.61
 -20   2   1    4.39    0.56
 -20  -2   1    4.86    0.58
 -20   2   0    0.16    0.24
  20   2   0   -0.24    0.24
 -20  -2   0    0.19    0.26
  20   2   1    0.83    0.34
 -20   2  -1    0.37    0.28
 -20  -2  -1    0.52    0.30
  20   2   2    0.15    0.27
 -20   2  -2   -0.22    0.21
  20   2   3    0.17    0.30
 -20   2  -3    1.32    0.34
 -20   2  -4    0.84    0.36
 -20   2  -5    1.92    0.46
  20   3 -10    0.64    0.37
  20   3 -10    1.15    0.42
 -20   3  10    0.58    0.34
  20  -3 -10    1.06    0.39
 -20   3   9    1.67    0.43
  20   3  -9    1.27    0.41
  20   3  -9    1.25    0.40
 -20  -3   9    0.80    0.35
  20  -3  -9    1.82    0.48
  20   3  -8    0.07    0.28
 -20   3   8    0.15    0.26
  20   3  -8    0.34    0.29
 -20  -3   8    0.11    0.27
  20   3  -7   -0.08    0.29
  20   3  -7    0.05    0.26
 -20   3   7    0.04    0.23
 -20  -3   7    0.18    0.26
  20   3  -6    0.28    0.30
  20   3  -6    1.07    0.34
 -20   3   6    0.83    0.34
 -20  -3   6    1.04    0.35
  20   3  -5    0.32    0.30
 -20   3   5    0.10    0.25
  20   3  -5    0.10    0.27
 -20  -3   5    0.43    0.28
 -20   3   4    8.66    0.80
  20   3  -4    7.30    0.77
 -20  -3   4    7.13    0.72
  20   3  -3    0.94    0.35
 -20   3   3    0.81    0.32
 -20   3   2    0.23    0.28
  20   3  -2    0.26    0.28
 -20   3   1    0.50    0.29
  20   3  -1    0.32    0.27
  20   3   0    0.69    0.36
 -20   3   0    1.13    0.35
 -20   3  -1   -0.10    0.22
  20   3   1   -0.33    0.22
  20   3   2    0.28    0.30
 -20   3  -2    0.17    0.27
 -20   3  -3    0.27    0.27
  20   3   3    0.05    0.28
 -20   3  -4    7.11    0.77
 -20   3  -5    0.34    0.32
  20   4  -9    1.62    0.45
 -20   4   9    2.47    0.48
  20   4  -9    2.08    0.48
  20  -4  -9    1.64    0.47
  20   4  -8    0.49    0.33
 -20   4   8    0.95    0.37
 -20   4   7    2.64    0.49
  20   4  -7    2.60    0.51
 -20   4   6    3.38    0.54
  20   4  -6    3.81    0.59
 -20   4   5    3.98    0.57
  20   4  -5    4.07    0.61
 -20   4   4    0.73    0.33
  20   4  -4    0.80    0.38
  20   4  -3    1.85    0.45
 -20   4   3    2.43    0.47
  20   4  -2    0.67    0.35
 -20   4   2    0.98    0.35
 -20   4   1    1.17    0.36
  20   4  -1    0.98    0.37
 -20   4   0    0.66    0.30
  20   4   0    1.37    0.39
  20   4   1    2.83    0.51
 -20   4  -1    2.65    0.47
  20   4   2    2.15    0.48
 -20   4  -2    1.80    0.41
  20   4   3    1.94    0.44
 -20   4  -4   -0.05    0.30
  20   5  -8    0.41    0.35
 -20   5   8    0.35    0.30
  20   5  -7    1.35    0.43
 -20   5   7    0.80    0.36
 -20   5   6    6.80    0.74
  20   5  -6    6.69    0.78
  20   5  -5    4.91    0.66
 -20   5   5    6.67    0.73
  20   5  -4    1.24    0.42
 -20   5   4    1.59    0.41
  20   5  -3    2.14    0.48
 -20   5   3    1.85    0.42
 -20   5   2    2.78    0.49
  20   5  -2    2.76    0.52
 -20   5   1    6.96    0.74
  20   5  -1    8.31    0.83
  20   5   0   -0.04    0.27
 -20   5   0    0.01    0.25
 -20   5  -1    0.94    0.35
  20   5   1    0.78    0.36
 -20   5  -2    0.13    0.29
  20   5   2   -0.04    0.27
 -20   6   5   -0.29    0.25
  20   6  -5    0.10    0.31
 -20   6   4   -0.15    0.28
  20   6  -4   -0.06    0.29
  20   6  -3    0.25    0.33
 -20   6   3   -0.17    0.27
  20   6  -2    0.62    0.37
 -20   6   2   -0.18    0.25
  20   6  -1    0.45    0.36
 -20   6   1    0.66    0.34
  20   6   0    1.88    0.45
 -20   6   0    2.14    0.45
  21   0  -9   -0.20    0.31
 -21   0   9    0.06    0.27
  21   0  -8    2.59    0.52
 -21   0   8    3.26    0.55
 -21   0   7   -0.05    0.23
  21   0  -7   -0.63    0.24
  21   0  -6    0.38    0.32
 -21   0   6    0.27    0.29
 -21   0   5   -0.04    0.24
 -21   0   4   -0.08    0.23
 -21   0   3   -0.11    0.23
 -21   0   2    2.74    0.47
 -21   0   1    0.19    0.23
 -21   0   0    0.04    0.23
 -21   0  -1    0.11    0.26
 -21   0  -2    0.23    0.26
  21   1  -9    0.85    0.38
 -21   1   9    0.28    0.29
 -21  -1   9    0.51    0.32
  21  -1  -9    0.42    0.38
 -21   1   8   -0.03    0.26
  21   1  -8    0.31    0.32
 -21  -1   8   -0.09    0.26
  21  -1  -8   -0.05    0.31
 -21   1   7   -0.04    0.24
  21   1  -7   -0.18    0.28
  21  -1  -7   -0.07    0.29
 -21  -1   7    0.10    0.27
 -21   1   6    0.92    0.33
  21   1  -6    1.41    0.42
 -21  -1   6    1.15    0.36
  21   1  -5    0.90    0.35
 -21   1   5    0.30    0.28
 -21  -1   5    1.01    0.33
 -21   1   4    2.27    0.45
 -21  -1   4    1.67    0.40
 -21   1   3    1.63    0.39
 -21  -1   3    1.76    0.41
 -21   1   2    0.66    0.31
 -21  -1   2    0.07    0.26
 -21   1   1    0.19    0.26
 -21  -1   1    0.34    0.25
 -21   1   0    0.48    0.29
 -21  -1   0    0.30    0.28
 -21   1  -1   -0.23    0.21
 -21  -1  -1    0.02    0.24
 -21   1  -2    0.77    0.30
  21   1   2    0.60    0.31
 -21  -1  -2    0.78    0.33
  21   1   3   -0.10    0.29
 -21   2   9    0.32    0.28
 -21  -2   9    0.41    0.30
 -21   2   8    0.69    0.32
  21   2  -8    1.38    0.42
  21  -2  -8    0.98    0.42
 -21  -2   8    0.83    0.35
  21   2  -7    4.54    0.62
 -21   2   7    3.18    0.52
 -21  -2   7    3.33    0.53
 -21   2   6   -0.09    0.22
  21   2  -6   -0.04    0.28
 -21  -2   6    0.19    0.26
 -21   2   5    0.28    0.26
  21   2  -5    0.40    0.31
 -21  -2   5    0.63    0.30
 -21   2   4    1.47    0.39
  21   2  -4    1.39    0.38
 -21  -2   4    1.61    0.39
 -21   2   3    0.19    0.26
 -21  -2   3    0.44    0.28
 -21   2   2    0.32    0.27
  21   2  -2    0.31    0.30
 -21  -2   2    0.29    0.27
  21   2  -1    0.97    0.35
 -21   2   1    0.88    0.33
 -21  -2   1    0.93    0.33
 -21   2   0    0.29    0.26
  21   2   0    0.00    0.28
 -21  -2   0    0.12    0.26
  21   2   1   -0.04    0.27
 -21   2  -1    0.13    0.26
 -21   2  -2    1.50    0.39
  21   2   2    1.53    0.41
  21   2   3    1.55    0.40
  21   3  -8    2.86    0.54
 -21   3   8    3.41    0.54
  21   3  -7    0.01    0.30
  21   3  -7   -0.01    0.31
 -21   3   7    0.04    0.28
 -21   3   6    0.45    0.30
  21   3  -6    0.69    0.35
  21   3  -6   -0.05    0.29
  21   3  -5    0.33    0.31
 -21   3   5    0.47    0.32
 -21   3   4    0.79    0.33
  21   3  -4    1.04    0.37
  21   3  -3   -0.21    0.28
 -21   3   3   -0.02    0.24
 -21   3   2    4.05    0.56
  21   3  -2    3.29    0.55
  21   3  -1    0.03    0.28
 -21   3   1    0.41    0.28
  21   3   0    0.10    0.30
 -21   3   0    0.10    0.24
  21   3   1   -0.27    0.25
 -21   3  -1   -0.02    0.25
 -21   3  -2    0.25    0.29
  21   3   2    0.13    0.31
  21   4  -6    0.18    0.31
 -21   4   6    0.13    0.29
 -21   4   5    2.63    0.51
  21   4  -5    3.66    0.61
  21   4  -4    0.17    0.32
 -21   4   4    0.26    0.28
 -21   4   3    2.41    0.48
  21   4  -3    2.82    0.55
  21   4  -2    2.13    0.47
 -21   4   2    2.75    0.49
  21   4  -1    1.96    0.46
 -21   4   1    2.98    0.51
  21   4   0    0.22    0.29
 -21   4   0    0.43    0.32
  21   4   1    0.27    0.36
 -21   4  -1    0.57    0.31
 -22   0   6    6.70    0.72
  22   0  -6    5.65    0.72
 -22   0   5    0.11    0.26
 -22   0   4    0.39    0.30
 -22   0   3   -0.04    0.25
 -22   0   2    0.74    0.32
 -22   0   1   -0.06    0.27
 -22   0   0    2.95    0.50
 -22   1   6   -0.03    0.25
 -22  -1   6   -0.06    0.25
  22   1  -5    2.19    0.49
 -22   1   5    2.42    0.47
 -22  -1   5    2.87    0.51
 -22   1   4    0.38    0.30
 -22  -1   4    0.00    0.27
 -22   1   3    0.70    0.31
 -22  -1   3    0.36    0.31
 -22   1   2    0.82    0.33
 -22  -1   2    1.37    0.38
 -22   1   1   -0.38    0.23
 -22  -1   1    0.27    0.28
 -22   1   0    0.59    0.30
 -22  -1   0    0.43    0.30
  22   2  -5    0.70    0.36
 -22   2   4    0.16    0.28
  22   2  -4    0.88    0.36
  22   2  -4    0.25    0.30
 -22  -2   4    0.11    0.28
  22   2  -3    3.78    0.60
 -22   2   3    3.82    0.57
 -22  -2   3    4.45    0.60
  22   2  -2    0.24    0.29
 -22   2   2   -0.09    0.24
 -22  -2   2   -0.03    0.25
  22   2  -1   -0.03    0.27
 -22   2   1    0.03    0.26
 -22  -2   1    0.05    0.26
   0   0   0    0.00    0.00
;
_shelx_hkl_checksum              78814
_olex2_submission_special_instructions 'No special instructions were received'
loop_
_space_group_symop_operation_xyz
'x, y, z'
'-x, y+1/2, -z+1/2'
'-x, -y, -z'
'x, -y-1/2, z-1/2'
loop_
_atom_site_label
_atom_site_type_symbol
_atom_site_fract_x
_atom_site_fract_y
_atom_site_fract_z
_atom_site_U_iso_or_equiv
_atom_site_adp_type
_atom_site_occupancy
_atom_site_site_symmetry_order
_atom_site_calc_flag
_atom_site_refinement_flags_posn
S1 S 0.30102(3) 0.58116(4) 0.44941(3) 0.01804(11) Uani 1 1 d .
O1 O 0.13274(8) 0.54006(13) 0.31467(9) 0.0257(3) Uani 1 1 d .
O2 O 0.17662(9) 0.89584(14) 0.29496(10) 0.0343(3) Uani 1 1 d .
O3 O 0.58278(8) 0.50095(13) 0.26909(11) 0.0329(3) Uani 1 1 d .
O4 O 0.64205(7) 0.70568(12) 0.29973(9) 0.0236(3) Uani 1 1 d .
O5 O 0.22700(8) 0.60691(13) 0.49574(8) 0.0246(3) Uani 1 1 d .
O6 O 0.38033(8) 0.65136(12) 0.47802(8) 0.0238(3) Uani 1 1 d .
N1 N 0.27382(8) 0.61850(14) 0.33507(9) 0.0184(3) Uani 1 1 d .
C1 C 0.18910(10) 0.60603(16) 0.28795(11) 0.0190(3) Uani 1 1 d .
C2 C 0.18382(10) 0.69254(17) 0.19896(12) 0.0208(3) Uani 1 1 d .
C3 C 0.11975(11) 0.6455(2) 0.11408(13) 0.0289(4) Uani 1 1 d .
H3A H 0.1004 0.5520 0.1242 0.035 Uiso 1 1 calc R
H3B H 0.1473 0.6474 0.0557 0.035 Uiso 1 1 calc R
C4 C 0.04118(12) 0.7445(2) 0.10496(14) 0.0324(4) Uani 1 1 d .
C5 C 0.08072(12) 0.8761(2) 0.14487(14) 0.0327(4) Uani 1 1 d .
H5A H 0.1059 0.9275 0.0958 0.039 Uiso 1 1 calc R
H5B H 0.0367 0.9329 0.1696 0.039 Uiso 1 1 calc R
C6 C 0.15023(11) 0.83358(18) 0.22353(13) 0.0250(4) Uani 1 1 d .
C7 C -0.02583(13) 0.6962(3) 0.16686(17) 0.0440(6) Uani 1 1 d .
H7A H -0.0497 0.6090 0.1434 0.066 Uiso 1 1 calc GR
H7B H -0.0727 0.7627 0.1643 0.066 Uiso 1 1 calc GR
H7C H 0.0022 0.6861 0.2325 0.066 Uiso 1 1 calc GR
C8 C -0.00006(14) 0.7580(3) 0.00147(16) 0.0488(6) Uani 1 1 d .
H8A H 0.0433 0.7909 -0.0365 0.073 Uiso 1 1 calc GR
H8B H -0.0484 0.8221 -0.0030 0.073 Uiso 1 1 calc GR
H8C H -0.0216 0.6696 -0.0224 0.073 Uiso 1 1 calc GR
C9 C 0.27875(11) 0.7010(2) 0.18296(12) 0.0248(4) Uani 1 1 d .
H9A H 0.2897 0.7866 0.1507 0.030 Uiso 1 1 calc R
H9B H 0.2935 0.6245 0.1435 0.030 Uiso 1 1 calc R
C10 C 0.33278(10) 0.69503(17) 0.28142(11) 0.0192(3) Uani 1 1 d .
H10 H 0.3424 0.7882 0.3080 0.023 Uiso 1 1 calc R
C11 C 0.41769(10) 0.62572(17) 0.27922(11) 0.0203(3) Uani 1 1 d .
H11 H 0.4178 0.5306 0.2704 0.024 Uiso 1 1 calc R
C12 C 0.49247(10) 0.69048(18) 0.28900(12) 0.0229(3) Uani 1 1 d .
H12 H 0.4931 0.7853 0.2995 0.027 Uiso 1 1 calc R
C13 C 0.57509(10) 0.61988(18) 0.28404(12) 0.0216(3) Uani 1 1 d .
C14 C 0.72701(11) 0.6468(2) 0.29890(13) 0.0255(4) Uani 1 1 d .
H14A H 0.7290 0.5972 0.2390 0.031 Uiso 1 1 calc R
H14B H 0.7407 0.5829 0.3524 0.031 Uiso 1 1 calc R
C15 C 0.79097(12) 0.7616(2) 0.30807(14) 0.0343(5) Uani 1 1 d .
H15A H 0.7784 0.8217 0.2533 0.051 Uiso 1 1 calc GR
H15B H 0.8498 0.7255 0.3108 0.051 Uiso 1 1 calc GR
H15C H 0.7864 0.8123 0.3662 0.051 Uiso 1 1 calc GR
C16 C 0.32084(10) 0.40737(16) 0.45155(11) 0.0175(3) Uani 1 1 d .
C17 C 0.40494(10) 0.36039(18) 0.45334(12) 0.0224(3) Uani 1 1 d .
H17 H 0.4516 0.4217 0.4521 0.027 Uiso 1 1 calc R
C18 C 0.41944(11) 0.22227(18) 0.45692(13) 0.0251(4) Uani 1 1 d .
H18 H 0.4768 0.1891 0.4586 0.030 Uiso 1 1 calc R
C19 C 0.35166(11) 0.13134(17) 0.45811(12) 0.0231(3) Uani 1 1 d .
C20 C 0.26775(11) 0.18116(17) 0.45395(12) 0.0227(3) Uani 1 1 d .
H20 H 0.2207 0.1198 0.4528 0.027 Uiso 1 1 calc R
C21 C 0.25169(10) 0.31886(17) 0.45137(11) 0.0202(3) Uani 1 1 d .
H21 H 0.1943 0.3522 0.4495 0.024 Uiso 1 1 calc R
C22 C 0.36862(14) -0.01820(18) 0.46465(15) 0.0321(4) Uani 1 1 d .
H22A H 0.3916 -0.0420 0.5301 0.048 Uiso 1 1 calc GR
H22B H 0.4109 -0.0427 0.4228 0.048 Uiso 1 1 calc GR
H22C H 0.3144 -0.0673 0.4453 0.048 Uiso 1 1 calc GR
loop_
_atom_site_aniso_label
_atom_site_aniso_U_11
_atom_site_aniso_U_22
_atom_site_aniso_U_33
_atom_site_aniso_U_23
_atom_site_aniso_U_13
_atom_site_aniso_U_12
S1 0.0190(2) 0.01828(19) 0.01662(19) -0.00102(14) 0.00191(14) 0.00060(14)
O1 0.0184(6) 0.0270(6) 0.0310(7) 0.0059(5) 0.0010(5) -0.0035(5)
O2 0.0332(7) 0.0260(7) 0.0428(8) -0.0041(6) 0.0025(6) 0.0010(6)
O3 0.0231(7) 0.0232(6) 0.0531(9) -0.0046(6) 0.0079(6) 0.0017(5)
O4 0.0152(5) 0.0255(6) 0.0301(7) -0.0021(5) 0.0029(5) 0.0004(5)
O5 0.0265(6) 0.0269(6) 0.0218(6) -0.0028(5) 0.0081(5) 0.0043(5)
O6 0.0230(6) 0.0221(6) 0.0244(6) -0.0019(5) -0.0035(5) -0.0039(5)
N1 0.0156(6) 0.0202(6) 0.0187(6) 0.0029(5) 0.0007(5) 0.0000(5)
C1 0.0175(7) 0.0185(7) 0.0204(8) 0.0004(6) 0.0004(6) 0.0019(6)
C2 0.0175(7) 0.0236(8) 0.0207(8) 0.0031(6) 0.0006(6) 0.0008(6)
C3 0.0226(9) 0.0387(11) 0.0235(9) 0.0029(8) -0.0035(7) 0.0015(8)
C4 0.0184(8) 0.0480(12) 0.0300(10) 0.0122(9) 0.0001(7) 0.0035(8)
C5 0.0247(9) 0.0399(11) 0.0341(10) 0.0152(9) 0.0064(7) 0.0111(8)
C6 0.0176(8) 0.0238(8) 0.0344(10) 0.0078(7) 0.0062(7) -0.0002(6)
C7 0.0192(9) 0.0682(16) 0.0445(13) 0.0197(11) 0.0044(8) -0.0007(10)
C8 0.0319(11) 0.0774(19) 0.0340(12) 0.0148(11) -0.0059(9) 0.0073(11)
C9 0.0180(8) 0.0354(10) 0.0209(8) 0.0069(7) 0.0025(6) 0.0049(7)
C10 0.0153(7) 0.0210(8) 0.0216(8) 0.0035(6) 0.0035(6) 0.0005(6)
C11 0.0196(8) 0.0226(8) 0.0188(8) 0.0030(6) 0.0028(6) 0.0028(6)
C12 0.0185(8) 0.0221(8) 0.0282(9) -0.0009(7) 0.0038(6) 0.0027(6)
C13 0.0168(7) 0.0241(8) 0.0241(8) 0.0011(6) 0.0034(6) 0.0003(6)
C14 0.0163(8) 0.0369(10) 0.0239(8) 0.0043(7) 0.0050(6) 0.0045(7)
C15 0.0211(9) 0.0546(13) 0.0276(10) 0.0039(9) 0.0049(7) -0.0089(8)
C16 0.0194(7) 0.0181(7) 0.0145(7) 0.0010(6) 0.0007(6) 0.0011(6)
C17 0.0161(7) 0.0231(8) 0.0274(9) -0.0003(7) 0.0011(6) -0.0014(6)
C18 0.0208(8) 0.0245(8) 0.0295(9) -0.0004(7) 0.0014(7) 0.0049(7)
C19 0.0294(9) 0.0216(8) 0.0180(8) 0.0004(6) 0.0017(6) 0.0024(7)
C20 0.0257(8) 0.0205(8) 0.0218(8) 0.0008(6) 0.0033(6) -0.0035(6)
C21 0.0174(7) 0.0222(8) 0.0208(8) 0.0008(6) 0.0015(6) 0.0000(6)
C22 0.0396(11) 0.0197(8) 0.0366(10) 0.0012(7) 0.0041(8) 0.0051(8)
loop_
_atom_type_symbol
_atom_type_description
_atom_type_scat_dispersion_real
_atom_type_scat_dispersion_imag
_atom_type_scat_source
C C 0.0033 0.0016 'International Tables Vol C Tables 4.2.6.8 and 6.1.1.4'
H H 0.0000 0.0000 'International Tables Vol C Tables 4.2.6.8 and 6.1.1.4'
N N 0.0061 0.0033 'International Tables Vol C Tables 4.2.6.8 and 6.1.1.4'
O O 0.0106 0.0060 'International Tables Vol C Tables 4.2.6.8 and 6.1.1.4'
S S 0.1246 0.1234 'International Tables Vol C Tables 4.2.6.8 and 6.1.1.4'
loop_
_geom_angle_atom_site_label_1
_geom_angle_atom_site_label_2
_geom_angle_atom_site_label_3
_geom_angle
O5 S1 N1 107.60(7)
O5 S1 C16 108.63(8)
O6 S1 O5 120.25(8)
O6 S1 N1 105.18(7)
O6 S1 C16 109.30(7)
N1 S1 C16 104.78(7)
C13 O4 C14 115.81(14)
C1 N1 S1 122.82(11)
C1 N1 C10 114.09(13)
C10 N1 S1 121.82(11)
O1 C1 N1 125.38(15)
O1 C1 C2 127.96(15)
N1 C1 C2 106.65(13)
C1 C2 C3 116.17(14)
C1 C2 C6 107.34(14)
C1 C2 C9 102.45(13)
C3 C2 C6 104.46(14)
C3 C2 C9 115.80(14)
C9 C2 C6 110.45(14)
C2 C3 H3A 110.3
C2 C3 H3B 110.3
C2 C3 C4 106.98(15)
H3A C3 H3B 108.6
C4 C3 H3A 110.3
C4 C3 H3B 110.3
C5 C4 C3 103.63(15)
C5 C4 C7 108.94(18)
C5 C4 C8 112.35(18)
C7 C4 C3 110.26(17)
C8 C4 C3 110.66(18)
C8 C4 C7 110.78(17)
C4 C5 H5A 110.8
C4 C5 H5B 110.8
H5A C5 H5B 108.9
C6 C5 C4 104.55(15)
C6 C5 H5A 110.8
C6 C5 H5B 110.8
O2 C6 C2 124.28(16)
O2 C6 C5 127.41(18)
C5 C6 C2 108.30(15)
C4 C7 H7A 109.5
C4 C7 H7B 109.5
C4 C7 H7C 109.5
H7A C7 H7B 109.5
H7A C7 H7C 109.5
H7B C7 H7C 109.5
C4 C8 H8A 109.5
C4 C8 H8B 109.5
C4 C8 H8C 109.5
H8A C8 H8B 109.5
H8A C8 H8C 109.5
H8B C8 H8C 109.5
C2 C9 H9A 110.5
C2 C9 H9B 110.5
C2 C9 C10 106.16(13)
H9A C9 H9B 108.7
C10 C9 H9A 110.5
C10 C9 H9B 110.5
N1 C10 C9 101.09(13)
N1 C10 H10 110.2
N1 C10 C11 113.04(13)
C9 C10 H10 110.2
C11 C10 C9 111.81(13)
C11 C10 H10 110.2
C10 C11 H11 118.4
C12 C11 C10 123.10(16)
C12 C11 H11 118.4
C11 C12 H12 119.0
C11 C12 C13 121.91(16)
C13 C12 H12 119.0
O3 C13 O4 123.64(15)
O3 C13 C12 125.47(16)
O4 C13 C12 110.88(15)
O4 C14 H14A 110.3
O4 C14 H14B 110.3
O4 C14 C15 106.91(15)
H14A C14 H14B 108.6
C15 C14 H14A 110.3
C15 C14 H14B 110.3
C14 C15 H15A 109.5
C14 C15 H15B 109.5
C14 C15 H15C 109.5
H15A C15 H15B 109.5
H15A C15 H15C 109.5
H15B C15 H15C 109.5
C17 C16 S1 119.64(13)
C17 C16 C21 121.31(15)
C21 C16 S1 119.05(12)
C16 C17 H17 120.7
C18 C17 C16 118.69(16)
C18 C17 H17 120.7
C17 C18 H18 119.4
C17 C18 C19 121.27(16)
C19 C18 H18 119.4
C18 C19 C20 118.80(16)
C18 C19 C22 120.71(17)
C20 C19 C22 120.49(16)
C19 C20 H20 119.5
C21 C20 C19 121.00(16)
C21 C20 H20 119.5
C16 C21 H21 120.6
C20 C21 C16 118.90(15)
C20 C21 H21 120.6
C19 C22 H22A 109.5
C19 C22 H22B 109.5
C19 C22 H22C 109.5
H22A C22 H22B 109.5
H22A C22 H22C 109.5
H22B C22 H22C 109.5
loop_
_geom_bond_atom_site_label_1
_geom_bond_atom_site_label_2
_geom_bond_distance
S1 O5 1.4313(12)
S1 O6 1.4264(12)
S1 N1 1.6676(14)
S1 C16 1.7468(16)
O1 C1 1.199(2)
O2 C6 1.212(2)
O3 C13 1.205(2)
O4 C13 1.339(2)
O4 C14 1.4483(19)
N1 C1 1.400(2)
N1 C10 1.484(2)
C1 C2 1.524(2)
C2 C3 1.529(2)
C2 C6 1.548(2)
C2 C9 1.531(2)
C3 H3A 0.9900
C3 H3B 0.9900
C3 C4 1.559(3)
C4 C5 1.516(3)
C4 C7 1.536(3)
C4 C8 1.530(3)
C5 H5A 0.9900
C5 H5B 0.9900
C5 C6 1.505(3)
C7 H7A 0.9800
C7 H7B 0.9800
C7 H7C 0.9800
C8 H8A 0.9800
C8 H8B 0.9800
C8 H8C 0.9800
C9 H9A 0.9900
C9 H9B 0.9900
C9 C10 1.533(2)
C10 H10 1.0000
C10 C11 1.495(2)
C11 H11 0.9500
C11 C12 1.320(2)
C12 H12 0.9500
C12 C13 1.476(2)
C14 H14A 0.9900
C14 H14B 0.9900
C14 C15 1.505(3)
C15 H15A 0.9800
C15 H15B 0.9800
C15 H15C 0.9800
C16 C17 1.388(2)
C16 C21 1.389(2)
C17 H17 0.9500
C17 C18 1.385(2)
C18 H18 0.9500
C18 C19 1.390(2)
C19 C20 1.391(2)
C19 C22 1.504(2)
C20 H20 0.9500
C20 C21 1.385(2)
C21 H21 0.9500
C22 H22A 0.9800
C22 H22B 0.9800
C22 H22C 0.9800
loop_
_geom_torsion_atom_site_label_1
_geom_torsion_atom_site_label_2
_geom_torsion_atom_site_label_3
_geom_torsion_atom_site_label_4
_geom_torsion
S1 N1 C1 O1 -18.6(2)
S1 N1 C1 C2 160.80(11)
S1 N1 C10 C9 179.68(11)
S1 N1 C10 C11 60.02(17)
S1 C16 C17 C18 178.73(13)
S1 C16 C21 C20 -179.42(12)
O1 C1 C2 C3 -30.3(3)
O1 C1 C2 C6 86.1(2)
O1 C1 C2 C9 -157.55(18)
O5 S1 N1 C1 -30.01(15)
O5 S1 N1 C10 136.37(12)
O5 S1 C16 C17 -150.14(13)
O5 S1 C16 C21 29.90(15)
O6 S1 N1 C1 -159.33(13)
O6 S1 N1 C10 7.04(14)
O6 S1 C16 C17 -17.20(15)
O6 S1 C16 C21 162.84(12)
N1 S1 C16 C17 95.10(14)
N1 S1 C16 C21 -84.87(14)
N1 C1 C2 C3 150.28(14)
N1 C1 C2 C6 -93.30(15)
N1 C1 C2 C9 23.04(17)
N1 C10 C11 C12 -138.95(17)
C1 N1 C10 C9 -12.84(18)
C1 N1 C10 C11 -132.50(14)
C1 C2 C3 C4 106.45(17)
C1 C2 C6 O2 45.3(2)
C1 C2 C6 C5 -134.29(14)
C1 C2 C9 C10 -31.12(18)
C2 C3 C4 C5 29.05(19)
C2 C3 C4 C7 -87.4(2)
C2 C3 C4 C8 149.69(17)
C2 C9 C10 N1 26.93(17)
C2 C9 C10 C11 147.46(14)
C3 C2 C6 O2 169.22(17)
C3 C2 C6 C5 -10.40(18)
C3 C2 C9 C10 -158.59(15)
C3 C4 C5 C6 -34.96(18)
C4 C5 C6 O2 -150.81(18)
C4 C5 C6 C2 28.79(19)
C6 C2 C3 C4 -11.57(18)
C6 C2 C9 C10 82.96(17)
C7 C4 C5 C6 82.41(18)
C8 C4 C5 C6 -154.45(17)
C9 C2 C3 C4 -133.26(16)
C9 C2 C6 O2 -65.6(2)
C9 C2 C6 C5 114.77(15)
C9 C10 C11 C12 107.76(19)
C10 N1 C1 O1 174.03(16)
C10 N1 C1 C2 -6.53(18)
C10 C11 C12 C13 -178.38(15)
C11 C12 C13 O3 1.7(3)
C11 C12 C13 O4 -177.53(16)
C13 O4 C14 C15 174.48(14)
C14 O4 C13 O3 -0.7(2)
C14 O4 C13 C12 178.54(14)
C16 S1 N1 C1 85.47(14)
C16 S1 N1 C10 -108.15(13)
C16 C17 C18 C19 0.4(3)
C17 C16 C21 C20 0.6(2)
C17 C18 C19 C20 1.1(3)
C17 C18 C19 C22 -178.34(17)
C18 C19 C20 C21 -1.8(2)
C19 C20 C21 C16 1.0(2)
C21 C16 C17 C18 -1.3(2)
C22 C19 C20 C21 177.64(16)
