#------------------------------------------------------------------------------
#$Date: 2017-03-04 14:57:42 +0200 (Sat, 04 Mar 2017) $
#$Revision: 193374 $
#$URL: file:///home/coder/svn-repositories/cod/cif/1/54/54/1545455.cif $
#------------------------------------------------------------------------------
#
# This file is available in the Crystallography Open Database (COD),
# http://www.crystallography.net/
#
# All data on this site have been placed in the public domain by the
# contributors.
#
data_1545455
loop_
_publ_author_name
'Prasad, Ch Durga'
'Sattar, Moh'
'Kumar, Sangit'
_publ_section_title
;
 Transition-Metal-Free Selective Oxidative C(sp(3))-S/Se Coupling of
 Oxindoles, Tetralone, and Arylacetamides: Synthesis of Unsymmetrical
 Organochalcogenides.
;
_journal_issue                   4
_journal_name_full               'Organic letters'
_journal_page_first              774
_journal_page_last               777
_journal_paper_doi               10.1021/acs.orglett.6b03735
_journal_volume                  19
_journal_year                    2017
_chemical_formula_moiety         'C15  H13  N1  O3  S1'
_chemical_formula_sum            'C15 H13 N O3 S'
_chemical_formula_weight         287.32
_chemical_name_systematic
;
 ?
;
_space_group_IT_number           14
_symmetry_cell_setting           monoclinic
_symmetry_Int_Tables_number      14
_symmetry_space_group_name_Hall  '-P 2ybc'
_symmetry_space_group_name_H-M   'P 1 21/c 1'
_atom_sites_solution_hydrogens   geom
_audit_conform_dict_location     ftp://ftp.iucr.org/pub/cif_core.dic
_audit_conform_dict_name         cif_core.dic
_audit_conform_dict_version      2.4.3
_audit_creation_date             2015-12-01T09:41:05-00:00
_audit_creation_method           'WinGX routine CIF_UPDATE'
_cell_angle_alpha                90
_cell_angle_beta                 113.961(2)
_cell_angle_gamma                90
_cell_formula_units_Z            4
_cell_length_a                   12.6933(4)
_cell_length_b                   7.6526(2)
_cell_length_c                   15.0369(5)
_cell_measurement_reflns_used    36
_cell_measurement_temperature    296(2)
_cell_measurement_theta_max      28.71
_cell_measurement_theta_min      4.82
_cell_measurement_wavelength     0.71073
_cell_volume                     1334.76(7)
_computing_cell_refinement       'Bruker SAINT'
_computing_data_collection       'Bruker APEX2'
_computing_data_reduction        'Bruker SAINT'
_computing_molecular_graphics    'Ortep for Windows (Farrugia, 2012)'
_computing_publication_material  'WinGX publication routines (Farrugia, 2012)'
_computing_structure_refinement  'SHELXL-2014 (Sheldrick, 2014)'
_computing_structure_solution    'SHELXS-97 (Sheldrick 2008)'
_diffrn_ambient_temperature      296(2)
_diffrn_measured_fraction_theta_full 0.981
_diffrn_measured_fraction_theta_max 0.975
_diffrn_measurement_device_type  'Bruker APEX-II CCD'
_diffrn_measurement_method       '\f and \w scans'
_diffrn_radiation_probe          x-ray
_diffrn_radiation_type           MoK\a
_diffrn_radiation_wavelength     0.71073
_diffrn_reflns_av_R_equivalents  0.0349
_diffrn_reflns_Laue_measured_fraction_full 0.981
_diffrn_reflns_Laue_measured_fraction_max 0.975
_diffrn_reflns_limit_h_max       16
_diffrn_reflns_limit_h_min       -16
_diffrn_reflns_limit_k_max       9
_diffrn_reflns_limit_k_min       -10
_diffrn_reflns_limit_l_max       20
_diffrn_reflns_limit_l_min       -15
_diffrn_reflns_number            10584
_diffrn_reflns_point_group_measured_fraction_full 0.981
_diffrn_reflns_point_group_measured_fraction_max 0.975
_diffrn_reflns_theta_full        25.242
_diffrn_reflns_theta_max         28.273
_diffrn_reflns_theta_min         4.819
_exptl_absorpt_coefficient_mu    0.249
_exptl_absorpt_correction_type   none
_exptl_crystal_colour            COLOURLESS
_exptl_crystal_density_diffrn    1.43
_exptl_crystal_density_method    'not measured'
_exptl_crystal_description       PLATE
_exptl_crystal_F_000             600
_exptl_crystal_size_max          0.5
_exptl_crystal_size_mid          0.4
_exptl_crystal_size_min          0.1
_refine_diff_density_max         0.366
_refine_diff_density_min         -0.378
_refine_diff_density_rms         0.054
_refine_ls_extinction_method     none
_refine_ls_goodness_of_fit_ref   1.049
_refine_ls_hydrogen_treatment    constr
_refine_ls_matrix_type           full
_refine_ls_number_constraints    0
_refine_ls_number_parameters     182
_refine_ls_number_reflns         3224
_refine_ls_number_restraints     0
_refine_ls_restrained_S_all      1.049
_refine_ls_R_factor_all          0.0468
_refine_ls_R_factor_gt           0.0381
_refine_ls_shift/su_max          0
_refine_ls_shift/su_mean         0
_refine_ls_structure_factor_coef Fsqd
_refine_ls_weighting_details
'w=1/[\s^2^(Fo^2^)+(0.0487P)^2^+0.5804P] where P=(Fo^2^+2Fc^2^)/3'
_refine_ls_weighting_scheme      calc
_refine_ls_wR_factor_gt          0.0963
_refine_ls_wR_factor_ref         0.1029
_reflns_number_gt                2706
_reflns_number_total             3224
_reflns_threshold_expression     'I > 2\s(I)'
_iucr_refine_instructions_details
;
TITL TRYA in P2(1)/c
CELL  0.71073  12.6933   7.6526  15.0369   90.000  113.961   90.000
ZERR     4.00   0.0004   0.0002   0.0005    0.000    0.002    0.000
LATT   1
SYMM  - X, 1/2 + Y, 1/2 - Z
SFAC  C    H    N    O    S
UNIT  60   52   4    12   4
MERG   2
HTAB C10 O1_$2
HTAB C2 O1_$2
HTAB N1 O1_$1
HTAB C10 O1_$2
HTAB C2 O1_$2
HTAB N1 O1_$1
HTAB C10 O1_$2
HTAB C2 O1_$2
HTAB N1 O1_$1
HTAB C10 O1_$2
HTAB C2 O1_$2
HTAB N1 O1_$1
EQIV $1 -x, y+1/2, -z+1/2
HTAB N1 O2_$1
EQIV $2 -x, y-1/2, -z+1/2
HTAB C5 O2_$2
HTAB C14 O2_$2
HTAB N1 O1_$1
HTAB C2 O1_$2
HTAB C10 O1_$2
HTAB N1 O1_$1
HTAB C2 O1_$2
HTAB C10 O1_$2
HTAB N1 O1_$1
HTAB C2 O1_$2
HTAB C10 O1_$2
HTAB N1 O1_$1
HTAB C2 O1_$2
HTAB C10 O1_$2
FMAP   2
PLAN    3
ACTA
BOND   $H
CONF
L.S.  55
TEMP    23.00
WGHT    0.048700    0.580400
FVAR       0.27553
S1    5    0.243662    0.393478    0.363272    11.00000    0.01793    0.01811 =
         0.02048    0.00004    0.00640   -0.00033
O3    4    0.307318    0.555007    0.383763    11.00000    0.02428    0.02124 =
         0.03429    0.00077    0.01152   -0.00477
O1    4    0.000932    0.557192    0.223198    11.00000    0.02179    0.02131 =
         0.01988    0.00084    0.00331    0.00103
O2    4    0.207850    0.317762    0.267998    11.00000    0.02716    0.02878 =
         0.01961   -0.00095    0.00824    0.00261
N1    3    0.046934    0.714599    0.364542    11.00000    0.02191    0.01600 =
         0.02231    0.00079    0.00501    0.00232
AFIX  43
H6    2    0.019474    0.814354    0.339477    11.00000   -1.20000
AFIX   0
C6    1    0.165549    0.728187    0.635476    11.00000    0.02463    0.03938 =
         0.02562   -0.00837    0.01226   -0.00224
AFIX  43
H4    2    0.177364    0.801406    0.688041    11.00000   -1.20000
AFIX   0
C5    1    0.201257    0.556013    0.652300    11.00000    0.02559    0.04068 =
         0.02190    0.00123    0.01090   -0.00028
AFIX  43
H3    2    0.234586    0.514370    0.715832    11.00000   -1.20000
AFIX   0
C4    1    0.187982    0.443874    0.575287    11.00000    0.02201    0.02628 =
         0.02469    0.00422    0.00977    0.00145
AFIX  43
H2    2    0.212177    0.328176    0.586718    11.00000   -1.20000
AFIX   0
C3    1    0.137905    0.509160    0.481467    11.00000    0.01649    0.02063 =
         0.02154   -0.00092    0.00867   -0.00200
C2    1    0.113911    0.427756    0.384169    11.00000    0.01580    0.01662 =
         0.02015    0.00135    0.00459   -0.00097
AFIX  13
H1    2    0.068909    0.319976    0.374552    11.00000   -1.20000
AFIX   0
C9    1    0.320807    0.237462    0.450930    11.00000    0.01686    0.01967 =
         0.02036   -0.00057    0.00702    0.00164
C14   1    0.417775    0.286945    0.532459    11.00000    0.02197    0.02456 =
         0.02303   -0.00625    0.00683   -0.00201
AFIX  43
H10   2    0.443625    0.401961    0.540189    11.00000   -1.20000
AFIX   0
C13   1    0.475051    0.162133    0.601803    11.00000    0.02085    0.03627 =
         0.01955   -0.00307    0.00436    0.00404
AFIX  43
H9    2    0.540738    0.193654    0.655948    11.00000   -1.20000
AFIX   0
C12   1    0.436309   -0.009269    0.592075    11.00000    0.02249    0.03373 =
         0.02424    0.00713    0.01187    0.00759
C15   1    0.493354   -0.141748    0.671117    11.00000    0.03564    0.05263 =
         0.03637    0.02126    0.01544    0.01409
AFIX 137
H12   2    0.575484   -0.134770    0.692243    11.00000   -1.50000
H11   2    0.467533   -0.256808    0.646443    11.00000   -1.50000
H13   2    0.473426   -0.118158    0.725076    11.00000   -1.50000
AFIX   0
C1    1    0.045492    0.571209    0.312125    11.00000    0.01518    0.01838 =
         0.02367    0.00197    0.00536   -0.00093
C8    1    0.098855    0.681553    0.465419    11.00000    0.01582    0.02199 =
         0.02219   -0.00006    0.00699   -0.00073
C7    1    0.111969    0.794256    0.540823    11.00000    0.02308    0.02549 =
         0.03125   -0.00476    0.01167    0.00122
AFIX  43
H5    2    0.086286    0.909249    0.529225    11.00000   -1.20000
AFIX   0
C10   1    0.282667    0.065049    0.437394    11.00000    0.01769    0.02242 =
         0.02459   -0.00248    0.00549   -0.00115
AFIX  43
H7    2    0.218926    0.032589    0.381859    11.00000   -1.20000
AFIX   0
C11   1    0.341213   -0.057215    0.507980    11.00000    0.02189    0.02353 =
         0.03434    0.00361    0.01293    0.00085
AFIX  43
H8    2    0.316903   -0.173019    0.499316    11.00000   -1.20000
AFIX   0
HKLF    4  1.0  1.00  0.00  0.00  0.00  1.00  0.00  0.00  0.00  1.00
REM  TRYA in P2(1)/c
REM R1 =  0.0381 for    2706 Fo > 4sig(Fo)  and  0.0468 for all    3224 data
REM    182 parameters refined using      0 restraints
END
;
_cod_data_source_file            ol6b03735_si_002.cif
_cod_data_source_block           dp767
_cod_original_sg_symbol_H-M      'P 21/c'
_cod_database_code               1545455
_iucr_refine_reflections_details
;
   3   0   0  135.47    2.03
   4   0   0  286.73    3.72
   5   0   0    6.19    0.59
   6   0   0    2.04    0.38
   7   0   0    0.14    0.16
   8   0   0    0.25    0.21
   9   0   0   77.34    2.41
  10   0   0    2.60    0.61
  11   0   0   23.89    1.49
  12   0   0    6.55    1.01
  13   0   0    6.50    1.07
  14   0   0   17.34    1.81
  15   0   0    2.26    0.76
  15   0   0    3.00    0.84
   3  -1   0  474.09    5.23
   3   1   0  470.27    5.06
   4  -1   0  218.83    3.16
   4   1   0  216.22    3.08
   5  -1   0   74.01    1.79
   5   1   0   72.08    1.70
   6  -1   0    1.96    0.40
   6   1   0    2.22    0.38
   7  -1   0   35.34    1.42
   7   1   0   33.54    1.34
   8  -1   0   18.18    1.09
   8   1   0   18.42    1.09
   9  -1   0    0.20    0.23
   9   1   0   -0.08    0.15
  10  -1   0    7.82    0.99
  10   1   0    9.91    1.10
  11  -1   0    4.33    0.80
  11   1   0    4.64    0.81
  12  -1   0    8.64    1.19
  12   1   0    8.93    1.17
  13  -1   0    4.92    0.97
  13  -1   0    3.87    0.92
  13   1   0    3.16    0.76
  14  -1   0    0.65    0.51
  14  -1   0    0.10    0.31
  14   1   0    0.47    0.43
  15  -1   0   -0.44    0.41
  15  -1   0   -0.36    0.39
  15   1   0   -0.08    0.39
   2  -2   0   92.27    1.67
   2   2   0   92.66    1.56
   3  -2   0   67.60    1.52
   3   2   0   65.37    1.40
   4  -2   0   44.18    1.26
   4   2   0   42.39    1.20
   5  -2   0    5.56    0.61
   5  -2   0    6.87    0.55
   5   2   0    6.73    0.52
   6  -2   0    9.91    0.73
   6  -2   0    9.20    0.70
   6   2   0    9.17    0.67
   7  -2   0   42.67    1.60
   7  -2   0   45.10    1.67
   7   2   0   41.67    1.51
   8  -2   0    9.21    0.97
   8  -2   0    9.73    1.00
   8   2   0   10.20    0.97
   9  -2   0   10.97    1.11
   9  -2   0    8.90    1.02
   9   2   0   10.01    1.05
  10  -2   0    0.74    0.41
  10  -2   0    1.04    0.44
  10   2   0    1.19    0.43
  11  -2   0    2.98    0.70
  11  -2   0    3.90    0.79
  11   2   0    3.14    0.68
  12  -2   0    1.67    0.62
  12  -2   0    0.91    0.52
  12   2   0    1.16    0.45
  13  -2   0    0.30    0.41
  13  -2   0   -0.07    0.31
  13   2   0    0.36    0.39
  14  -2   0    9.18    1.42
  14  -2   0    8.03    1.30
  14   2   0   10.07    1.38
  15  -2   0    1.67    0.69
  15  -2   0    2.15    0.81
  15   2   0    2.34    0.80
   0  -3   0   -0.06    0.09
   0  -3   0   -0.17    0.08
   0   3   0   -0.10    0.10
   1  -3   0   53.37    1.20
   1  -3   0   52.82    1.29
  -1   3   0   53.85    1.30
   1   3   0   56.07    1.26
   2  -3   0  347.06    4.39
   2  -3   0  343.83    4.13
   2   3   0  352.87    4.25
  -2   3   0  353.78    4.40
   3  -3   0   25.58    0.91
   3  -3   0   24.50    0.97
   3   3   0   25.35    0.91
  -3   3   0   25.36    0.99
   4  -3   0   43.56    1.41
   4   3   0   43.17    1.29
   5  -3   0   68.18    1.94
   5  -3   0   73.68    1.87
   5   3   0   71.74    1.83
   6  -3   0    5.36    0.68
   6  -3   0    6.25    0.72
  -6  -3   0    6.50    0.72
   6   3   0    5.69    0.66
   7  -3   0  150.87    3.21
   7  -3   0  153.96    3.37
   7   3   0  156.34    3.19
   8  -3   0    0.00    0.18
   8  -3   0    0.06    0.21
   8   3   0   -0.04    0.16
   9  -3   0   72.15    2.50
   9  -3   0   72.54    2.45
   9   3   0   73.20    2.35
  10  -3   0   14.83    1.44
  10  -3   0   12.26    1.29
  10   3   0   14.37    1.33
  11  -3   0    4.76    0.87
  11  -3   0    4.96    0.88
  11   3   0    4.38    0.79
  12  -3   0    4.60    0.92
  12  -3   0    4.31    0.87
  12   3   0    3.92    0.80
  13  -3   0   12.97    1.60
  13  -3   0   11.11    1.45
  13   3   0    9.67    1.28
  14  -3   0    5.38    1.10
  14  -3   0    5.43    1.08
  14   3   0    4.11    0.87
   0  -4   0   16.24    0.72
   0  -4   0   15.15    0.88
   0   4   0   15.48    0.75
  -1  -4   0   11.95    0.79
   1  -4   0   11.31    0.60
   1  -4   0   10.23    0.71
   1  -4   0   11.60    0.66
   1   4   0   11.72    0.64
  -1   4   0   11.89    0.67
  -2  -4   0   22.77    1.09
   2  -4   0   23.53    0.90
   2  -4   0   22.84    1.06
   2  -4   0   23.37    0.98
  -2   4   0   22.86    0.97
   2   4   0   21.93    0.91
   3  -4   0   10.10    0.71
   3  -4   0   11.21    0.73
  -3  -4   0   10.31    0.74
   3  -4   0   10.91    0.64
  -3   4   0   10.07    0.68
   3   4   0   10.73    0.66
   4  -4   0  200.16    3.31
  -4  -4   0  205.14    3.61
   4  -4   0  198.08    3.57
  -4   4   0  201.87    3.58
   4   4   0  204.12    3.34
   5  -4   0    1.29    0.35
   5  -4   0    1.12    0.31
  -5  -4   0    2.64    0.46
   5  -4   0    1.28    0.34
  -5   4   0    1.54    0.40
   5   4   0    1.09    0.30
   6  -4   0   55.43    1.65
  -6  -4   0   54.00    1.75
   6  -4   0   54.10    1.90
   6   4   0   56.78    1.79
   7  -4   0   57.51    2.07
   7  -4   0   54.87    1.91
  -7  -4   0   52.97    1.74
   7   4   0   52.15    1.83
   8  -4   0  101.82    2.98
   8  -4   0  100.63    2.83
   8   4   0  108.03    2.82
   9  -4   0   -0.11    0.20
   9  -4   0    0.44    0.29
   9   4   0   -0.02    0.26
  10  -4   0    4.19    0.75
  10  -4   0    5.59    0.91
  10   4   0    4.27    0.73
  11  -4   0   -0.28    0.30
  11  -4   0    0.49    0.37
  11   4   0   -0.12    0.23
  12  -4   0    7.62    1.16
  12  -4   0    7.23    1.22
  12   4   0    4.85    0.86
  13  -4   0    1.36    0.58
  13  -4   0    2.21    0.74
  13   4   0    2.26    0.63
  14  -4   0    8.01    1.38
  14  -4   0    9.20    1.41
  14   4   0    7.00    1.19
   0  -5   0   -0.06    0.16
   0   5   0    0.01    0.11
  -1  -5   0   30.63    1.41
   1  -5   0   30.78    1.12
   1  -5   0   32.12    1.24
   1  -5   0   31.76    1.42
   1   5   0   30.04    1.16
  -1   5   0   31.11    1.22
  -2  -5   0    0.12    0.21
   2  -5   0    0.64    0.23
   2  -5   0    0.09    0.20
   2  -5   0    0.08    0.14
  -2   5   0    0.21    0.15
   2   5   0   -0.12    0.11
   3  -5   0    1.85    0.38
   3  -5   0    1.43    0.39
   3  -5   0    1.48    0.37
  -3  -5   0    1.40    0.41
   3   5   0    1.14    0.30
  -3   5   0    1.78    0.39
   4  -5   0    0.35    0.23
   4  -5   0    0.02    0.17
  -4  -5   0    0.12    0.16
   4  -5   0   -0.13    0.18
  -4   5   0    0.11    0.16
   4   5   0   -0.02    0.14
   5  -5   0    8.48    0.84
  -5  -5   0    9.34    0.98
   5  -5   0    8.31    0.91
   5   5   0    9.46    0.73
  -5   5   0    8.69    0.93
   6  -5   0   19.71    1.22
   6  -5   0   19.98    1.12
  -6  -5   0   19.42    1.17
   6  -5   0   18.66    1.08
   6   5   0   18.60    1.08
  -6   5   0   20.60    1.24
  -7  -5   0   18.54    1.15
   7  -5   0   19.61    1.29
   7  -5   0   20.90    1.22
  -7   5   0   21.92    1.34
   7   5   0   20.62    1.19
   8  -5   0    1.42    0.47
   8  -5   0   -0.02    0.16
   8   5   0    0.61    0.31
  -8   5   0    0.03    0.28
   9  -5   0    8.33    1.09
   9  -5   0   10.96    1.27
  -9   5   0    8.81    1.17
   9   5   0   10.63    1.18
  10  -5   0    2.25    0.63
  10  -5   0    1.10    0.49
  10   5   0    2.54    0.61
  11  -5   0    2.30    0.67
  11  -5   0    1.54    0.57
  11   5   0    2.02    0.58
  12  -5   0    9.11    1.35
  12  -5   0    9.53    1.32
  12   5   0    9.11    1.23
  13  -5   0    0.34    0.52
   0  -6   0   70.15    2.38
   0   6   0   72.63    2.03
   1  -6   0   16.94    1.16
   1  -6   0   16.88    0.99
  -1  -6   0   14.24    1.07
   1   6   0   16.38    0.94
  -1   6   0   17.27    1.00
   2  -6   0   45.85    1.69
   2  -6   0   46.16    1.91
  -2  -6   0   45.80    1.92
   2   6   0   45.78    1.61
  -2   6   0   47.48    1.71
   3  -6   0   63.71    2.24
  -3  -6   0   59.38    2.22
   3  -6   0   65.50    2.10
  -3   6   0   62.67    2.04
   3   6   0   63.45    1.94
   4  -6   0   19.35    1.18
   4  -6   0   19.83    1.25
  -4  -6   0   20.11    1.28
  -4   6   0   18.24    1.14
   4   6   0   17.62    1.03
   5  -6   0    1.16    0.42
  -5  -6   0    0.53    0.32
   5  -6   0    0.62    0.34
   5   6   0    0.52    0.27
  -5   6   0    0.42    0.27
   6  -6   0    0.20    0.26
   6  -6   0    0.11    0.20
  -6  -6   0    0.31    0.35
   6   6   0    0.35    0.24
  -6   6   0    0.12    0.24
  -7  -6   0    0.99    0.46
   7  -6   0    0.75    0.36
   7   6   0    0.71    0.36
  -7   6   0    0.65    0.35
   8  -6   0    0.19    0.27
  -8   6   0    0.09    0.23
   9  -6   0    0.17    0.31
  -9   6   0   -0.14    0.32
  10  -6   0    4.10    0.86
 -10   6   0    5.30    1.01
  11  -6   0    2.33    0.69
 -11   6   0    2.16    0.66
  12  -6   0    5.38    1.09
 -12   6   0    4.96    1.02
   0  -7   0    0.02    0.24
   0   7   0    0.10    0.22
  -1  -7   0   61.71    2.43
   1  -7   0   57.99    2.36
  -1   7   0   61.80    2.06
   1   7   0   59.82    2.00
   2  -7   0    2.21    0.58
  -2  -7   0    2.73    0.67
   2  -7   0    2.87    0.58
   2   7   0    2.56    0.53
  -2   7   0    2.76    0.56
   3  -7   0    8.68    1.09
   3  -7   0   10.81    1.10
  -3  -7   0    8.61    1.13
  -3   7   0    8.67    0.98
   4  -7   0   18.49    1.36
  -4  -7   0   16.89    1.31
   4  -7   0   17.06    1.18
  -4   7   0   17.40    1.19
   5  -7   0    9.63    1.09
   5  -7   0   11.46    1.25
  -5  -7   0    9.23    1.18
  -5   7   0   10.62    1.16
   6  -7   0    4.68    0.80
   6  -7   0    2.29    0.61
  -6  -7   0    3.84    0.76
  -6   7   0    3.73    0.73
   7  -7   0   25.51    1.64
  -7  -7   0   27.94    1.72
  -7   7   0   28.29    1.72
   8  -7   0    7.49    1.13
  -8  -7   0    7.70    1.12
  -8   7   0    8.21    1.20
   9  -7   0    9.32    1.26
  -9   7   0   10.48    1.39
  10  -7   0   22.75    1.71
 -10   7   0   20.86    1.97
  11  -7   0   18.95    1.92
 -11   7   0   13.43    1.63
  -1  -8   0   21.12    1.56
   1  -8   0   21.69    1.58
   2  -8   0    3.07    0.72
  -2  -8   0    2.49    0.65
   3  -8   0    7.53    1.13
  -3  -8   0    8.21    1.20
   3  -8   0    7.89    1.02
  -3   8   0    8.24    1.05
   4  -8   0    0.83    0.42
   4  -8   0    0.70    0.42
  -4  -8   0    0.85    0.48
  -4   8   0    2.16    0.57
   5  -8   0    0.59    0.37
  -5  -8   0   -0.16    0.30
   5  -8   0    0.08    0.27
  -5   8   0    0.12    0.28
   6  -8   0    6.84    1.08
   6  -8   0    7.05    1.12
  -6  -8   0    7.16    1.17
  -6   8   0    8.11    1.14
  -7  -8   0   -0.13    0.37
   7  -8   0    0.16    0.40
  -7   8   0   -0.21    0.33
  -8  -8   0    9.72    1.39
   8  -8   0    9.06    1.29
  -8   8   0    6.87    1.10
   9  -8   0    0.78    0.56
  -9   8   0    1.17    0.52
   0  -9   0    0.29    0.42
   1  -9   0    3.06    0.75
  -1  -9   0    2.92    0.79
   2  -9   0   -0.21    0.30
  -2  -9   0    0.16    0.42
   3  -9   0    4.61    0.93
  -3  -9   0    3.31    0.83
  -4  -9   0   13.32    1.67
   4  -9   0   17.78    1.86
   5  -9   0    0.50    0.47
  -5  -9   0   -0.37    0.38
  -6  -9   0    0.59    0.49
   6  -9   0   -0.09    0.49
  -7  -9   0    5.17    1.08
   0 -10   0    1.03    0.62
  -1 -10   0    0.35    0.56
   1 -10   0    0.54    0.47
   2 -10   0    1.66    0.72
  -2 -10   0    3.30    0.92
   3 -10   0    9.31    1.41
  -3 -10   0   12.03    1.66
  15   0  -1    0.00    0.33
  14   0  -1   -0.19    0.33
  13   0  -1    0.10    0.32
  12   0  -1   -0.22    0.29
  11   0  -1   -0.17    0.19
  10   0  -1    0.17    0.22
   9   0  -1    0.10    0.21
   8   0  -1   -0.09    0.12
   7   0  -1   -0.11    0.10
   6   0  -1   -0.02    0.11
   5   0  -1   -0.06    0.13
   4   0  -1   -0.07    0.09
   3   0   1    0.04    0.09
   4   0   1   -0.02    0.08
   5   0   1   -0.13    0.10
   6   0   1   -0.17    0.10
   7   0   1   -0.11    0.12
   8   0   1   -0.11    0.18
   9   0   1    0.22    0.24
  10   0   1   -0.15    0.17
  11   0   1    0.07    0.26
  12   0   1    0.17    0.36
  13   0   1   -0.07    0.29
  14   0   1   -0.14    0.38
  14   0   1    0.25    0.42
  15   0   1   -0.52    0.32
  15   0   1   -0.59    0.42
  15  -1  -1    3.95    0.99
  15  -1  -1    5.64    1.12
  15   1  -1    3.49    0.86
  14  -1  -1   30.14    1.98
  14   1  -1   26.42    1.80
  13  -1  -1    0.19    0.29
  13   1  -1   -0.04    0.28
  12  -1  -1    9.14    1.18
  12   1  -1    7.33    1.01
  11  -1  -1    4.38    0.80
  11   1  -1    5.30    0.84
  10  -1  -1   24.73    1.43
  10   1  -1   21.58    1.30
   9  -1  -1   24.24    1.34
   9   1  -1   24.97    1.29
   8  -1  -1   12.03    0.88
   8   1  -1   14.06    0.90
   7  -1  -1    2.01    0.42
   7   1  -1    2.65    0.44
   6  -1  -1    2.55    0.43
   6   1  -1    2.44    0.40
   5  -1  -1   54.87    1.49
   5   1  -1   56.27    1.40
   4  -1  -1   94.74    1.85
   4   1  -1  101.33    1.75
   3  -1  -1  231.31    3.00
   2   1   1  207.43    2.67
   3  -1   1   50.81    1.23
   3  -1   1   50.18    1.25
   3   1   1   49.03    1.20
   4  -1   1   25.14    0.98
   4  -1   1   23.78    0.92
   4   1   1   23.73    0.91
   5  -1   1  152.52    2.79
   5   1   1  145.53    2.71
   6  -1   1   38.46    1.42
   6   1   1   40.47    1.41
   7  -1   1   10.99    0.82
   7   1   1   10.95    0.80
   8  -1   1    0.03    0.22
   8   1   1    0.36    0.21
   9  -1   1   31.57    1.57
   9   1   1   32.20    1.57
  10  -1   1   15.62    1.19
  10  -1   1   14.77    1.45
  10   1   1   13.06    1.26
  11  -1   1   35.92    1.98
  11  -1   1   31.09    1.76
  11   1   1   34.43    1.83
  12  -1   1   10.05    1.31
  12  -1   1    9.82    1.32
  12   1   1    8.78    1.20
  13  -1   1   10.41    1.42
  13  -1   1   11.69    1.52
  13   1   1   10.85    1.42
  14  -1   1    5.70    1.20
  14  -1   1    4.67    1.00
  14   1   1    6.54    1.20
  15  -1   1   17.71    1.99
  15  -1   1   19.68    2.18
  15   1   1   16.39    1.93
  15  -2  -1    7.28    1.28
  15  -2  -1    9.25    1.45
  15   2  -1    9.96    1.39
  14  -2  -1   10.57    1.45
  14  -2  -1   10.50    1.48
  14   2  -1    8.48    1.19
  13  -2  -1   25.62    1.76
  13  -2  -1   27.84    1.85
  13   2  -1   28.61    1.77
  12  -2  -1    6.78    1.07
  12  -2  -1    6.20    1.01
  12   2  -1    5.86    0.93
  11  -2  -1   37.30    1.91
  11  -2  -1   40.78    2.01
  11   2  -1   36.92    1.81
  10  -2  -1    0.34    0.30
  10  -2  -1   -0.10    0.23
  10   2  -1    0.02    0.20
   9  -2  -1   82.84    2.58
   9   2  -1   82.97    2.41
   8  -2  -1    1.64    0.44
   8   2  -1    1.02    0.33
   7  -2  -1  209.95    3.89
   7   2  -1  220.32    3.67
   6  -2  -1   40.49    1.40
   6  -2  -1   43.04    1.49
   6   2  -1   41.85    1.34
   5  -2  -1   36.93    1.19
   5  -2  -1   38.15    1.29
   5   2  -1   33.66    1.09
   4  -2  -1   30.97    1.10
   4   2  -1   32.45    0.96
   3  -2  -1  294.12    3.84
   3   2  -1  299.42    3.47
   2  -2  -1  430.26    4.84
  -2   2   1  433.79    4.84
   1  -2  -1   35.61    0.92
  -1   2   1   36.30    0.93
   0   2   1    0.06    0.11
   1   2   1   83.64    1.51
   2  -2   1  479.22    5.25
   2  -2   1  483.50    5.32
   2   2   1  476.92    5.27
   3  -2   1  113.08    2.09
   3  -2   1  110.82    2.09
   3   2   1  113.59    2.07
   4  -2   1   87.54    1.95
   4  -2   1   91.52    1.99
   4   2   1   88.32    1.92
   5  -2   1   11.61    0.74
   5  -2   1   12.02    0.76
   5   2   1   11.16    0.71
   6  -2   1  170.31    3.32
   6  -2   1  170.02    3.34
   6   2   1  168.51    3.21
   7  -2   1    4.77    0.68
   7  -2   1    4.33    0.65
   7   2   1    5.45    0.72
   8  -2   1   62.85    2.18
   8  -2   1   65.96    2.24
   8   2   1   60.56    2.04
   9  -2   1    0.23    0.28
   9  -2   1    0.30    0.30
   9   2   1    0.13    0.23
  10  -2   1   66.61    2.55
  10  -2   1   65.33    2.48
  10   2   1   69.96    2.46
  11  -2   1   18.63    1.45
  11  -2   1   19.92    1.44
  11   2   1   20.86    1.43
  12  -2   1    0.19    0.33
  12  -2   1    0.20    0.38
  12   2   1    0.37    0.36
  13  -2   1    1.48    0.61
  13  -2   1    2.92    0.81
  13   2   1    3.40    0.85
  14  -2   1    7.54    1.27
  14  -2   1    6.73    1.24
  14   2   1    6.35    1.13
  15  -3  -1    7.00    1.27
  15  -3  -1    9.92    1.49
  15   3  -1   10.21    1.46
  14  -3  -1    1.89    0.75
  14  -3  -1    2.81    0.86
  14   3  -1    2.01    0.66
  13  -3  -1    2.56    0.70
  13  -3  -1    2.65    0.78
  13   3  -1    3.09    0.77
  12  -3  -1   22.69    1.58
  12  -3  -1   20.24    1.53
  12   3  -1   22.81    1.50
  11  -3  -1    0.11    0.29
  11  -3  -1    0.01    0.23
  11   3  -1    0.21    0.27
  10  -3  -1    5.15    0.86
  10  -3  -1    3.14    0.64
  10   3  -1    3.34    0.66
   9  -3  -1    0.19    0.24
   9  -3  -1    0.20    0.23
   9   3  -1    0.18    0.21
   8  -3  -1   15.43    1.07
   8  -3  -1   14.90    1.00
   8   3  -1   15.93    0.97
  -7  -3   1    0.67    0.27
   7  -3  -1    0.79    0.30
   7  -3  -1    0.95    0.32
   7   3  -1    1.24    0.35
   6  -3  -1  279.89    4.57
  -6  -3   1  281.61    4.50
   6   3  -1  282.51    4.19
   5  -3  -1    0.03    0.13
   5  -3  -1    0.32    0.20
   5   3  -1    0.06    0.12
   4  -3  -1   51.02    1.52
   4  -3  -1   51.21    1.32
   4   3  -1   50.52    1.30
  -4   3   1   47.87    1.49
   3  -3  -1  209.96    3.25
   3  -3  -1  203.45    2.81
   3   3  -1  206.62    2.85
  -3   3   1  203.54    3.21
   2  -3  -1   61.59    1.50
   2   3  -1   58.15    1.24
  -2   3   1   58.45    1.45
   1  -3  -1   89.22    1.78
   1   3  -1   88.14    1.54
  -1   3   1   84.77    1.75
   0  -3   1    2.24    0.29
   0   3   1    1.43    0.26
   0   3  -1    1.77    0.26
   1  -3   1   90.12    1.70
  -1   3  -1   88.63    1.68
   1   3   1   89.79    1.80
   2  -3   1   54.42    1.37
   2   3   1   54.31    1.39
  -2   3  -1   55.51    1.37
   3  -3   1    0.24    0.16
   3  -3   1    0.12    0.13
   3   3   1    0.30    0.16
   4  -3   1    6.00    0.63
   4  -3   1    5.62    0.60
   4   3   1    5.68    0.60
  -5  -3  -1  136.04    2.61
   5  -3   1  138.34    2.87
   5  -3   1  141.25    2.88
   5   3   1  141.56    2.81
   6  -3   1   12.05    0.86
  -6  -3  -1   13.12    0.76
   6  -3   1   12.28    0.86
   6   3   1   11.98    0.82
   7  -3   1    3.09    0.59
   7  -3   1    2.99    0.59
   7   3   1    2.25    0.47
   8  -3   1   36.01    1.66
   8  -3   1   36.74    1.70
   8   3   1   35.69    1.62
   9  -3   1   10.74    1.19
   9  -3   1   10.32    1.16
   9   3   1    8.42    0.98
  10  -3   1   12.09    1.30
  10  -3   1   10.48    1.23
  10   3   1   15.95    1.19
  11  -3   1   13.22    1.49
  11  -3   1   14.67    1.51
  11   3   1   10.45    1.21
  12  -3   1    5.93    1.04
  12  -3   1    4.08    0.86
  12   3   1    6.45    1.04
  13  -3   1    0.10    0.35
  13  -3   1    0.46    0.42
  13   3   1    0.24    0.41
  14  -3   1    0.71    0.51
  14  -3   1    1.69    0.69
  14   3   1    2.43    0.73
  14  -4  -1    6.06    1.15
  14  -4  -1    6.91    1.25
  14   4  -1    7.71    1.20
  13  -4  -1    9.73    1.39
  13  -4  -1    6.86    1.17
  13   4  -1    6.75    1.04
  12  -4  -1    7.16    1.11
  12  -4  -1    5.19    0.95
  12   4  -1    5.67    0.94
  11  -4  -1   24.36    1.65
  11  -4  -1   26.49    1.62
  11   4  -1   27.46    1.58
  10  -4  -1   15.44    1.50
  10  -4  -1   15.60    1.19
  10   4  -1   14.52    1.09
   9  -4  -1   19.49    1.33
   9  -4  -1   18.63    1.22
   9   4  -1   19.58    1.19
   8  -4  -1    3.65    0.66
   8   4  -1    3.09    0.55
   7  -4  -1   10.19    1.06
   7  -4  -1   12.22    0.87
  -7  -4   1   12.78    0.86
   7   4  -1   12.73    0.86
  -7   4   1   11.87    1.15
   6  -4  -1   23.35    1.11
   6  -4  -1   24.61    1.27
  -6  -4   1   25.52    1.18
   6  -4  -1   26.07    1.12
   6   4  -1   26.85    1.13
  -6   4   1   24.64    1.28
   5  -4  -1   24.75    1.21
   5  -4  -1   26.71    1.13
  -5  -4   1   28.14    1.23
   5  -4  -1   26.24    1.08
   5   4  -1   24.72    1.03
  -5   4   1   26.05    1.24
   4  -4  -1   44.66    1.55
   4  -4  -1   46.74    1.34
  -4  -4   1   45.65    1.57
   4  -4  -1   50.97    1.59
  -4   4   1   46.60    1.57
   4   4  -1   46.73    1.35
   3  -4  -1    4.88    0.59
  -3  -4   1    4.74    0.61
   3  -4  -1    4.77    0.58
   3  -4  -1    4.68    0.49
   3   4  -1    4.10    0.47
  -3   4   1    3.98    0.53
   2  -4  -1    7.19    0.73
   2  -4  -1    5.96    0.42
  -2  -4   1    6.78    0.75
   2  -4  -1    5.06    0.56
  -2   4   1    5.57    0.61
   2   4  -1    5.00    0.49
   1  -4  -1    1.83    0.38
   1  -4  -1    1.46    0.26
  -1  -4   1    1.82    0.38
   1  -4  -1    1.51    0.32
   1   4  -1    1.47    0.27
  -1   4   1    1.58    0.33
   0  -4   1   60.78    1.47
   0  -4   1   62.25    1.80
   0  -4  -1   61.83    1.79
   0  -4   1   62.73    1.56
   0   4  -1   61.11    1.47
   0   4   1   63.59    1.62
   1  -4   1   10.24    0.63
   1  -4   1    8.97    0.58
   1  -4   1   10.50    0.74
  -1  -4  -1   11.45    0.77
   1   4   1    9.81    0.63
  -1   4  -1   10.41    0.61
   2  -4   1   47.24    1.54
   2  -4   1   48.94    1.44
   2  -4   1   46.79    1.40
  -2  -4  -1   47.26    1.58
   2   4   1   49.15    1.45
  -2   4  -1   48.56    1.42
   3  -4   1   80.46    2.03
  -3  -4  -1   73.14    2.03
   3  -4   1   74.88    1.91
   3   4   1   71.94    1.86
  -3   4  -1   75.46    1.91
  -4  -4  -1   19.17    1.02
   4  -4   1   19.38    1.02
   4   4   1   19.24    0.97
  -4   4  -1   18.63    1.00
   5  -4   1   13.70    0.89
  -5  -4  -1   14.44    0.89
   5  -4   1   12.25    0.78
   5  -4   1   14.63    0.92
   5   4   1   13.22    0.85
   6  -4   1  113.65    2.80
   6  -4   1  117.87    2.91
  -6  -4  -1  109.92    2.60
   6   4   1  113.18    2.74
  -7  -4  -1    8.10    1.18
   7  -4   1    5.85    0.81
   7  -4   1    6.46    0.84
   7   4   1    6.37    0.80
   8  -4   1   87.06    2.69
   8  -4   1   82.54    2.70
   8   4   1   82.83    2.57
   9  -4   1    6.92    1.00
   9  -4   1    6.83    0.97
   9   4   1    9.69    1.11
  10  -4   1    8.98    1.17
  10  -4   1    8.69    1.17
  10   4   1    6.79    0.93
  11  -4   1    1.69    0.61
  11  -4   1    1.06    0.47
  11   4   1    0.52    0.36
  12  -4   1   -0.26    0.32
  12  -4   1   -0.14    0.29
  12   4   1    0.06    0.38
  13  -4   1   30.31    2.10
  13  -4   1   29.02    2.04
  13   4   1   30.12    1.98
  13  -5  -1    6.91    1.20
 -13   5   1    8.03    1.31
  12  -5  -1   12.07    1.52
 -12   5   1    7.41    1.24
  11  -5  -1   14.91    1.61
 -11   5   1   13.30    1.56
  10  -5  -1   12.68    1.43
  10   5  -1   11.96    1.28
 -10   5   1   13.13    1.52
   9  -5  -1    0.22    0.42
   9  -5  -1   -0.05    0.30
   9   5  -1    0.69    0.37
  -9   5   1    0.24    0.30
   8  -5  -1    7.40    0.90
   8  -5  -1    8.97    1.09
   8   5  -1    7.89    0.89
  -8   5   1    8.81    1.11
  -7  -5   1   14.35    1.02
   7  -5  -1   14.30    1.09
   7  -5  -1   13.56    0.94
  -7   5   1   14.42    1.10
   7   5  -1   14.09    0.94
   6  -5  -1   10.10    1.03
   6  -5  -1    9.32    0.92
  -6  -5   1   10.81    1.08
   6  -5  -1    9.89    0.75
   6   5  -1   10.01    0.75
  -6   5   1   10.18    1.07
  -5  -5   1   10.97    1.07
   5  -5  -1   11.37    1.09
   5  -5  -1   11.03    0.84
   5  -5  -1   10.60    0.74
   5   5  -1   10.45    0.74
  -5   5   1    9.08    0.96
   4  -5  -1   20.88    1.14
  -4  -5   1   23.64    1.26
   4  -5  -1   21.42    0.97
   4  -5  -1   22.29    1.19
   4   5  -1   23.22    1.02
  -4   5   1   25.80    1.25
  -3  -5   1   20.32    1.16
   3  -5  -1   20.22    0.88
   3  -5  -1   21.75    1.17
   3  -5  -1   21.41    1.10
  -3   5   1   18.33    1.03
   3   5  -1   19.83    0.93
  -2  -5   1   16.75    1.05
   2  -5  -1   18.10    0.98
   2  -5  -1   16.87    1.04
   2  -5  -1   18.82    0.82
   2   5  -1   19.38    0.88
  -2   5   1   19.12    1.02
   1  -5  -1   36.51    1.38
  -1  -5   1   39.54    1.60
   1  -5  -1   39.89    1.59
  -1   5   1   37.74    1.38
   1   5  -1   37.83    1.24
   0  -5  -1    7.59    0.83
   0  -5   1    8.38    0.91
   0  -5   1    7.57    0.57
   0  -5   1    7.60    0.74
   0   5   1    8.51    0.80
   0   5  -1    8.45    0.61
   1  -5   1    0.25    0.19
   1  -5   1    0.44    0.28
  -1  -5  -1    0.93    0.31
   1  -5   1    0.85    0.28
   1   5   1    0.36    0.22
  -1   5  -1    0.36    0.20
   2  -5   1   30.83    1.41
  -2  -5  -1   30.74    1.43
   2  -5   1   33.83    1.29
   2  -5   1   33.22    1.27
  -2   5  -1   31.32    1.25
   2   5   1   29.45    1.23
   3  -5   1   41.54    1.52
   3  -5   1   44.68    1.52
   3  -5   1   40.30    1.60
  -3  -5  -1   40.24    1.65
   3   5   1   41.88    1.50
  -3   5  -1   37.05    1.44
  -4  -5  -1   46.34    1.78
   4  -5   1   47.87    1.71
   4  -5   1   42.74    1.66
   4  -5   1   44.38    1.59
  -4   5  -1   43.93    1.64
   4   5   1   44.21    1.60
   5  -5   1    4.57    0.67
   5  -5   1    4.15    0.63
  -5  -5  -1    5.79    0.76
   5   5   1    6.33    0.78
  -5   5  -1    6.40    0.81
   6  -5   1   13.20    1.02
   6  -5   1   13.65    0.95
  -6  -5  -1   15.66    1.05
   6   5   1   14.03    0.98
  -6   5  -1   13.94    1.03
  -7  -5  -1   40.74    1.71
   7  -5   1   45.86    1.96
   7  -5   1   46.44    1.90
  -7   5  -1   47.36    2.02
   7   5   1   44.06    1.81
   8  -5   1   12.30    1.25
   8  -5   1   13.03    1.27
   8   5   1   14.20    1.09
   9  -5   1   70.84    2.70
   9  -5   1   70.94    2.63
   9   5   1   75.40    2.63
  10  -5   1    0.31    0.36
  10  -5   1   -0.06    0.31
  10   5   1    0.36    0.35
  11  -5   1   14.63    1.62
  11  -5   1   18.14    1.82
  11   5   1   14.62    1.51
  12  -5   1    0.33    0.45
  12  -5   1    0.10    0.47
  12   5   1    0.60    0.40
  13  -5   1   20.50    2.08
  13  -5   1   21.50    2.09
  13   5   1   24.93    1.83
  12  -6  -1    2.23    0.74
 -12   6   1    2.36    0.79
  11  -6  -1    6.69    1.16
 -11   6   1    4.47    0.92
  10  -6  -1   10.52    1.33
 -10   6   1   10.85    1.31
   9  -6  -1   12.89    1.41
  -9   6   1   12.96    1.42
  -8  -6   1   10.29    1.15
   8  -6  -1    9.25    1.17
  -8   6   1   10.10    1.22
   7  -6  -1    5.16    0.83
  -7  -6   1    6.88    0.93
  -7   6   1    5.50    0.91
   6  -6  -1    8.54    1.03
   6  -6  -1    5.55    0.80
  -6  -6   1    7.38    0.98
  -6   6   1    8.29    1.02
   5  -6  -1   27.10    1.45
  -5  -6   1   26.02    1.48
   5  -6  -1   27.10    1.45
  -5   6   1   24.51    1.38
  -4  -6   1   86.16    2.71
   4  -6  -1   88.99    2.69
   4  -6  -1   96.00    2.68
  -4   6   1   94.61    2.67
   4   6  -1   94.29    2.32
   3  -6  -1    0.03    0.25
  -3  -6   1    0.22    0.25
   3  -6  -1   -0.22    0.16
   3   6  -1    0.09    0.18
  -3   6   1    0.33    0.24
   2  -6  -1    0.55    0.32
   2  -6  -1    0.37    0.25
  -2  -6   1    0.16    0.25
  -2   6   1    0.37    0.22
   2   6  -1    0.63    0.24
  -1  -6   1   63.50    2.26
   1  -6  -1   59.03    2.20
  -1   6   1   59.87    1.95
   1   6  -1   61.97    1.78
   0  -6   1   67.00    2.32
   0  -6  -1   68.36    2.37
   0   6   1   69.64    2.05
   0   6  -1   69.05    1.92
   1  -6   1    0.61    0.27
   1  -6   1    1.00    0.39
  -1  -6  -1    1.02    0.39
   1  -6   1    1.25    0.35
  -1   6  -1    0.71    0.29
   1   6   1    1.26    0.38
  -2  -6  -1    3.66    0.71
   2  -6   1    5.16    0.81
   2  -6   1    4.85    0.64
   2  -6   1    5.18    0.68
  -2   6  -1    4.09    0.59
   2   6   1    5.02    0.69
  -3  -6  -1  164.34    3.86
   3  -6   1  167.42    3.80
   3  -6   1  169.71    3.41
   3  -6   1  173.28    3.54
   3   6   1  170.91    3.49
  -3   6  -1  166.20    3.48
   4  -6   1    0.99    0.34
  -4  -6  -1    0.71    0.34
   4  -6   1    0.70    0.29
   4  -6   1    0.58    0.32
   4   6   1    0.39    0.29
  -4   6  -1    0.95    0.38
   5  -6   1   17.04    1.11
  -5  -6  -1   16.54    1.20
   5  -6   1   17.29    1.18
   5  -6   1   15.66    1.11
  -5   6  -1   17.99    1.18
   5   6   1   16.96    1.10
   6  -6   1   10.31    1.10
  -6  -6  -1   10.22    1.13
   6  -6   1   11.21    1.11
   6  -6   1   12.95    1.23
  -6   6  -1   11.45    1.19
   6   6   1    9.86    1.03
  -7  -6  -1    4.81    0.82
   7  -6   1    5.81    0.89
  -7   6  -1    4.64    0.81
   7   6   1    4.19    0.74
   8  -6   1    0.46    0.38
   8   6   1    0.54    0.35
  -8   6  -1    0.25    0.30
   9  -6   1    1.26    0.52
  -9   6  -1    0.83    0.44
   9   6   1    1.25    0.53
  10  -6   1    3.24    0.77
 -10   6  -1    4.77    0.96
  10   6   1    3.91    0.94
  11  -6   1    0.45    0.47
 -11   6  -1    0.29    0.51
  12  -6   1   27.13    2.00
 -12   6  -1   27.88    2.12
  11  -7  -1    1.56    0.68
 -11   7   1    3.00    0.88
  10  -7  -1    1.42    0.61
 -10   7   1    1.17    0.62
   9  -7  -1    7.51    1.15
  -9   7   1    5.76    1.05
  -8  -7   1   19.04    1.43
   8  -7  -1   17.38    1.69
  -8   7   1   17.87    1.69
   7  -7  -1    1.02    0.49
  -7  -7   1    0.08    0.34
  -7   7   1    0.82    0.42
   6  -7  -1   10.96    1.24
  -6  -7   1    9.24    1.20
   6  -7  -1    9.70    1.16
  -6   7   1   10.24    1.23
  -5  -7   1    2.23    0.61
   5  -7  -1    3.80    0.78
   5  -7  -1    1.98    0.59
  -5   7   1    2.24    0.56
  -4  -7   1   12.00    1.31
   4  -7  -1   13.04    1.36
   4  -7  -1   13.93    1.30
  -4   7   1   13.66    1.30
   3  -7  -1   19.27    1.24
   3  -7  -1   21.25    1.42
  -3  -7   1   19.61    1.41
  -3   7   1   21.12    1.29
  -2  -7   1    0.22    0.30
   2  -7  -1    1.02    0.50
  -2   7   1    1.35    0.40
   1  -7  -1    0.73    0.40
  -1  -7   1    1.81    0.52
  -1   7   1    1.48    0.42
   0  -7   1   11.04    1.23
   0  -7  -1   11.56    1.29
   0   7   1   12.44    1.12
  -1  -7  -1    0.16    0.24
   1  -7   1    0.17    0.29
  -1   7  -1   -0.22    0.18
   1   7   1    0.05    0.23
   2  -7   1   29.18    1.43
  -2  -7  -1   29.51    1.70
   2  -7   1   30.80    1.71
   2   7   1   28.84    1.43
  -2   7  -1   28.04    1.39
   3  -7   1   -0.02    0.27
  -3  -7  -1    0.25    0.31
   3  -7   1    0.81    0.36
   3   7   1    0.08    0.21
  -3   7  -1   -0.01    0.23
   4  -7   1   45.68    1.92
   4  -7   1   45.62    2.08
  -4  -7  -1   44.15    2.09
  -4   7  -1   43.35    1.86
   4   7   1   43.19    1.81
   5  -7   1   18.63    1.29
   5  -7   1   17.84    1.32
  -5  -7  -1   16.51    1.33
  -5   7  -1   16.47    1.22
   5   7   1   17.32    1.22
   6  -7   1    0.45    0.29
   6  -7   1   -0.03    0.30
  -6  -7  -1    0.19    0.32
  -6   7  -1   -0.23    0.25
  -7  -7  -1    1.54    0.54
   7  -7   1    1.11    0.48
  -7   7  -1    0.87    0.52
   8  -7   1    8.20    1.16
  -8   7  -1    8.30    1.16
   9  -7   1    0.53    0.38
  -9   7  -1    0.22    0.36
  10  -7   1    7.33    1.18
 -10   7  -1    9.64    1.42
   9  -8  -1   10.69    1.41
  -9   8   1   11.85    1.52
  -8  -8   1    3.53    0.88
   8  -8  -1    3.19    0.79
  -8   8   1    2.69    0.76
  -7  -8   1   17.80    1.77
   7  -8  -1   18.61    1.74
  -7   8   1   18.60    1.79
   6  -8  -1   12.16    1.38
   6  -8  -1   13.68    1.49
  -6  -8   1   13.33    1.57
  -6   8   1   12.69    1.37
   5  -8  -1    4.66    0.86
  -5  -8   1    6.37    1.09
   5  -8  -1    5.78    1.04
  -5   8   1    5.55    0.93
   4  -8  -1   -0.15    0.34
  -4  -8   1   -0.07    0.28
   4  -8  -1   -0.12    0.24
  -4   8   1   -0.13    0.29
   3  -8  -1    5.08    0.82
  -3  -8   1    3.94    0.84
   3  -8  -1    4.76    0.92
  -3   8   1    3.75    0.74
  -2  -8   1    9.96    1.32
   2  -8  -1    9.04    1.20
  -2   8   1   10.52    1.18
  -1  -8   1    5.87    0.99
   1  -8  -1    6.91    1.09
  -1   8   1    5.68    0.82
   0  -8  -1    6.06    1.02
   0  -8   1    4.88    0.92
   0   8   1    6.19    1.32
   1  -8   1   11.27    1.32
  -1  -8  -1    9.80    1.29
  -2  -8  -1   22.16    1.60
   2  -8   1   22.87    1.60
   3  -8   1    0.43    0.34
  -3  -8  -1    0.40    0.39
  -4  -8  -1   13.51    1.55
   4  -8   1   12.65    1.44
   5  -8   1    1.82    0.63
  -5  -8  -1    4.32    0.96
   6  -8   1   -0.53    0.30
  -6  -8  -1    0.92    0.51
   6  -8   1    0.92    0.51
  -6   8  -1    0.72    0.43
  -7  -8  -1   33.04    2.04
   7  -8   1   33.09    1.94
  -7   8  -1   31.83    1.93
   8  -8   1   25.79    1.80
  -8   8  -1   27.53    1.86
   9  -8   1    0.25    0.43
  -9   8  -1    0.09    0.48
  -7  -9   1   10.17    1.57
   7  -9  -1   12.75    1.54
  -7   9   1   12.07    1.56
   6  -9  -1   10.61    1.41
  -6  -9   1   10.74    1.46
  -5  -9   1    3.93    0.96
   5  -9  -1    3.01    0.80
   4  -9  -1   18.44    1.90
  -4  -9   1   19.19    1.99
   3  -9  -1   11.30    1.47
  -3  -9   1   11.84    1.48
  -2  -9   1    3.00    0.82
   2  -9  -1    3.68    0.85
  -1  -9   1    9.73    1.40
   1  -9  -1   11.83    1.53
   0  -9   1    9.55    1.32
   0  -9  -1    9.25    1.35
  -1  -9  -1    3.14    0.83
   1  -9   1    1.61    0.64
   2  -9   1    0.47    0.48
  -2  -9  -1    1.02    0.53
   3  -9   1   10.05    1.43
  -3  -9  -1    8.89    1.32
   4  -9   1    3.94    0.89
  -4  -9  -1    4.23    0.95
  -5  -9  -1   23.19    1.83
   5  -9   1   22.50    1.77
  -6  -9  -1    0.33    0.41
   3 -10  -1   -0.25    0.47
  -3 -10   1    1.21    0.68
   2 -10  -1    4.87    1.09
  -2 -10   1    2.37    0.80
   1 -10  -1    1.59    0.75
  -1 -10   1    1.27    0.62
   0 -10  -1   -0.29    0.43
   0 -10   1   -0.33    0.35
  -1 -10  -1    0.01    0.43
   1 -10   1    0.35    0.50
  -2 -10  -1   -0.14    0.36
   2 -10   1    0.05    0.47
  16   0  -2    3.16    0.87
  15   0  -2   39.24    2.29
  14   0  -2   20.31    1.90
  13   0  -2   31.07    1.85
  12   0  -2   41.06    2.01
  11   0  -2    7.44    0.98
  10   0  -2   62.84    2.18
   9   0  -2   13.34    0.93
   8   0  -2   33.90    1.38
   7   0  -2  332.74    4.76
   6   0  -2   24.91    0.99
   2   0   2   42.32    1.03
   2   0   2   40.62    1.04
   3   0   2  140.49    2.33
   4   0   2   35.25    1.15
   5   0   2   39.73    1.35
   6   0   2   11.93    0.81
   7   0   2   10.24    1.00
   8   0   2    1.61    0.43
   9   0   2   72.00    2.50
  10   0   2   42.76    1.98
  11   0   2    6.80    1.04
  12   0   2   12.32    1.57
  12   0   2   14.48    1.59
  13   0   2    1.44    0.55
  13   0   2    1.22    0.66
  14   0   2    0.84    0.60
  14   0   2    0.31    0.49
  15  -1  -2    1.48    0.64
  15   1  -2    1.36    0.59
  14  -1  -2    7.87    1.24
  14   1  -2    5.90    1.02
  13  -1  -2    5.04    0.96
  13   1  -2    5.67    0.93
  12  -1  -2    6.12    0.96
  12   1  -2    9.77    1.14
  11  -1  -2    3.63    0.71
  11   1  -2    4.19    0.75
  10  -1  -2    4.93    0.78
  10   1  -2    3.57    0.64
   9  -1  -2   12.85    0.94
   9   1  -2   13.32    0.93
   8  -1  -2  257.25    4.36
   8   1  -2  248.38    4.13
   7  -1  -2   54.96    1.71
   7   1  -2   57.04    1.65
   6  -1  -2    4.04    0.51
   6   1  -2    4.26    0.48
   5  -1  -2   10.38    0.62
   5   1  -2    9.38    0.53
   4  -1  -2    0.97    0.22
   4   1  -2    0.91    0.19
   3  -1  -2   79.80    1.50
   1   1   2   18.76    0.64
   2  -1   2   30.47    0.93
   2  -1   2   30.34    0.85
   2   1   2   30.65    0.92
   3  -1   2  132.14    2.35
   3  -1   2  130.70    2.23
   3   1   2  132.62    2.29
   4  -1   2    6.26    0.60
   4  -1   2    7.28    0.56
   4   1   2    6.97    0.53
   5  -1   2    4.42    0.56
   5  -1   2    4.25    0.57
   5   1   2    4.34    0.54
   6  -1   2   -0.02    0.14
   6  -1   2    0.17    0.19
   6   1   2    0.06    0.15
   7  -1   2   32.22    1.48
   7  -1   2   34.34    1.49
   7   1   2   31.35    1.40
   8  -1   2    0.71    0.36
   8  -1   2    0.32    0.25
   8   1   2    0.15    0.23
   9  -1   2   12.03    1.27
   9  -1   2   10.61    1.14
   9   1   2   13.70    1.28
  10  -1   2   -0.03    0.25
  10  -1   2    0.04    0.23
  10   1   2    0.12    0.24
  11  -1   2    3.35    0.79
  11  -1   2    2.84    0.69
  11   1   2    2.17    0.63
  12  -1   2   47.80    2.45
  12  -1   2   46.26    2.32
  12   1   2   48.07    2.32
  13  -1   2    0.85    0.59
  13  -1   2    1.69    0.67
  13   1   2    1.02    0.57
  14  -1   2    0.17    0.50
  14  -1   2    0.31    0.46
  14   1   2   -0.34    0.45
  14   1   2    0.42    0.47
  15  -2  -2    0.64    0.53
  15  -2  -2    0.30    0.49
  15   2  -2    0.58    0.51
  14  -2  -2    1.80    0.70
  14  -2  -2    3.02    0.81
  14   2  -2    2.00    0.63
  13  -2  -2   12.20    1.52
  13  -2  -2   14.29    1.59
  13   2  -2   12.90    1.39
  12  -2  -2    0.26    0.35
  12   2  -2    0.38    0.36
  11  -2  -2    0.16    0.28
  11   2  -2    0.56    0.37
  10  -2  -2   10.10    1.11
  10   2  -2   11.92    1.16
   9  -2  -2   45.83    1.86
   9   2  -2   47.98    1.73
   8  -2  -2   26.71    1.32
   8   2  -2   28.31    1.24
   7  -2  -2    6.28    0.74
   7   2  -2    6.65    0.65
   6  -2  -2  173.49    3.22
   6   2  -2  178.89    2.89
   5  -2  -2   31.28    1.17
   5   2  -2   30.69    0.96
   4  -2  -2   31.50    1.08
   4   2  -2   28.89    0.83
  -4   2   2   26.75    1.02
   3  -2  -2   42.21    1.17
  -3   2   2   41.63    1.16
   2  -2  -2  196.77    2.78
  -2   2   2  195.52    2.77
  -1  -2   2  143.48    2.22
   1  -2  -2  146.94    2.23
  -1   2   2  148.62    2.25
   0  -2   2    2.46    0.32
   0   2   2    2.17    0.31
   1  -2   2    3.18    0.38
   1   2   2    3.09    0.36
   2  -2   2  104.41    2.01
   2  -2   2  104.35    1.84
   2   2   2  106.67    1.98
   3  -2   2  170.72    2.75
   3  -2   2  167.38    2.85
   3   2   2  172.04    2.83
   4  -2   2    0.39    0.21
   4  -2   2   -0.21    0.12
   4   2   2    0.36    0.19
   5  -2   2    9.01    0.83
   5  -2   2    7.07    0.77
   5   2   2    6.26    0.66
   6  -2   2   35.29    1.46
   6  -2   2   33.96    1.40
   6   2   2   32.80    1.38
   7  -2   2   34.77    1.56
   7  -2   2   34.84    1.53
   7   2   2   37.98    1.58
   8  -2   2    0.16    0.21
   8  -2   2    0.09    0.24
   8   2   2    0.12    0.22
   9  -2   2    0.37    0.31
   9  -2   2    0.01    0.23
   9   2   2    0.51    0.31
  10  -2   2   17.09    1.31
  10  -2   2   19.44    1.40
  10   2   2   16.44    1.23
  11  -2   2    0.50    0.40
  11  -2   2    0.39    0.39
  11   2   2    0.97    0.43
  12  -2   2   30.15    1.89
  12  -2   2   25.33    1.83
  12   2   2   25.79    1.72
  13  -2   2    1.55    0.64
  13  -2   2    2.26    0.72
  13   2   2    1.68    0.63
  14  -2   2   12.30    1.68
  14  -2   2    8.37    1.36
  14   2   2    9.45    1.40
  15  -3  -2    1.49    0.70
  15  -3  -2    0.88    0.61
  15   3  -2    1.41    0.59
  14  -3  -2    0.63    0.44
  14  -3  -2    0.73    0.53
  14   3  -2    1.13    0.51
  13  -3  -2   17.25    1.72
  13  -3  -2   13.96    1.60
  13   3  -2   15.68    1.56
  12  -3  -2   32.96    1.86
  12  -3  -2   29.55    1.82
  12   3  -2   30.74    1.69
  11  -3  -2   17.60    1.29
  11  -3  -2   17.28    1.32
  11   3  -2   18.22    1.23
  10  -3  -2   52.77    2.20
  10  -3  -2   47.68    1.97
  10   3  -2   45.67    1.84
   9  -3  -2    8.79    1.02
   9  -3  -2    9.54    1.02
   9   3  -2   10.50    0.97
   8  -3  -2  162.98    3.63
   8  -3  -2  148.79    3.22
   8   3  -2  159.41    3.15
   7  -3  -2   12.70    0.91
  -7  -3   2   12.09    0.73
   7  -3  -2   13.19    0.83
   7   3  -2   12.01    0.75
   6  -3  -2  162.20    2.90
  -6  -3   2  162.58    2.88
   6  -3  -2  166.15    3.29
   6   3  -2  161.19    2.81
   5  -3  -2   53.48    1.39
   5  -3  -2   59.74    1.75
  -5  -3   2   56.58    1.57
  -5   3   2   55.13    1.69
   5   3  -2   55.55    1.39
   4  -3  -2  101.93    1.82
  -4  -3   2  101.32    2.44
   4  -3  -2  101.23    2.23
  -4   3   2  105.70    2.26
   4   3  -2   99.29    1.79
   3  -3  -2   11.58    0.69
  -3   3   2   11.42    0.68
   3   3  -2   10.81    0.49
   2  -3  -2  110.36    2.15
  -2   3   2  106.83    2.12
  -1  -3   2   11.50    0.63
   1  -3  -2   11.31    0.63
  -1   3   2   10.03    0.61
   0  -3   2  112.75    1.78
   0  -3   2  118.70    2.18
   0   3   2  114.97    2.14
   0   3  -2  114.87    1.80
   1  -3   2   16.25    0.66
   1  -3   2   15.63    0.75
   1   3   2   15.14    0.73
  -1   3  -2   14.76    0.63
   2  -3   2  163.81    2.85
  -2  -3  -2  173.13    3.34
   2  -3   2  163.74    2.64
   2   3   2  171.78    2.88
  -3  -3  -2    1.03    0.28
   3  -3   2    0.74    0.24
   3  -3   2    1.05    0.27
   3   3   2    1.09    0.30
   4  -3   2  132.85    2.77
  -4  -3  -2  132.18    2.55
   4  -3   2  132.91    2.66
   4   3   2  132.58    2.72
   5  -3   2    0.20    0.20
  -5  -3  -2    0.15    0.16
   5  -3   2    0.37    0.20
   5   3   2    0.31    0.20
  -6  -3  -2  171.72    3.02
   6  -3   2  165.16    3.46
   6  -3   2  167.23    3.54
   6   3   2  172.43    3.46
   6   3   2  173.55    3.03
   7  -3   2    4.24    0.68
   7  -3   2    5.83    0.86
   7   3   2    3.88    0.63
   8  -3   2   86.94    2.72
   8  -3   2   85.36    2.67
   8   3   2   86.13    2.64
   9  -3   2   15.67    1.22
   9  -3   2   16.72    1.26
   9   3   2   15.15    1.15
  10  -3   2    0.08    0.29
  10  -3   2    0.38    0.38
  10   3   2    0.32    0.32
  11  -3   2   28.17    1.83
  11  -3   2   32.10    1.91
  11   3   2   33.11    1.88
  12  -3   2    0.01    0.36
  12  -3   2    0.30    0.42
  12   3   2    0.35    0.38
  13  -3   2    1.17    0.61
  13  -3   2    1.22    0.64
  13   3   2    1.25    0.56
  14  -3   2   -0.34    0.51
  14  -3   2    0.04    0.42
  14   3   2    0.26    0.48
  14  -4  -2    9.01    1.46
  14  -4  -2   11.46    1.51
  13  -4  -2    2.60    0.69
  13  -4  -2    2.83    0.78
  12  -4  -2    3.73    0.85
  12  -4  -2    5.75    0.98
  12   4  -2    7.04    0.98
  11  -4  -2   90.79    3.14
  11  -4  -2   86.82    2.86
  11   4  -2   89.83    2.79
  10  -4  -2    1.00    0.38
  10  -4  -2    1.41    0.48
  10   4  -2    0.64    0.35
   9  -4  -2   25.99    1.36
   9  -4  -2   24.15    1.46
   9   4  -2   25.11    1.29
   8  -4  -2   -0.05    0.17
   8  -4  -2   -0.15    0.18
  -8   4   2    0.17    0.22
   8   4  -2   -0.14    0.18
   7  -4  -2   50.66    1.91
  -7  -4   2   49.58    1.69
   7  -4  -2   48.56    1.63
  -7   4   2   46.91    1.85
   7   4  -2   46.20    1.55
   6  -4  -2    1.88    0.47
   6  -4  -2    1.80    0.39
   6  -4  -2    2.51    0.44
  -6  -4   2    2.16    0.45
   6   4  -2    1.95    0.38
  -6   4   2    2.71    0.54
  -5  -4   2   19.98    1.06
   5  -4  -2   19.52    0.86
   5  -4  -2   20.61    1.10
   5   4  -2   20.57    0.88
  -5   4   2   18.52    1.04
  -4  -4   2  108.54    2.51
   4  -4  -2  108.50    2.44
   4  -4  -2  109.97    2.55
   4  -4  -2  109.09    1.99
   4   4  -2  110.48    2.04
  -4   4   2  106.40    2.50
   3  -4  -2   71.16    1.92
   3  -4  -2   67.74    1.89
  -3  -4   2   71.78    1.98
   3  -4  -2   70.39    1.41
  -3   4   2   68.07    1.87
   3   4  -2   68.50    1.49
   2  -4  -2    1.34    0.31
  -2  -4   2    1.96    0.42
   2  -4  -2    1.38    0.32
   2   4  -2    2.29    0.32
  -2   4   2    1.47    0.33
  -1  -4   2   51.78    1.65
  -1  -4   2   53.72    1.55
   1  -4  -2   52.72    1.66
   1  -4  -2   55.40    1.58
   1   4  -2   52.28    1.25
  -1   4   2   52.74    1.55
   0  -4   2   98.20    2.32
   0  -4  -2   97.57    2.33
   0  -4   2   97.36    2.12
   0  -4   2   96.91    1.84
   0   4   2   95.89    2.13
   0   4  -2   97.25    1.85
  -1  -4  -2  141.34    2.88
   1  -4   2  146.31    2.47
   1  -4   2  141.16    2.85
   1  -4   2  134.85    2.62
   1   4   2  144.51    2.73
  -1   4  -2  139.64    2.42
  -2  -4  -2   16.13    0.94
   2  -4   2   15.78    0.78
   2  -4   2   15.16    0.87
   2  -4   2   16.12    0.87
   2   4   2   14.30    0.82
  -2   4  -2   15.63    0.78
  -3  -4  -2   19.64    1.03
   3  -4   2   19.03    0.94
   3  -4   2   19.88    1.01
   3  -4   2   19.15    0.98
   3   4   2   20.07    1.00
  -3   4  -2   19.69    0.96
   4  -4   2   22.61    1.09
   4  -4   2   25.68    1.19
  -4  -4  -2   23.62    1.15
   4  -4   2   22.42    1.06
   4   4   2   21.36    1.08
   5  -4   2   50.39    1.80
  -5  -4  -2   45.41    1.62
   5  -4   2   50.52    1.60
   5  -4   2   48.99    1.74
   5   4   2   49.02    1.73
   6  -4   2    0.84    0.33
   6  -4   2    1.32    0.41
  -6  -4  -2    0.57    0.29
   6   4   2    1.18    0.38
   7  -4   2   85.75    2.62
   7  -4   2   82.69    2.60
   7   4   2   82.77    2.51
   8  -4   2    1.42    0.48
   8  -4   2    1.31    0.46
   8   4   2    0.06    0.27
   9  -4   2    1.34    0.49
   9  -4   2    2.02    0.57
   9   4   2    2.13    0.60
  10  -4   2    7.56    1.11
  10  -4   2    6.56    1.02
  10   4   2    8.60    1.11
  11  -4   2    2.31    0.66
  11  -4   2    2.84    0.75
  11   4   2    3.47    0.79
  12  -4   2    0.26    0.42
  12  -4   2    0.10    0.41
  12   4   2    0.19    0.39
  13  -4   2    4.75    1.04
  13  -4   2    9.57    1.48
  13   4   2    5.54    1.04
  14  -5  -2    0.74    0.58
 -14   5   2   -0.24    0.54
  13  -5  -2    0.04    0.37
 -13   5   2   -0.38    0.35
  12  -5  -2   -0.15    0.29
 -12   5   2   -0.36    0.36
  11  -5  -2   26.55    1.75
 -11   5   2   28.20    1.83
  10  -5  -2    4.50    0.88
 -10   5   2    4.81    0.90
   9  -5  -2    0.17    0.24
  -9   5   2    0.17    0.27
   8  -5  -2   14.61    1.39
  -8  -5   2   11.79    0.93
  -8   5   2   11.25    1.21
   7  -5  -2    8.59    0.99
  -7  -5   2    8.81    0.98
   7  -5  -2   10.99    1.04
   7   5  -2    8.92    1.00
  -7   5   2    9.14    1.06
   6  -5  -2   11.55    1.12
  -6  -5   2    9.59    1.00
  -6   5   2   12.64    1.22
   6   5  -2   12.49    0.80
   5  -5  -2   11.25    1.07
  -5  -5   2    9.34    0.96
   5  -5  -2    8.80    0.91
  -5   5   2    8.43    0.90
   5   5  -2    9.50    0.67
   4  -5  -2   11.30    0.85
   4  -5  -2   11.83    0.89
  -4  -5   2   11.39    0.88
   4   5  -2   12.45    0.71
  -4   5   2   11.54    0.87
  -3  -5   2   29.14    1.40
   3  -5  -2   28.68    1.30
   3  -5  -2   29.95    1.39
  -3   5   2   32.08    1.36
   3   5  -2   30.70    1.08
   2  -5  -2   18.16    1.02
   2  -5  -2   17.56    1.08
  -2  -5   2   19.27    1.12
   2   5  -2   17.06    0.79
  -2   5   2   16.94    0.97
   1  -5  -2   34.56    1.50
  -1  -5   2   35.58    1.53
   1   5  -2   34.62    1.13
  -1   5   2   33.97    1.37
   0  -5  -2    0.92    0.31
   0  -5   2    0.40    0.20
   0  -5   2   -0.01    0.12
   0  -5   2    0.25    0.24
   0   5   2    0.58    0.24
   0   5  -2    0.49    0.20
  -1  -5  -2   18.45    1.09
   1  -5   2   19.01    1.10
   1  -5   2   17.58    0.87
   1   5   2   17.87    0.98
  -1   5  -2   17.55    0.86
  -2  -5  -2    1.58    0.42
   2  -5   2    2.37    0.42
   2  -5   2    2.73    0.54
  -2   5  -2    1.90    0.40
   2   5   2    1.21    0.32
   3  -5   2    1.03    0.34
  -3  -5  -2    2.83    0.55
   3  -5   2    0.50    0.22
   3  -5   2    2.31    0.44
   3   5   2    1.43    0.37
  -3   5  -2    1.20    0.31
   4  -5   2    6.28    0.77
   4  -5   2    5.68    0.72
   4  -5   2    7.52    0.84
  -4  -5  -2    7.23    0.87
  -4   5  -2    7.49    0.85
   4   5   2    6.86    0.80
   5  -5   2    8.12    0.90
   5  -5   2    6.40    0.82
  -5  -5  -2    7.59    0.88
   5  -5   2    7.04    0.83
  -5   5  -2    6.97    0.87
   5   5   2    7.74    0.89
   6  -5   2    0.27    0.26
  -6  -5  -2    0.10    0.25
   6  -5   2    0.53    0.29
   6   5   2    0.26    0.27
  -6   5  -2    0.02    0.24
  -7  -5  -2    1.44    0.51
   7  -5   2    1.54    0.46
   7  -5   2    2.16    0.55
   7   5   2    1.91    0.53
   8  -5   2    0.40    0.36
   8  -5   2    0.61    0.39
   8   5   2    0.56    0.32
   9  -5   2   35.78    1.92
   9  -5   2   30.36    1.79
   9   5   2   31.89    1.78
  10  -5   2    1.00    0.53
  10  -5   2    2.53    0.74
  10   5   2    2.21    0.68
  11  -5   2    3.59    0.86
  11  -5   2    1.85    0.71
  11   5   2    1.85    0.61
  12  -5   2   -0.13    0.44
  12  -5   2    0.53    0.48
  12   5   2   -0.02    0.40
  13  -6  -2    4.62    1.05
 -13   6   2    5.98    1.19
  12  -6  -2    5.15    1.03
 -12   6   2    5.76    1.13
  11  -6  -2    0.25    0.34
 -11   6   2    0.35    0.38
  10  -6  -2    0.71    0.42
 -10   6   2    0.09    0.30
   9  -6  -2   16.98    1.59
  -9   6   2   18.02    1.74
  -8  -6   2    4.59    0.79
   8  -6  -2    4.45    0.83
  -8   6   2    4.82    0.86
   7  -6  -2    0.55    0.33
  -7  -6   2    0.15    0.27
   7  -6  -2   -0.05    0.24
  -7   6   2    0.64    0.38
   6  -6  -2   19.36    1.24
  -6  -6   2   18.81    1.27
   6  -6  -2   17.41    1.23
  -6   6   2   19.93    1.29
   5  -6  -2   51.04    2.03
  -5  -6   2   53.05    2.11
   5  -6  -2   50.74    2.01
  -5   6   2   52.45    2.05
  -4  -6   2    8.88    1.05
   4  -6  -2    8.06    0.97
   4  -6  -2    9.23    1.03
  -4   6   2    8.31    0.94
   3  -6  -2    7.91    0.92
   3  -6  -2    9.20    1.05
  -3  -6   2   11.44    1.18
  -3   6   2    9.11    0.98
  -2  -6   2    9.66    1.09
   2  -6  -2    6.12    0.84
   2  -6  -2    7.45    0.86
  -2   6   2    8.10    0.88
   1  -6  -2  121.62    3.18
  -1  -6   2  112.41    3.09
   1   6  -2  114.76    2.42
  -1   6   2  114.41    2.80
   0  -6   2    0.93    0.32
   0  -6   2    0.76    0.37
   0  -6  -2    0.51    0.32
   0   6   2    0.28    0.23
   0   6  -2    0.59    0.26
   1  -6   2    3.19    0.64
   1  -6   2    2.89    0.54
  -1  -6  -2    3.04    0.61
   1  -6   2    3.02    0.50
   1   6   2    2.53    0.49
  -1   6  -2    3.61    0.55
  -2  -6  -2   61.37    2.27
   2  -6   2   60.83    1.89
   2  -6   2   58.46    2.17
   2  -6   2   61.62    1.99
   2   6   2   60.36    2.00
  -2   6  -2   58.19    1.84
  -3  -6  -2    1.36    0.43
   3  -6   2    1.23    0.41
   3  -6   2    1.24    0.42
   3  -6   2    0.38    0.27
   3   6   2    1.73    0.45
  -3   6  -2    1.63    0.42
   4  -6   2   11.27    1.14
  -4  -6  -2   11.43    1.20
   4  -6   2   13.73    1.21
   4  -6   2   12.62    1.18
  -4   6  -2   11.73    1.09
   4   6   2   12.77    1.17
  -5  -6  -2   44.17    1.95
   5  -6   2   46.06    1.88
   5  -6   2   46.15    1.93
  -5   6  -2   48.38    1.93
   5   6   2   50.06    1.96
   6  -6   2    0.96    0.39
   6  -6   2    1.18    0.42
  -6  -6  -2    2.41    0.59
   6   6   2    2.11    0.52
  -6   6  -2    2.42    0.58
  -7  -6  -2   14.75    1.18
   7  -6   2   15.18    1.44
   7  -6   2   14.88    1.45
   7   6   2   18.36    1.28
  -7   6  -2   13.56    1.33
   8  -6   2   17.87    1.37
   8  -6   2   17.56    1.33
  -8   6  -2   17.06    1.63
   8   6   2   17.90    1.33
   9  -6   2   13.26    1.44
   9  -6   2   14.90    1.57
   9   6   2   14.70    1.50
  -9   6  -2   12.20    1.46
  10  -6   2   13.12    1.66
  10  -6   2   13.07    1.53
  10   6   2   10.81    1.31
 -10   6  -2   12.77    1.54
  11  -6   2    0.20    0.44
  11   6   2    0.11    0.42
 -11   6  -2    0.26    0.43
  11  -7  -2    2.57    0.82
 -11   7   2    2.21    0.73
  10  -7  -2    1.33    0.56
 -10   7   2    0.85    0.48
   9  -7  -2    0.23    0.37
  -9   7   2    0.03    0.37
   8  -7  -2    1.46    0.53
  -8  -7   2    1.96    0.63
  -8   7   2    1.07    0.47
   7  -7  -2    1.00    0.48
   7  -7  -2    1.14    0.46
  -7  -7   2    0.57    0.42
  -7   7   2    0.23    0.31
   6  -7  -2   12.23    1.32
   6  -7  -2   10.29    1.19
  -6  -7   2   12.93    1.42
  -6   7   2   11.08    1.27
   5  -7  -2   16.74    1.28
  -5  -7   2   18.76    1.38
   5  -7  -2   15.80    1.43
  -5   7   2   16.17    1.21
   4  -7  -2   38.51    1.94
  -4  -7   2   41.57    2.04
   4  -7  -2   41.58    1.89
  -4   7   2   39.94    1.84
   3  -7  -2    2.44    0.60
   3  -7  -2    1.43    0.47
  -3  -7   2    1.18    0.44
  -3   7   2    1.11    0.43
   2  -7  -2   34.21    1.82
  -2   7   2   33.96    1.63
  -1  -7   2    4.82    0.83
   1  -7  -2    4.97    0.83
  -1   7   2    4.76    0.72
   0  -7   2   66.44    2.54
   0  -7  -2   64.71    2.53
   0   7   2   69.63    2.27
  -1  -7  -2   11.35    1.27
   1  -7   2    9.51    1.17
   1   7   2   10.46    1.06
   2  -7   2   47.75    2.14
  -2  -7  -2   50.01    2.23
   2   7   2   46.44    1.90
   3  -7   2    6.23    0.96
   3  -7   2    8.04    1.06
  -3  -7  -2    8.19    1.13
   3   7   2    6.96    0.91
  -3   7  -2    7.22    1.26
   4  -7   2   11.54    1.14
   4  -7   2    9.92    1.18
  -4  -7  -2    9.83    1.19
  -4   7  -2   10.32    1.12
   4   7   2    9.29    1.04
  -5  -7  -2    0.40    0.36
   5  -7   2    0.71    0.37
   5  -7   2    0.42    0.39
  -5   7  -2    0.10    0.30
   5   7   2    0.31    0.31
  -6  -7  -2    4.66    0.87
   6  -7   2    4.55    0.80
  -6   7  -2    3.96    0.78
   6   7   2    4.36    0.78
  -7  -7  -2    3.81    0.82
   7  -7   2    2.82    0.69
   7   7   2    2.73    0.64
  -7   7  -2    3.91    0.78
   8  -7   2   30.50    1.85
  -8   7  -2   27.63    1.76
   9  -7   2    6.14    1.04
  -9   7  -2    5.66    1.03
  10  -7   2   22.57    2.07
 -10   7  -2   23.32    1.81
  10  -8  -2    0.65    0.53
 -10   8   2    0.90    0.63
   9  -8  -2    4.34    0.99
  -9   8   2    2.48    0.78
   8  -8  -2    2.25    0.71
  -8  -8   2    2.93    0.82
  -8   8   2    2.55    0.75
   7  -8  -2   13.60    1.68
   7  -8  -2   11.65    1.41
  -7  -8   2   12.98    1.54
  -7   8   2   12.27    1.48
   6  -8  -2   -0.06    0.28
   6  -8  -2    0.68    0.47
  -6  -8   2    0.79    0.50
  -6   8   2    0.59    0.42
   5  -8  -2    6.34    1.02
  -5  -8   2   10.85    1.41
   5  -8  -2    9.79    1.22
  -5   8   2    9.05    1.18
  -4  -8   2   31.17    1.93
   4  -8  -2   32.40    1.79
   4  -8  -2   30.20    1.87
  -4   8   2   33.61    1.81
  -3  -8   2   25.57    1.75
   3  -8  -2   26.33    1.76
  -3   8   2   30.91    1.70
   2  -8  -2    1.68    0.59
  -2  -8   2    2.41    0.66
  -2   8   2    1.97    0.55
   1  -8  -2    2.26    0.62
  -1  -8   2    1.85    0.59
  -1   8   2    1.91    0.53
   0  -8  -2    0.16    0.28
   0  -8   2   -0.02    0.27
   0   8   2   -0.22    0.20
  -1  -8  -2   13.94    1.53
   1  -8   2   15.50    1.58
   1   8   2   12.01    1.20
  -2  -8  -2    3.81    0.89
   2  -8   2    2.65    0.74
   2   8   2    3.42    0.68
  -3  -8  -2   15.95    1.71
   3  -8   2   15.57    1.62
  -4  -8  -2    2.17    0.71
   4  -8   2    2.45    0.67
  -5  -8  -2   23.03    1.68
   5  -8   2   22.79    1.64
  -6  -8  -2   25.98    1.82
  -7  -8  -2    0.58    0.49
  -7  -9   2    0.46    0.49
   7  -9  -2    0.36    0.48
  -7   9   2    0.44    0.49
   6  -9  -2    0.52    0.51
   6  -9  -2    0.88    0.49
  -6  -9   2    0.93    0.52
  -6   9   2    1.62    0.63
   5  -9  -2   -0.29    0.34
   5  -9  -2    0.04    0.44
  -5  -9   2    0.26    0.39
  -5   9   2    0.42    0.40
  -4  -9   2    0.75    0.47
   4  -9  -2    0.19    0.47
  -4   9   2   -0.06    0.33
   3  -9  -2    0.07    0.47
  -3  -9   2    0.08    0.43
  -3   9   2    0.89    0.57
  -2  -9   2    9.69    1.39
   2  -9  -2   10.10    1.42
   1  -9  -2    0.42    0.43
  -1  -9   2    0.43    0.45
   0  -9   2    0.20    0.40
   0  -9  -2   -0.09    0.33
  -1  -9  -2    1.50    0.66
   1  -9   2    3.05    0.84
  -2  -9  -2    3.39    0.89
   2  -9   2    2.22    0.68
   3  -9   2    4.18    0.95
  -3  -9  -2    3.20    0.83
   4  -9   2    0.27    0.47
  -4  -9  -2    0.14    0.46
   5  -9   2    2.42    0.79
  -5  -9  -2    2.46    0.79
  -6  -9  -2    2.16    0.81
  -3 -10   2    3.77    1.02
   3 -10  -2    2.96    0.89
  -2 -10   2    0.10    0.49
   2 -10  -2    0.29    0.47
   1 -10  -2    0.05    0.46
  -1 -10   2    0.04    0.44
   0 -10   2   -0.06    0.43
   0 -10  -2    0.23    0.52
  -1 -10  -2   25.03    2.01
   1 -10   2   24.87    1.98
  16   0  -3    0.30    0.42
  15   0  -3    0.11    0.38
  14   0  -3   -0.30    0.26
  13   0  -3   -0.03    0.26
  12   0  -3    0.38    0.29
  11   0  -3    0.02    0.18
  10   0  -3    0.19    0.22
   9   0  -3    0.14    0.19
   8   0  -3   -0.07    0.15
   7   0  -3    0.73    0.25
   6   0  -3    0.13    0.12
   5   0  -3   -0.06    0.09
   4   0  -3   -0.05    0.07
   1   0   3    0.00    0.07
   2   0   3   -0.12    0.06
   2   0   3   -0.08    0.10
   3   0   3    0.04    0.11
   3   0   3   -0.03    0.10
   4   0   3   -0.02    0.11
   4   0   3    0.00    0.12
   5   0   3    0.05    0.18
   5   0   3   -0.09    0.13
   6   0   3   -0.11    0.12
   7   0   3   -0.08    0.15
   8   0   3   -0.22    0.15
   8   0   3    0.30    0.30
   9   0   3    0.02    0.21
   9   0   3    0.26    0.32
  10   0   3    0.25    0.26
  10   0   3   -0.25    0.22
  11   0   3   -0.13    0.24
  11   0   3   -0.14    0.29
  12   0   3    0.09    0.31
  12   0   3    0.23    0.34
  13   0   3    0.44    0.44
  13   0   3    0.03    0.37
  14   0   3   -0.28    0.45
  14   0   3   -0.11    0.45
  16  -1  -3    2.56    0.79
  16   1  -3    1.75    0.73
  15  -1  -3   22.89    2.11
  15   1  -3   19.59    1.86
  14  -1  -3    3.68    0.84
  14   1  -3    4.19    0.91
  13  -1  -3    1.53    0.61
  13   1  -3    1.15    0.49
  12  -1  -3    7.09    1.02
  12   1  -3    6.20    0.92
  11  -1  -3   35.67    1.75
  11   1  -3   36.60    1.69
  10  -1  -3    0.33    0.24
  10   1  -3    0.19    0.19
   9  -1  -3   43.03    1.71
   9   1  -3   42.73    1.61
   8  -1  -3   45.50    1.65
   8   1  -3   46.77    1.55
   7  -1  -3  186.74    3.36
   7   1  -3  188.93    3.15
   6  -1  -3  381.63    5.05
   6   1  -3  385.08    4.75
   5  -1  -3    4.45    0.50
   5   1  -3    4.46    0.43
   4  -1  -3  132.70    2.22
   3  -1  -3  434.38    4.75
  -3   1   3  418.74    4.71
   0  -1   3  312.26    3.74
   0   1   3  319.65    3.68
   1  -1   3    1.74    0.29
   1   1   3    1.54    0.26
   2  -1   3  299.12    3.68
   2  -1   3  297.11    3.96
   2   1   3  297.48    3.88
   3  -1   3    1.39    0.31
   3  -1   3    1.51    0.29
   3   1   3    1.69    0.33
   4  -1   3    1.39    0.30
   4  -1   3    1.27    0.33
   4   1   3    1.16    0.28
   5  -1   3   13.86    0.83
   5  -1   3   14.83    0.91
   5   1   3   15.62    0.90
   6  -1   3    6.70    0.80
   6  -1   3    7.06    0.81
   6   1   3    7.59    0.82
   7  -1   3    0.75    0.33
   7  -1   3    1.34    0.40
   7   1   3    1.03    0.36
   8  -1   3    3.76    0.73
   8  -1   3    1.92    0.51
   8   1   3    2.29    0.51
   9  -1   3    8.52    1.06
   9  -1   3    5.99    0.92
   9   1   3    7.04    0.94
  10  -1   3   64.54    2.53
  10  -1   3   63.90    2.62
  10   1   3   63.89    2.51
  11  -1   3   -0.04    0.28
  11  -1   3    0.07    0.32
  11   1   3   -0.21    0.26
  12  -1   3    3.13    0.79
  12  -1   3    3.78    0.86
  12   1   3    3.46    0.85
  12   1   3    3.45    0.88
  13  -1   3   10.04    1.46
  13  -1   3    9.02    1.33
  13   1   3   11.97    1.51
  13   1   3   10.82    1.51
  14  -1   3   36.49    2.48
  14  -1   3   42.27    2.55
  14   1   3   38.32    2.48
  14   1   3   40.02    2.41
  16  -2  -3   10.19    1.60
  16  -2  -3    9.86    1.51
  16   2  -3    9.12    1.35
  15  -2  -3    3.54    0.92
  15  -2  -3    1.97    0.70
  15   2  -3    3.10    0.78
  14  -2  -3   40.34    2.25
  14   2  -3   36.21    2.01
  13  -2  -3    2.30    0.64
  13   2  -3    1.00    0.48
  12  -2  -3   29.89    1.73
  12   2  -3   29.32    1.62
  11  -2  -3    4.12    0.76
  11   2  -3    4.79    0.74
  10  -2  -3   38.01    1.75
  10   2  -3   41.35    1.68
   9  -2  -3   16.12    1.10
   9   2  -3   17.34    1.01
   8  -2  -3  230.44    4.22
   8   2  -3  229.46    3.79
   7  -2  -3  185.22    3.51
   7   2  -3  179.41    3.03
   6  -2  -3    6.54    0.70
   6   2  -3    6.30    0.46
   5  -2  -3   31.40    1.17
  -5   2   3   30.44    1.16
   5   2  -3   32.70    0.92
   4  -2  -3  155.46    2.67
  -4   2   3  156.24    2.66
   3  -2  -3  117.46    2.16
  -3   2   3  119.04    2.15
   2  -2  -3   40.32    1.12
  -2  -2   3   40.24    1.15
  -2   2   3   40.53    1.12
  -1  -2   3   12.46    0.62
  -1   2   3   12.55    0.61
   0  -2   3    2.63    0.36
   0   2   3    2.86    0.37
   1  -2   3   25.76    0.76
   1  -2   3   24.91    0.93
   1   2   3   27.14    0.95
   2  -2   3  203.44    2.88
   2  -2   3  203.41    3.22
   2   2   3  199.44    3.12
   3  -2   3  123.37    2.51
   3  -2   3  125.42    2.31
   3   2   3  120.29    2.43
   4  -2   3   15.23    0.82
   4  -2   3   14.69    0.88
   4   2   3   14.71    0.84
   5  -2   3   54.61    1.81
   5  -2   3   53.58    1.70
   5   2   3   51.44    1.70
   6  -2   3    9.84    1.00
   6  -2   3    8.53    0.85
   6   2   3    8.99    0.90
   7  -2   3  113.43    2.91
   7  -2   3  114.69    3.01
   7   2   3  110.03    2.90
   8  -2   3   23.65    1.38
   8  -2   3   25.64    1.46
   8   2   3   27.26    1.46
   9  -2   3   40.41    1.95
   9  -2   3   40.58    1.90
   9   2   3   37.38    1.81
  10  -2   3   17.00    1.34
  10  -2   3   14.47    1.47
  10   2   3   15.10    1.43
  11  -2   3    9.21    1.26
  11  -2   3   11.78    1.44
  11   2   3    7.32    1.08
  12  -2   3    5.47    1.06
  12  -2   3    4.05    0.87
  12   2   3    5.56    1.02
  13  -2   3   31.67    2.18
  13  -2   3   34.25    2.19
  13   2   3   35.36    2.21
  15  -3  -3    0.41    0.47
  15  -3  -3    0.13    0.47
  14  -3  -3    2.27    0.73
  14  -3  -3    2.16    0.73
  14   3  -3    2.10    0.67
  13  -3  -3   37.44    2.03
  13  -3  -3   34.02    2.03
  13   3  -3   33.66    1.82
  12  -3  -3   -0.06    0.25
  12  -3  -3    0.48    0.36
  12   3  -3    0.38    0.32
  11  -3  -3    0.09    0.27
  11  -3  -3   -0.24    0.18
  11   3  -3    0.35    0.32
  10  -3  -3   98.65    2.80
  10  -3  -3   94.82    2.96
  10   3  -3   97.66    2.62
   9  -3  -3   31.85    1.59
   9   3  -3   31.23    1.36
   8  -3  -3    2.68    0.52
   8  -3  -3    4.12    0.59
   8   3  -3    4.55    0.57
   7  -3  -3    0.04    0.17
  -7  -3   3    0.13    0.17
   7  -3  -3    0.10    0.15
   7   3  -3    0.04    0.14
  -7   3   3    0.35    0.24
   6  -3  -3    7.90    0.55
   6  -3  -3    6.63    0.76
  -6  -3   3    7.07    0.57
  -6   3   3    8.65    0.89
   6   3  -3    7.50    0.51
   5  -3  -3   67.41    1.47
  -5  -3   3   66.26    1.75
   5  -3  -3   67.59    1.89
  -5   3   3   66.03    1.86
   5   3  -3   67.88    1.43
   4  -3  -3   44.34    1.45
  -4  -3   3   45.69    1.41
  -4   3   3   42.20    1.41
   4   3  -3   45.11    1.02
   3  -3  -3    0.53    0.20
  -3  -3   3    0.50    0.21
  -3   3   3    0.67    0.24
   2  -3  -3    0.64    0.21
  -2  -3   3    0.86    0.24
  -2  -3   3    0.59    0.21
   2  -3  -3    1.06    0.32
  -2   3   3    0.63    0.21
   1  -3  -3   64.63    1.68
  -1  -3   3   67.72    1.73
  -1  -3   3   66.10    1.64
  -1   3   3   63.83    1.63
   0  -3  -3    1.25    0.32
   0  -3   3    1.70    0.33
   0  -3   3    1.54    0.37
   0   3   3    1.22    0.27
   0   3  -3    1.24    0.23
  -1  -3  -3  184.20    3.10
   1  -3   3  180.13    2.60
   1  -3   3  186.51    3.11
   1  -3   3  181.77    3.43
   1   3   3  178.78    3.04
   2  -3   3  118.99    2.49
   2  -3   3  118.32    2.18
  -2  -3  -3  117.26    2.39
   2   3   3  118.59    2.40
   2   3   3  121.81    2.46
   3  -3   3    3.90    0.48
   3  -3   3    3.57    0.53
  -3  -3  -3    3.80    0.50
   3   3   3    4.51    0.56
   3   3   3    4.25    0.55
  -4  -3  -3   12.34    0.76
   4  -3   3   12.53    0.85
   4  -3   3   14.86    0.85
   4   3   3   12.36    0.83
   5  -3   3    1.21    0.33
   5  -3   3    0.94    0.34
   5   3   3    0.93    0.31
   5   3   3    0.89    0.29
   6  -3   3    1.64    0.45
   6  -3   3    1.94    0.47
   6   3   3    2.02    0.42
   6   3   3    1.30    0.39
   7  -3   3   18.66    1.25
   7  -3   3   20.73    1.24
   7   3   3   20.81    1.25
   8  -3   3   16.48    1.20
   8  -3   3   18.59    1.29
   8   3   3   17.49    1.22
   9  -3   3    6.79    0.99
   9  -3   3    7.99    1.08
   9   3   3    9.64    1.14
  10  -3   3    0.23    0.32
  10  -3   3    0.23    0.32
  10   3   3    0.61    0.35
  11  -3   3    8.83    1.25
  11  -3   3    7.32    1.16
  11   3   3    6.07    1.01
  12  -3   3   -0.27    0.36
  12  -3   3    0.25    0.40
  12   3   3    0.16    0.37
  13  -3   3    1.07    0.58
  13  -3   3    2.65    0.84
  13   3   3    0.73    0.57
  15  -4  -3    0.93    0.56
  14  -4  -3    3.91    0.91
  13  -4  -3    4.95    1.00
  12  -4  -3    1.58    0.61
  11  -4  -3    0.23    0.28
  11  -4  -3    0.38    0.32
 -11   4   3    0.47    0.40
  10  -4  -3   -0.09    0.19
  10  -4  -3    0.26    0.23
 -10   4   3    0.40    0.30
  10   4  -3    0.35    0.47
   9  -4  -3    7.94    0.91
   9  -4  -3    6.89    0.93
  -9   4   3    5.53    0.88
   9   4  -3    7.07    0.81
   8  -4  -3    4.17    0.62
   8  -4  -3    3.81    0.69
  -8  -4   3    3.77    0.59
  -8   4   3    3.31    0.63
   8   4  -3    4.03    0.55
   7  -4  -3   23.74    1.31
   7  -4  -3   21.49    1.05
   7  -4  -3   24.36    1.07
  -7  -4   3   24.38    1.19
  -7   4   3   24.10    1.31
  -7   4   3   23.73    1.10
   7   4  -3   23.60    1.04
  -6  -4   3    0.65    0.27
   6  -4  -3    1.15    0.36
   6  -4  -3    1.08    0.32
   6  -4  -3    1.08    0.27
  -6   4   3    1.35    0.36
  -6   4   3    1.10    0.35
   6   4  -3    0.95    0.25
   5  -4  -3    7.71    0.84
   5  -4  -3   10.17    0.73
  -5  -4   3    9.46    0.91
   5  -4  -3    9.73    0.56
   5   4  -3    9.14    0.55
  -5   4   3    9.25    0.92
   4  -4  -3   16.01    0.90
   4  -4  -3   16.81    0.99
   4  -4  -3   16.02    0.93
  -4  -4   3   14.45    0.89
  -4   4   3   14.50    0.90
   4   4  -3   14.65    0.63
  -3  -4   3    0.97    0.31
   3  -4  -3    0.83    0.29
   3  -4  -3    0.75    0.26
   3   4  -3    0.77    0.18
  -3   4   3    0.66    0.25
   2  -4  -3   12.30    0.80
   2  -4  -3   11.42    0.76
  -2  -4   3   12.85    0.84
   2   4  -3   11.78    0.53
  -2   4   3   10.78    0.73
  -1  -4   3  215.63    3.74
  -1  -4   3  212.73    2.82
   1  -4  -3  210.55    3.69
  -1  -4   3  208.59    3.51
   1   4  -3  215.12    2.83
  -1   4   3  207.46    3.53
   0  -4   3   54.40    1.72
   0  -4   3   56.81    1.66
   0  -4   3   55.39    1.30
   0  -4  -3   54.90    1.74
   0   4  -3   57.83    1.33
   0   4   3   56.40    1.65
   1  -4   3  116.59    2.59
   1  -4   3  108.16    2.45
  -1  -4  -3  113.09    2.60
   1  -4   3  115.62    2.13
  -1   4  -3  113.88    2.11
   1   4   3  115.16    2.50
   2  -4   3   47.59    1.61
   2  -4   3   48.04    1.40
   2  -4   3   49.31    1.62
  -2  -4  -3   49.12    1.66
  -2   4  -3   51.36    1.45
   2   4   3   49.48    1.62
   3  -4   3    0.26    0.21
  -3  -4  -3    0.46    0.25
   3  -4   3    0.45    0.22
   3  -4   3    0.43    0.24
   3   4   3    0.68    0.28
  -4  -4  -3    3.92    0.59
   4  -4   3    3.11    0.51
   4  -4   3    2.24    0.46
   4  -4   3    2.84    0.53
   4   4   3    3.10    0.54
   4   4   3    3.14    0.53
   5  -4   3   68.07    2.10
  -5  -4  -3   70.04    2.06
   5  -4   3   68.85    2.22
   5  -4   3   69.07    1.93
   5   4   3   67.55    2.14
  -6  -4  -3   49.58    1.75
   6  -4   3   48.44    1.95
   6  -4   3   45.97    1.81
   6   4   3   46.47    1.86
   6   4   3   47.97    1.72
   7  -4   3   67.81    2.36
   7  -4   3   71.62    2.51
   7   4   3   71.59    2.42
   8  -4   3   71.55    2.62
   8  -4   3   70.81    2.54
   8   4   3   65.26    2.45
   9  -4   3   94.90    3.12
   9  -4   3   93.73    3.18
   9   4   3   96.28    3.12
  10  -4   3    1.32    0.57
  10  -4   3    2.81    0.74
  10   4   3    1.08    0.49
  11  -4   3   10.27    1.42
  11  -4   3    9.45    1.33
  11   4   3   11.93    1.43
  12  -4   3    0.31    0.44
  12  -4   3    0.03    0.43
  12   4   3    0.56    0.46
  13  -4   3   -0.21    0.52
  13  -4   3    0.68    0.52
  13   4   3    0.46    0.48
  14  -5  -3    0.06    0.46
 -14   5   3   -0.05    0.46
  13  -5  -3   10.42    1.43
 -13   5   3   11.46    1.52
  12  -5  -3    0.32    0.45
 -12   5   3    0.40    0.42
  11  -5  -3   14.79    1.58
 -11   5   3   16.80    1.68
  10  -5  -3    5.46    0.94
 -10   5   3    6.13    0.97
   9  -5  -3   12.09    1.32
  -9   5   3   10.73    1.25
  -8  -5   3   12.55    0.98
   8  -5  -3   12.72    1.25
  -8   5   3   13.56    1.31
   7  -5  -3    4.42    0.72
   7  -5  -3    6.02    0.75
  -7  -5   3    4.80    0.74
  -7   5   3    3.77    0.61
  -7   5   3    3.92    0.69
   6  -5  -3   18.06    1.18
  -6  -5   3   16.17    1.09
   6  -5  -3   15.34    1.00
  -6   5   3   19.56    1.21
   5  -5  -3    1.22    0.40
   5  -5  -3    1.08    0.39
  -5  -5   3    0.48    0.27
  -5   5   3    0.93    0.34
  -4  -5   3    0.18    0.23
   4  -5  -3    0.15    0.19
   4  -5  -3    0.36    0.25
  -4   5   3    0.29    0.20
  -3  -5   3  112.23    2.85
   3  -5  -3  113.78    2.82
   3  -5  -3  112.29    2.74
  -3   5   3  111.82    2.72
   2  -5  -3   43.16    1.62
   2  -5  -3   44.19    1.72
  -2  -5   3   45.89    1.76
  -2   5   3   43.41    1.61
   2   5  -3   45.47    1.22
   1  -5  -3   15.64    1.03
  -1  -5   3   14.98    1.00
  -1  -5   3   16.63    0.97
  -1   5   3   15.92    0.95
   1   5  -3   17.51    0.76
   0  -5  -3   73.47    2.27
   0  -5   3   74.01    1.72
   0  -5   3   72.14    2.22
   0  -5   3   72.52    2.07
   0   5  -3   74.62    1.71
   0   5   3   72.43    2.07
   1  -5   3   29.11    1.11
   1  -5   3   29.14    1.39
  -1  -5  -3   29.85    1.42
   1  -5   3   28.46    1.30
  -1   5  -3   30.79    1.13
   1   5   3   30.68    1.33
   2  -5   3   24.52    1.26
  -2  -5  -3   25.06    1.31
   2  -5   3   22.88    1.06
   2  -5   3   23.68    1.21
  -2   5  -3   23.88    1.07
   2   5   3   24.22    1.22
   3  -5   3   43.34    1.53
  -3  -5  -3   43.70    1.76
   3  -5   3   41.38    1.66
   3  -5   3   42.76    1.68
  -3   5  -3   41.24    1.50
   3   5   3   42.12    1.66
   4  -5   3   37.81    1.63
   4  -5   3   39.59    1.55
   4  -5   3   36.41    1.56
  -4  -5  -3   35.59    1.60
  -4   5  -3   37.30    1.52
   4   5   3   34.86    1.56
   5  -5   3   -0.07    0.23
  -5  -5  -3   -0.02    0.19
   5  -5   3    0.17    0.23
   5  -5   3    0.07    0.24
  -5   5  -3   -0.08    0.20
   5   5   3    0.55    0.30
   5   5   3   -0.11    0.19
   6  -5   3   91.12    2.82
  -6  -5  -3   92.53    2.67
   6  -5   3   96.67    2.78
   6   5   3   99.88    2.88
   7  -5   3   14.78    1.19
   7  -5   3   15.51    1.41
   7   5   3   17.45    1.24
   8  -5   3   42.94    2.08
   8  -5   3   45.20    2.10
   8   5   3   42.72    2.03
   9  -5   3    4.27    0.86
   9  -5   3    3.73    0.81
   9   5   3    3.98    0.83
  10  -5   3   28.76    1.90
  10  -5   3   29.38    1.90
  10   5   3   27.29    1.80
  11  -5   3    0.30    0.43
  11  -5   3    0.11    0.44
  11   5   3    0.18    0.30
  12  -5   3   22.03    2.16
  12  -5   3   23.86    2.22
  12   5   3   21.18    2.01
  13  -6  -3   11.01    1.57
 -13   6   3   13.37    1.72
  12  -6  -3    0.76    0.50
 -12   6   3    1.15    0.57
  11  -6  -3    0.90    0.50
 -11   6   3    0.47    0.39
  10  -6  -3    8.44    1.23
 -10   6   3    6.70    1.08
   9  -6  -3    3.11    0.72
  -9   6   3    4.79    0.93
  -8  -6   3    5.23    0.86
   8  -6  -3    5.16    0.87
  -8   6   3    4.71    0.83
   7  -6  -3    0.28    0.27
   7  -6  -3    0.20    0.25
  -7  -6   3    0.86    0.39
  -7   6   3    1.09    0.42
  -7   6   3    0.08    0.24
   6  -6  -3   62.25    2.25
   6  -6  -3   62.33    2.34
  -6  -6   3   61.97    2.33
  -6   6   3   63.15    2.35
   5  -6  -3   37.84    1.77
  -5  -6   3   40.39    1.86
   5  -6  -3   43.65    1.87
  -5   6   3   42.74    1.85
   4  -6  -3    1.16    0.43
  -4  -6   3    1.35    0.49
   4  -6  -3    1.04    0.38
  -4   6   3    0.58    0.33
   3  -6  -3    1.43    0.44
  -3  -6   3    1.57    0.45
   3  -6  -3    1.45    0.44
  -3   6   3    2.46    0.55
  -2  -6   3   45.90    1.95
   2  -6  -3   45.72    1.93
  -2   6   3   41.81    1.73
  -1  -6   3  111.46    3.10
   1  -6  -3  114.70    3.15
  -1   6   3  112.32    2.84
   0  -6   3   95.08    2.84
   0  -6  -3   93.59    2.84
   0  -6   3  100.05    2.62
   0   6   3   97.56    2.62
   1  -6   3   36.02    1.71
  -1  -6  -3   36.36    1.74
   1  -6   3   35.96    1.55
   1   6   3   33.20    1.52
   2  -6   3   42.45    1.74
   2  -6   3   38.73    1.49
  -2  -6  -3   42.35    1.89
   2  -6   3   42.46    1.87
  -2   6  -3   43.62    1.57
   2   6   3   43.07    1.77
   3  -6   3   11.21    1.10
   3  -6   3   11.66    0.87
  -3  -6  -3   13.06    1.28
   3  -6   3   11.42    1.15
  -3   6  -3   11.70    0.87
   3   6   3   10.33    1.06
  -4  -6  -3    0.71    0.33
   4  -6   3    1.89    0.55
   4  -6   3    2.47    0.58
   4  -6   3    1.92    0.46
   4   6   3    1.12    0.45
  -4   6  -3    0.58    0.28
   5  -6   3    5.90    0.81
   5  -6   3    2.93    0.61
   5  -6   3    6.59    0.94
  -5  -6  -3    5.35    0.82
   5   6   3    7.35    0.95
  -5   6  -3    6.24    0.82
   6  -6   3    0.20    0.29
  -6  -6  -3    0.41    0.29
   6  -6   3    0.08    0.26
   6   6   3   -0.14    0.21
   6   6   3   -0.06    0.23
  -6   6  -3    0.04    0.23
   7  -6   3    4.37    0.86
   7  -6   3    2.12    0.59
  -7   6  -3    3.70    0.76
   7   6   3    2.31    0.56
   8  -6   3    2.85    0.77
   8  -6   3    2.45    0.67
   8   6   3    2.71    0.63
  -8   6  -3    2.72    0.71
   9  -6   3    6.99    1.12
   9  -6   3    5.08    0.94
   9   6   3    6.59    1.04
  -9   6  -3    5.70    1.05
  10  -6   3    2.20    0.68
  10  -6   3    3.40    0.84
 -10   6  -3    1.86    0.69
  10   6   3    2.23    0.69
  11  -6   3   22.51    2.08
  11  -6   3   20.31    2.00
 -11   6  -3   18.26    1.95
  11   6   3   21.35    2.02
  12  -7  -3   14.98    1.77
 -12   7   3   11.13    1.62
  11  -7  -3    1.37    0.64
 -11   7   3    2.55    0.79
  10  -7  -3   -0.07    0.32
 -10   7   3    0.08    0.38
   9  -7  -3   -0.31    0.28
  -9  -7   3   -0.04    0.37
  -9   7   3    0.25    0.34
   8  -7  -3    6.95    1.09
  -8  -7   3    8.13    1.13
  -8   7   3    5.92    1.00
  -7  -7   3   18.40    1.42
   7  -7  -3   16.04    1.56
   7  -7  -3   16.73    1.28
  -7   7   3   18.45    1.35
  -7   7   3   16.57    1.61
  -6  -7   3    4.31    0.83
   6  -7  -3    3.40    0.71
   6  -7  -3    3.23    0.70
  -6   7   3    2.94    0.65
   5  -7  -3   30.89    1.72
  -5  -7   3   35.27    1.91
   5  -7  -3   34.63    1.83
  -5   7   3   36.62    1.83
   4  -7  -3   11.97    1.24
  -4  -7   3    8.13    1.09
   4  -7  -3    9.10    1.15
  -4   7   3   11.00    1.19
   3  -7  -3    0.30    0.37
  -3  -7   3    0.06    0.21
  -3   7   3   -0.20    0.18
   2  -7  -3    1.34    0.48
  -2  -7   3    1.39    0.50
  -2   7   3    2.68    0.62
  -1  -7   3    0.94    0.46
   1  -7  -3    1.90    0.55
  -1   7   3    0.80    0.35
   0  -7   3   63.52    2.26
   0  -7  -3   85.20    2.90
   0  -7   3   75.07    2.73
   0   7   3   75.69    2.49
   1  -7   3   19.12    1.23
  -1  -7  -3   19.22    1.39
   1  -7   3   19.84    1.41
   1   7   3   16.23    1.15
  -2  -7  -3    6.25    0.98
   2  -7   3    7.80    1.05
   2  -7   3    8.17    1.00
   2   7   3    8.46    1.00
   3  -7   3    1.39    0.48
   3  -7   3    3.40    0.74
  -3  -7  -3    2.90    0.71
   3   7   3    2.55    0.62
  -4  -7  -3   21.61    1.53
   4  -7   3   28.21    1.66
   4   7   3   23.06    1.44
  -5  -7  -3    5.65    0.93
   5  -7   3    7.90    1.06
   5   7   3    5.37    0.84
   6  -7   3    6.66    1.10
  -6  -7  -3    7.68    1.08
  -6   7  -3    7.46    1.19
   6   7   3    7.08    0.99
   6   7   3    6.29    1.01
  -7  -7  -3    1.48    0.53
   7  -7   3    0.96    0.46
   7   7   3   -0.10    0.33
   7   7   3    0.68    0.45
  -7   7  -3    0.58    0.40
   8  -7   3    1.16    0.49
  -8   7  -3    0.58    0.41
   8   7   3    0.09    0.38
   9  -7   3    2.83    0.79
   9   7   3    2.86    0.76
  -9   7  -3    2.65    0.74
  10  -8  -3    4.25    0.99
 -10   8   3    5.51    1.09
   9  -8  -3   -0.19    0.37
  -9  -8   3    0.96    0.51
  -9   8   3    0.89    0.56
   8  -8  -3   21.96    1.70
  -8  -8   3   21.78    1.68
  -8   8   3   22.00    2.01
   7  -8  -3    4.30    0.84
  -7  -8   3    5.61    1.10
   7  -8  -3    6.06    1.06
  -7   8   3    4.16    0.89
  -7   8   3    4.34    0.89
   6  -8  -3    2.74    0.74
  -6  -8   3    2.87    0.71
   6  -8  -3    2.64    0.65
  -6   8   3    3.55    0.79
  -5  -8   3    0.28    0.42
   5  -8  -3    0.66    0.42
   5  -8  -3    0.11    0.30
  -5   8   3   -0.17    0.26
   4  -8  -3    2.02    0.70
  -4  -8   3    1.55    0.58
   4  -8  -3    1.94    0.58
  -4   8   3    3.18    0.77
  -3  -8   3   24.59    1.73
   3  -8  -3   20.76    1.56
  -3   8   3   22.86    1.49
  -2  -8   3    5.31    0.97
   2  -8  -3    5.86    1.04
  -2   8   3    5.61    0.88
   1  -8  -3    5.84    0.99
  -1  -8   3    3.43    0.78
  -1   8   3    4.30    0.80
   0  -8  -3    1.23    0.54
   0  -8   3    1.83    0.59
   0   8   3    0.74    0.35
  -1  -8  -3    9.39    1.26
   1  -8   3    6.63    1.05
   1   8   3    7.90    1.05
   2  -8   3   33.42    2.00
  -2  -8  -3   36.39    2.09
   2   8   3   35.58    1.83
  -3  -8  -3   52.60    2.53
   3  -8   3   54.10    2.51
   3   8   3   56.38    2.34
   4  -8   3    0.32    0.40
  -4  -8  -3    0.21    0.36
   4   8   3    0.17    0.37
  -5  -8  -3    5.91    1.06
   5  -8   3    4.57    0.93
   5   8   3    5.62    1.07
  -6  -8  -3    2.44    0.72
   6   8   3    3.08    0.78
  -7  -8  -3    9.23    1.35
   7   8   3    6.60    1.13
   7  -9  -3    9.18    1.31
   7  -9  -3    9.13    1.31
  -7  -9   3    7.49    1.25
  -7   9   3   10.28    1.42
  -7   9   3    8.45    1.26
  -6  -9   3    0.12    0.38
   6  -9  -3   -0.05    0.45
   6  -9  -3    0.02    0.42
  -6   9   3    0.17    0.41
  -6   9   3    0.20    0.42
  -5  -9   3   19.45    2.04
   5  -9  -3   14.48    1.64
  -5   9   3   21.58    1.61
  -4  -9   3    6.66    1.24
   4  -9  -3    7.78    1.34
  -4   9   3    7.26    1.11
   3  -9  -3   11.64    1.49
  -3  -9   3   13.92    1.65
  -3   9   3   11.93    1.36
  -2  -9   3   -0.02    0.41
   2  -9  -3    0.35    0.42
  -2   9   3    0.31    0.35
  -1  -9   3   16.38    1.75
   1  -9  -3   20.79    2.04
  -1   9   3   21.38    1.54
   0  -9   3    3.50    0.84
   0  -9  -3    4.43    0.96
  -1  -9  -3    0.76    0.54
   1  -9   3    0.44    0.42
   2  -9   3    9.91    1.39
  -2  -9  -3   10.16    1.48
  -3  -9  -3    4.41    1.03
   3  -9   3    5.66    1.10
   4  -9   3   36.86    2.22
  -4  -9  -3   40.44    2.39
  -5  -9  -3   12.18    1.66
   5  -9   3    9.83    1.39
   3 -10  -3    1.64    0.70
  -3 -10   3    1.54    0.67
   2 -10  -3    4.85    1.07
  -2 -10   3    4.31    0.99
   1 -10  -3    1.72    0.78
  -1 -10   3    0.80    0.53
   0 -10   3    0.39    0.48
   0 -10  -3    0.81    0.57
  16   0  -4   68.25    3.07
  15   0  -4   10.65    1.39
  14   0  -4   32.33    1.91
  13   0  -4    4.72    0.84
  12   0  -4    0.00    0.21
  11   0  -4    0.14    0.21
  10   0  -4  111.86    2.85
   9   0  -4   94.70    2.44
   8   0  -4    0.53    0.26
   7   0  -4   16.25    0.84
   6   0  -4  349.74    4.49
   5   0  -4  417.48    4.85
  -4   0   4 1000.00    9.56
   0   0   4  308.12    3.81
   1   0   4   15.95    0.64
   1   0   4   14.34    0.65
   2   0   4   49.54    1.29
   2   0   4   48.20    1.32
   3   0   4   -0.03    0.10
   3   0   4    0.36    0.19
   4   0   4   15.82    0.90
   4   0   4   18.89    0.94
   5   0   4   33.20    1.34
   5   0   4   32.67    1.38
   6   0   4    0.79    0.32
   6   0   4    0.66    0.29
   7   0   4    6.39    0.81
   7   0   4    8.71    1.02
   8   0   4    0.13    0.21
   8   0   4    0.43    0.33
   9   0   4    3.91    0.76
   9   0   4    3.59    0.73
  10   0   4   16.13    1.56
  10   0   4   19.24    1.49
  11   0   4   26.55    1.74
  11   0   4   26.23    1.81
  12   0   4    0.88    0.62
  12   0   4    1.96    0.65
  13   0   4    1.32    0.57
  13   0   4    3.13    0.93
  16  -1  -4    3.09    0.92
  16   1  -4    1.92    0.71
  15  -1  -4    6.88    1.18
  15   1  -4    5.81    1.04
  14  -1  -4    7.53    1.19
  14   1  -4    8.09    1.12
  13  -1  -4   30.70    1.80
  13   1  -4   33.98    1.81
  12  -1  -4   20.56    1.39
  12   1  -4   19.07    1.30
  11  -1  -4    0.26    0.27
  11   1  -4   -0.16    0.25
  10  -1  -4    9.07    0.98
  10   1  -4    8.83    0.93
   9  -1  -4   61.90    2.03
   9   1  -4   64.09    1.93
   8  -1  -4   36.93    1.44
   8   1  -4   37.99    1.35
   7  -1  -4  303.68    4.55
   7   1  -4  308.74    4.24
   6  -1  -4   87.87    2.01
   6   1  -4   90.02    1.80
   5  -1  -4  126.89    2.32
   5   1  -4  126.26    1.97
  -5   1   4  129.48    2.36
   4  -1  -4  154.78    2.45
  -4   1   4  153.46    2.44
   3  -1  -4  320.63    3.86
  -3   1   4  317.61    3.86
  -2  -1   4   14.01    0.62
  -2   1   4   13.01    0.57
  -1  -1   4   69.71    1.46
  -1   1   4   67.15    1.36
   0  -1   4   96.92    1.83
   0   1   4   94.64    1.75
   1  -1   4   22.28    0.73
   1  -1   4   23.54    0.90
   1   1   4   23.53    0.77
   1   1   4   23.63    0.86
   2  -1   4   -0.18    0.13
   2  -1   4   -0.09    0.10
   2   1   4   -0.09    0.12
   2   1   4    0.04    0.13
   3  -1   4   99.18    2.25
   3  -1   4   97.32    2.04
   3   1   4   96.72    2.14
   3   1   4   98.77    2.13
   4  -1   4    2.58    0.43
   4  -1   4    2.24    0.43
   4   1   4    3.01    0.47
   5  -1   4   12.70    0.84
   5  -1   4   15.41    0.95
   5   1   4   15.40    0.94
   6  -1   4   25.90    1.27
   6  -1   4   21.95    1.24
   6   1   4   23.38    1.24
   7  -1   4   58.48    2.07
   7  -1   4   55.68    2.11
   7   1   4   59.44    2.10
   8  -1   4   64.59    2.30
   8  -1   4   59.61    2.32
   8   1   4   57.03    2.18
   9  -1   4   35.65    1.90
   9  -1   4   32.78    1.76
   9   1   4   34.29    1.77
  10  -1   4    1.46    0.54
  10  -1   4    2.83    0.69
  10   1   4    1.90    0.56
  10   1   4    3.43    0.80
  11  -1   4    6.60    1.09
  11  -1   4    7.70    1.22
  11   1   4    6.12    1.08
  11   1   4    5.04    0.94
  12  -1   4    4.66    1.04
  12  -1   4    4.58    0.94
  12   1   4    6.71    1.18
  12   1   4    2.94    0.79
  13  -1   4   11.05    1.57
  13  -1   4   11.01    1.53
  13   1   4    8.60    1.35
  13   1   4   10.10    1.54
  16  -2  -4    3.85    0.99
  16  -2  -4    4.02    0.98
  16   2  -4    2.87    0.79
  15  -2  -4    0.05    0.40
  15   2  -4    0.03    0.35
  14  -2  -4   15.73    1.69
  14   2  -4   15.88    1.56
  13  -2  -4   15.53    1.59
  13   2  -4   18.13    1.33
  12  -2  -4    2.61    0.64
  12   2  -4    2.44    0.57
  11  -2  -4   11.82    1.24
  11   2  -4   13.23    1.00
  10  -2  -4   58.12    2.19
  10   2  -4   59.05    1.96
   9  -2  -4   58.50    2.06
   9   2  -4   58.51    1.80
   8  -2  -4   12.72    0.90
   8   2  -4   11.90    0.74
   7  -2  -4   53.13    1.73
   7   2  -4   51.15    1.41
   6  -2  -4  189.49    3.35
   6   2  -4  185.26    2.73
  -6   2   4  190.36    3.36
   5  -2  -4    1.46    0.31
   5   2  -4    0.90    0.18
  -5   2   4    0.67    0.21
   4  -2  -4    9.70    0.62
  -4   2   4   11.25    0.67
   3  -2  -4   32.80    1.09
  -3   2   4   32.72    1.08
  -2  -2   4  156.15    2.62
   2  -2  -4  153.09    2.54
  -2   2   4  156.19    2.57
  -1  -2   4   47.21    1.34
  -1   2   4   47.21    1.28
   0  -2   4   18.36    0.82
   0   2   4   17.61    0.78
   1  -2   4   83.29    1.92
   1  -2   4   84.17    1.55
   1   2   4   82.63    1.86
   2  -2   4  245.46    3.40
   2  -2   4  245.09    3.84
   2   2   4  252.69    3.78
   3  -2   4    3.83    0.57
   3  -2   4    3.41    0.46
   3   2   4    3.96    0.53
   4  -2   4    0.56    0.24
   4  -2   4    0.54    0.27
   4   2   4    0.81    0.27
   5  -2   4    3.06    0.51
   5  -2   4    3.53    0.60
   5   2   4    2.98    0.51
   6  -2   4   37.82    1.68
   6  -2   4   41.13    1.64
   6   2   4   39.82    1.66
   7  -2   4    6.61    0.93
   7  -2   4    5.14    0.75
   7   2   4    6.46    0.85
   8  -2   4   19.82    1.31
   8  -2   4   19.32    1.33
   8   2   4   19.93    1.33
   9  -2   4   20.29    1.43
   9  -2   4   18.99    1.36
   9   2   4   19.03    1.34
  10  -2   4   20.83    1.54
  10  -2   4   22.12    1.55
  10   2   4   23.66    1.59
  11  -2   4    9.65    1.30
  11  -2   4    9.47    1.31
  11   2   4   11.86    1.39
  12  -2   4    0.30    0.43
  12  -2   4    0.32    0.48
  12   2   4    0.37    0.52
  12   2   4   -0.27    0.37
  13  -2   4    0.40    0.58
  13  -2   4   -0.42    0.42
  13   2   4   -0.44    0.32
  13   2   4    0.17    0.40
  15  -3  -4    4.83    1.07
  15  -3  -4    3.45    0.85
  14  -3  -4    7.63    1.21
  14  -3  -4    7.66    1.20
  13  -3  -4   54.10    2.53
  13  -3  -4   51.37    2.34
  12  -3  -4    4.12    0.84
  12  -3  -4    3.87    0.77
  12   3  -4    3.65    0.70
  11  -3  -4   58.82    2.38
  11  -3  -4   54.80    2.16
  11   3  -4   56.24    2.03
  10  -3  -4   28.71    1.58
  10   3  -4   31.33    1.40
   9  -3  -4  198.58    4.19
  -9   3   4  202.42    4.29
   9   3  -4  193.05    3.54
  -8  -3   4    0.86    0.31
   8  -3  -4    1.11    0.37
   8   3  -4    1.31    0.32
  -8   3   4    1.15    0.36
   7  -3  -4   47.88    1.47
   7  -3  -4   49.59    1.80
  -7  -3   4   52.92    1.61
  -7   3   4   51.78    1.83
  -7   3   4   53.51    1.53
   7   3  -4   51.37    1.41
   6  -3  -4  135.80    2.35
   6  -3  -4  138.16    2.98
  -6  -3   4  135.24    2.71
  -6   3   4  132.76    2.58
  -6   3   4  137.69    2.95
   6   3  -4  137.46    2.23
  -5  -3   4   56.28    1.65
   5  -3  -4   60.60    1.81
   5  -3  -4   56.40    1.31
   5   3  -4   57.07    1.17
  -5   3   4   57.92    1.76
  -5   3   4   56.16    1.59
   4  -3  -4    1.84    0.36
  -4  -3   4    1.71    0.37
  -4   3   4    1.91    0.38
  -4   3   4    2.84    0.46
   3  -3  -4    8.53    0.63
  -3  -3   4    9.65    0.66
   3  -3  -4    8.27    0.61
  -3   3   4    9.38    0.65
  -3   3   4    8.80    0.63
   2  -3  -4    6.02    0.63
  -2  -3   4    6.58    0.68
   2  -3  -4    5.48    0.60
  -2  -3   4    5.27    0.59
  -2   3   4    5.90    0.62
  -2   3   4    5.56    0.60
   1  -3  -4  231.22    3.65
  -1  -3   4  231.23    3.64
  -1  -3   4  225.78    3.58
  -1   3   4  228.97    3.55
  -1   3   4  227.18    3.63
   0  -3  -4   41.48    1.38
   0  -3   4   39.06    1.32
   0  -3   4   38.53    1.32
   0   3  -4   36.44    1.04
   0   3   4   40.11    1.34
   0   3   4   39.93    1.36
   1  -3   4  138.22    2.24
   1  -3   4  142.78    2.79
  -1  -3  -4  141.80    2.75
   1  -3   4  138.81    2.67
   1   3   4  144.37    2.76
   1   3   4  144.27    2.79
   2  -3   4   58.46    1.49
   2  -3   4   57.97    1.62
   2  -3   4   57.93    1.78
   2   3   4   60.23    1.76
   3  -3   4   -0.12    0.14
   3  -3   4   -0.01    0.14
   3  -3   4    0.10    0.14
   3   3   4   -0.02    0.14
   3   3   4   -0.02    0.13
   4  -3   4   35.43    1.34
   4  -3   4   34.15    1.23
   4  -3   4   33.42    1.47
   4   3   4   36.44    1.49
   5  -3   4   14.32    1.01
   5  -3   4   15.77    0.97
   5  -3   4   14.42    0.93
   5   3   4   15.74    0.91
   5   3   4   16.64    1.05
   6  -3   4    0.36    0.26
   6  -3   4    0.33    0.30
   6   3   4    0.69    0.30
   7  -3   4    7.06    0.92
   7  -3   4    7.09    1.01
   7   3   4    5.82    0.83
   8  -3   4   10.19    1.16
   8  -3   4    9.40    1.18
   8   3   4    9.58    1.11
   9  -3   4    7.31    1.09
   9  -3   4    8.47    1.09
   9   3   4    8.18    1.10
  10  -3   4    0.64    0.36
  10  -3   4    0.03    0.32
  10   3   4    0.18    0.31
  11  -3   4   28.19    1.86
  11  -3   4   25.04    1.83
  11   3   4   26.25    1.80
  12  -3   4   11.31    1.51
  12  -3   4    9.79    1.49
  12   3   4    8.84    1.34
  13  -3   4    1.85    0.69
  13  -3   4    1.59    0.76
  13   3   4    1.91    0.67
  15  -4  -4    3.37    0.97
 -15   4   4    1.87    0.74
  14  -4  -4    8.38    1.31
 -14   4   4    5.69    1.09
  13  -4  -4    0.43    0.37
 -13   4   4    0.01    0.37
  12  -4  -4   51.58    2.44
 -12   4   4   53.51    2.52
  11  -4  -4    4.05    0.80
 -11   4   4    4.93    0.91
  10  -4  -4   17.00    1.31
 -10   4   4   17.12    1.29
   9  -4  -4    0.72    0.38
  -9   4   4    0.77    0.37
  -8  -4   4  124.68    2.89
   8  -4  -4  125.03    3.24
  -8   4   4  127.54    3.26
   7  -4  -4    2.54    0.54
  -7  -4   4    2.91    0.54
  -7   4   4    3.15    0.59
  -7   4   4    3.63    0.55
  -6  -4   4   35.38    1.46
   6  -4  -4   33.71    1.52
  -6   4   4   36.79    1.57
  -6   4   4   36.43    1.41
  -5  -4   4    0.77    0.32
   5  -4  -4    1.19    0.36
   5  -4  -4    1.43    0.37
  -5   4   4    1.02    0.34
  -5   4   4    0.48    0.25
   4  -4  -4    8.55    0.68
   4  -4  -4    7.86    0.81
  -4  -4   4    9.35    0.74
  -4   4   4    7.85    0.80
  -4   4   4    7.94    0.80
   3  -4  -4   14.25    0.89
   3  -4  -4   13.11    0.85
  -3  -4   4   15.03    0.93
  -3   4   4   16.01    0.93
  -3   4   4   16.78    0.95
  -2  -4   4   50.47    1.66
   2  -4  -4   51.18    1.65
  -2  -4   4   54.68    1.77
   2  -4  -4   52.62    1.70
  -2   4   4   49.54    1.64
  -2   4   4   51.01    1.70
  -1  -4   4   29.26    1.28
  -1  -4   4   26.35    0.77
  -1  -4   4   27.37    1.19
   1  -4  -4   27.83    1.23
   1   4  -4   27.97    0.80
  -1   4   4   27.87    1.19
  -1   4   4   26.45    1.21
   0  -4   4   51.88    1.23
   0  -4   4   53.88    1.75
   0  -4   4   49.96    1.66
   0  -4  -4   52.47    1.72
   0   4  -4   51.55    1.22
   0   4   4   50.17    1.70
   0   4   4   49.64    1.64
   1  -4   4    6.36    0.75
   1  -4   4    4.61    0.61
   1  -4   4    6.19    0.47
  -1  -4  -4    6.38    0.74
   1   4   4    7.40    0.82
   1   4   4    5.98    0.70
  -1   4  -4    5.91    0.55
  -2  -4  -4   37.95    1.49
   2  -4   4   35.96    1.46
   2  -4   4   37.86    1.24
   2  -4   4   36.39    1.42
   2   4   4   36.22    1.46
   2   4   4   34.02    1.42
  -3  -4  -4   41.96    1.60
   3  -4   4   43.06    1.68
   3  -4   4   41.85    1.45
   3  -4   4   45.33    1.59
   3   4   4   46.20    1.66
   3   4   4   43.56    1.65
  -4  -4  -4   45.21    1.68
   4  -4   4   46.59    1.62
   4  -4   4   45.58    1.79
   4  -4   4   43.80    1.56
   4   4   4   43.76    1.72
   4   4   4   43.94    1.66
   5  -4   4    4.73    0.69
   5  -4   4    4.47    0.61
   5  -4   4    3.96    0.69
   5   4   4    3.00    0.57
   6  -4   4   15.32    1.08
   6  -4   4   12.25    1.24
   6   4   4   15.85    1.03
   6   4   4   15.46    1.12
   7  -4   4    0.03    0.24
   7  -4   4   -0.14    0.22
   7   4   4    0.30    0.27
   8  -4   4   59.20    2.47
   8  -4   4   58.74    2.36
   8   4   4   55.55    2.34
   9  -4   4   25.20    1.64
   9  -4   4   24.07    1.65
   9   4   4   29.01    1.77
  10  -4   4    2.64    0.74
  10  -4   4    4.10    0.87
  10   4   4    4.09    0.89
  11  -4   4   12.55    1.61
  11  -4   4   12.12    1.53
  11   4   4   11.10    1.45
  12  -4   4    0.23    0.44
  12  -4   4    0.19    0.49
  12   4   4    0.31    0.44
  14  -5  -4    0.15    0.49
 -14   5   4    1.46    0.60
  13  -5  -4   -0.22    0.32
 -13   5   4    0.43    0.43
  12  -5  -4   16.82    1.74
 -12   5   4   15.75    1.71
  11  -5  -4   10.18    1.31
 -11   5   4   11.43    1.38
  10  -5  -4    7.79    1.08
 -10   5   4    6.49    1.03
   9  -5  -4    8.70    1.10
  -9   5   4    7.40    1.04
  -8  -5   4    7.61    0.90
   8  -5  -4    5.63    0.87
  -8   5   4    6.09    0.87
   7  -5  -4    0.51    0.35
  -7  -5   4    0.33    0.29
   7  -5  -4    0.17    0.25
  -7   5   4    0.94    0.37
  -7   5   4    0.67    0.36
   6  -5  -4   17.56    1.16
   6  -5  -4   14.89    1.01
  -6  -5   4   15.56    1.08
  -6   5   4   15.50    1.04
  -6   5   4   17.98    1.17
  -5  -5   4   17.75    1.13
   5  -5  -4   16.32    1.06
   5  -5  -4   16.83    1.10
  -5   5   4   19.33    1.18
  -5   5   4   17.87    1.09
   4  -5  -4    3.10    0.60
   4  -5  -4    3.73    0.64
  -4  -5   4    3.88    0.64
  -4   5   4    4.94    0.74
  -4   5   4    3.47    0.60
   3  -5  -4    0.01    0.21
   3  -5  -4    0.15    0.19
  -3  -5   4    0.01    0.15
  -3   5   4   -0.14    0.14
   2  -5  -4    1.30    0.39
  -2  -5   4    1.55    0.44
  -2   5   4    1.83    0.43
   1  -5  -4   -0.02    0.20
  -1  -5   4    0.16    0.24
  -1  -5   4    0.33    0.22
  -1   5   4    0.45    0.26
   0  -5   4   19.55    0.83
   0  -5   4   20.40    1.19
   0  -5  -4   19.84    1.18
   0  -5   4   18.76    1.07
   0   5   4   20.08    1.12
   0   5  -4   20.14    0.85
   1  -5   4   36.04    1.53
   1  -5   4   35.70    1.57
   1  -5   4   36.29    1.23
  -1  -5  -4   39.46    1.67
  -1   5  -4   37.00    1.24
   1   5   4   39.32    1.59
  -2  -5  -4    7.10    0.87
   2  -5   4    7.33    0.72
   2  -5   4    5.73    0.80
   2  -5   4    6.65    0.81
   2   5   4    5.83    0.78
  -2   5  -4    7.12    0.71
   2   5   4    5.26    0.73
   3  -5   4    5.33    0.76
   3  -5   4    7.08    0.76
   3  -5   4    6.58    0.78
  -3  -5  -4    7.29    0.92
   3   5   4    6.79    0.84
  -3   5  -4    8.08    0.82
   3   5   4    6.00    0.81
  -4  -5  -4    0.08    0.22
   4  -5   4    0.11    0.24
   4  -5   4   -0.09    0.18
   4  -5   4    0.03    0.20
   4   5   4    0.18    0.27
   4   5   4   -0.12    0.19
  -4   5  -4   -0.15    0.17
   5  -5   4  100.74    2.68
   5  -5   4  100.44    3.00
  -5  -5  -4   97.93    2.80
   5  -5   4  100.64    2.73
   5   5   4   96.67    2.79
   5   5   4  100.27    2.94
   6  -5   4    0.20    0.30
   6  -5   4    0.08    0.23
   6   5   4    0.02    0.22
   6   5   4    0.23    0.27
   7  -5   4   13.70    1.32
   7  -5   4   12.47    1.36
   7   5   4   16.64    1.26
   8  -5   4    0.59    0.43
   8  -5   4    1.44    0.52
   8   5   4    1.91    0.58
   9  -5   4   -0.14    0.28
   9  -5   4    0.09    0.35
   9   5   4   -0.11    0.31
  10  -5   4    0.40    0.42
  10  -5   4    0.70    0.55
  10   5   4    0.15    0.39
  11  -5   4    2.33    0.76
  11  -5   4    2.81    0.83
  11   5   4    2.90    0.82
  13  -6  -4    0.10    0.39
 -13   6   4    0.51    0.49
  12  -6  -4    0.34    0.48
 -12   6   4   -0.01    0.38
  11  -6  -4    0.39    0.48
 -11   6   4    0.84    0.51
  10  -6  -4    0.54    0.39
 -10   6   4    0.27    0.40
  -9  -6   4    1.95    0.55
   9  -6  -4    1.08    0.45
  -9   6   4    1.74    0.55
   8  -6  -4    5.08    0.86
  -8  -6   4    6.12    0.92
  -8   6   4    5.91    0.90
   7  -6  -4    0.44    0.35
   7  -6  -4    1.93    0.53
  -7  -6   4    1.40    0.46
  -7   6   4    2.14    0.55
  -7   6   4    1.66    0.50
   6  -6  -4   57.97    2.19
   6  -6  -4   60.76    2.32
  -6  -6   4   56.27    2.26
  -6   6   4   62.69    2.35
  -6   6   4   60.57    2.23
  -5  -6   4    1.11    0.42
   5  -6  -4    1.82    0.46
   5  -6  -4    1.95    0.54
  -5   6   4    1.62    0.48
  -5   6   4    1.60    0.49
   4  -6  -4    1.12    0.42
   4  -6  -4    0.43    0.30
  -4  -6   4    0.43    0.33
  -4   6   4    0.36    0.28
   3  -6  -4   43.81    1.92
  -3  -6   4   45.44    1.97
   3  -6  -4   45.38    1.87
  -3   6   4   45.63    1.87
   2  -6  -4  182.37    4.07
  -2  -6   4  171.22    3.98
  -2   6   4  170.25    3.73
   1  -6  -4   39.55    1.83
  -1  -6   4   39.94    1.70
  -1  -6   4   40.34    1.84
  -1   6   4   42.70    1.74
   0  -6   4   53.73    2.12
   0  -6   4   56.59    2.02
   0  -6  -4   54.79    2.17
   0   6   4   54.23    2.02
  -1  -6  -4   24.75    1.46
   1  -6   4   22.77    1.28
   1  -6   4   20.53    1.31
   1   6   4   21.89    1.28
   2  -6   4   26.58    1.44
   2  -6   4   29.59    1.56
  -2  -6  -4   28.19    1.57
   2   6   4   25.01    1.38
   3  -6   4    6.51    0.93
  -3  -6  -4    5.84    0.86
   3  -6   4    5.39    0.84
   3   6   4    5.60    0.85
   3   6   4    6.07    0.84
  -4  -6  -4    0.28    0.34
   4  -6   4    0.23    0.26
   4  -6   4    0.32    0.31
   4  -6   4    0.27    0.31
   4   6   4    0.13    0.31
  -4   6  -4   -0.08    0.19
   4   6   4   -0.05    0.22
   5  -6   4    0.82    0.37
   5  -6   4   -0.06    0.21
   5  -6   4    0.21    0.31
  -5  -6  -4    0.67    0.40
  -5   6  -4    0.50    0.32
   5   6   4    0.32    0.29
   5   6   4    0.90    0.42
   6  -6   4    3.46    0.77
  -6  -6  -4    2.72    0.64
   6  -6   4    2.43    0.58
   6   6   4    2.25    0.58
  -6   6  -4    3.48    0.70
   6   6   4    2.47    0.59
   7  -6   4    4.12    0.78
   7  -6   4    4.28    0.89
   7   6   4    4.89    0.84
  -7   6  -4    5.30    0.90
   8  -6   4    9.30    1.17
   8  -6   4   10.90    1.42
   8   6   4    5.85    0.98
  -8   6  -4   11.00    1.40
   9  -6   4    5.32    1.03
   9  -6   4   10.74    1.36
   9   6   4    6.76    1.12
  10  -6   4    0.80    0.55
  10  -6   4    0.76    0.55
  10   6   4    0.67    0.54
  12  -7  -4    1.39    0.75
 -12   7   4    0.94    0.63
  11  -7  -4    7.29    1.22
 -11   7   4    6.42    1.21
  10  -7  -4    0.21    0.45
 -10   7   4    0.66    0.41
   9  -7  -4    0.59    0.36
  -9  -7   4    1.03    0.49
  -9   7   4    0.95    0.51
   8  -7  -4    1.51    0.59
  -8  -7   4    1.94    0.61
  -8   7   4    1.28    0.49
   7  -7  -4    8.12    1.11
   7  -7  -4    7.16    1.03
  -7  -7   4    8.83    1.18
  -7   7   4   10.48    1.28
  -7   7   4    9.68    1.19
   6  -7  -4   -0.06    0.26
  -6  -7   4   -0.09    0.29
   6  -7  -4    0.04    0.30
  -6   7   4   -0.15    0.24
  -6   7   4    0.17    0.30
   5  -7  -4   48.21    2.18
   5  -7  -4   44.10    2.07
  -5  -7   4   44.41    2.15
  -5   7   4   47.17    2.15
  -5   7   4   45.83    2.09
   4  -7  -4    0.05    0.25
   4  -7  -4    0.96    0.46
  -4  -7   4    0.04    0.24
  -4   7   4    0.40    0.34
  -3  -7   4   64.35    2.58
   3  -7  -4   63.47    2.54
  -3   7   4   66.63    2.43
  -2  -7   4    2.79    0.69
   2  -7  -4    1.55    0.55
  -2   7   4    2.02    0.55
  -1  -7   4   19.54    1.41
   1  -7  -4   19.74    1.41
  -1   7   4   19.05    1.26
   0  -7   4    5.35    0.83
   0  -7  -4    4.53    0.85
   0  -7   4    5.94    0.97
   0   7   4    5.20    0.81
  -1  -7  -4   51.27    2.30
   1  -7   4   55.34    2.16
   1  -7   4   51.36    2.27
   1   7   4   55.50    2.18
   2  -7   4    0.21    0.28
   2  -7   4    0.15    0.28
  -2  -7  -4    0.08    0.29
   2   7   4    0.21    0.26
   3  -7   4   57.06    2.40
   3  -7   4   59.49    2.35
  -3  -7  -4   58.20    2.47
   3   7   4   61.67    2.37
   3   7   4   60.70    2.50
  -4  -7  -4    7.61    1.11
   4  -7   4   10.96    1.23
   4  -7   4    9.26    1.15
   4   7   4   10.54    1.25
   4   7   4    9.64    1.19
   5  -7   4   36.53    1.91
   5  -7   4   39.73    2.02
  -5  -7  -4   34.01    1.94
   5   7   4   38.52    2.04
   5   7   4   39.91    2.00
   6  -7   4   32.47    1.90
  -6  -7  -4   31.05    1.87
   6   7   4   31.48    1.86
   6   7   4   30.09    1.79
   7  -7   4   20.43    1.59
   7   7   4   17.38    1.67
   8   7   4    8.73    1.29
   9   7   4    9.43    1.36
  10  -8  -4    0.57    0.49
 -10   8   4    0.85    0.53
   9  -8  -4    8.36    1.29
  -9  -8   4    7.58    1.21
  -9   8   4    6.43    1.10
  -8  -8   4    9.09    1.30
   8  -8  -4    8.00    1.22
  -8   8   4    6.80    1.10
   7  -8  -4    1.50    0.57
   7  -8  -4    1.33    0.54
  -7  -8   4    3.06    0.76
  -7   8   4    2.72    0.72
  -7   8   4    3.60    0.84
   6  -8  -4    0.47    0.41
   6  -8  -4   -0.01    0.31
  -6  -8   4    0.10    0.33
  -6   8   4    0.16    0.39
  -6   8   4    0.31    0.36
   5  -8  -4    2.84    0.76
   5  -8  -4    3.11    0.78
  -5  -8   4    3.26    0.80
  -5   8   4    1.94    0.60
  -5   8   4    4.03    0.81
   4  -8  -4   12.91    1.48
  -4  -8   4   13.56    1.56
  -4   8   4   13.14    1.44
  -3  -8   4    5.29    1.00
   3  -8  -4    3.17    0.72
  -3   8   4    5.72    0.93
  -2  -8   4   -0.15    0.28
   2  -8  -4    0.04    0.28
  -2   8   4    0.40    0.33
  -1  -8   4   -0.14    0.32
   1  -8  -4    0.02    0.33
  -1   8   4   -0.09    0.29
   0  -8  -4    9.58    1.26
   0  -8   4   10.31    1.29
   0   8   4   11.81    1.30
  -1  -8  -4    0.19    0.33
   1  -8   4    0.22    0.34
   1   8   4   -0.03    0.30
  -2  -8  -4    3.18    0.80
   2  -8   4    3.67    0.86
   2   8   4    3.77    0.82
  -3  -8  -4    1.15    0.58
   3  -8   4    0.33    0.42
   3   8   4    0.47    0.39
   3   8   4    0.30    0.40
  -4  -8  -4   10.72    1.41
   4  -8   4   12.44    1.48
   4   8   4   13.18    1.53
   4   8   4   10.09    1.21
   5  -8   4   30.05    1.89
  -5  -8  -4   28.97    1.94
   5   8   4   29.00    1.82
   5   8   4   25.92    1.83
  -6  -8  -4   21.56    1.72
   6   8   4   23.05    1.68
   6   8   4   22.25    1.72
   7   8   4   24.34    2.72
   7  -9  -4    3.85    0.94
   7  -9  -4    3.24    0.87
  -7  -9   4    2.97    0.92
  -7   9   4    4.32    0.96
  -7   9   4    4.62    1.00
   6  -9  -4    4.20    0.99
   6  -9  -4    5.06    1.03
  -6  -9   4    3.48    0.93
  -6   9   4    4.00    0.93
  -6   9   4    2.67    0.84
   5  -9  -4    0.25    0.42
  -5  -9   4    0.17    0.40
  -5   9   4   -0.24    0.36
  -5   9   4    0.92    0.51
  -4  -9   4   -0.03    0.41
   4  -9  -4   -0.18    0.25
  -4   9   4    0.15    0.36
  -4   9   4    0.69    0.46
   3  -9  -4    0.58    0.51
  -3  -9   4   -0.11    0.32
  -3   9   4   -0.32    0.31
  -3   9   4    0.29    0.39
  -2  -9   4    0.38    0.43
   2  -9  -4   -0.07    0.37
  -2   9   4    1.17    0.49
  -2   9   4    0.08    0.34
   1  -9  -4   -0.01    0.40
  -1  -9   4    0.27    0.44
  -1   9   4   -0.06    0.30
   0  -9   4    0.35    0.44
   0  -9  -4   -0.01    0.36
   0   9   4    0.01    0.34
   0   9   4   -0.19    0.32
  -1  -9  -4    5.49    1.09
   1  -9   4    5.74    1.11
   1   9   4    8.94    1.35
   1   9   4    6.31    1.03
   2  -9   4    3.11    0.80
  -2  -9  -4    4.68    1.00
   2   9   4    4.12    0.92
   2   9   4    4.04    0.80
  -3  -9  -4    0.14    0.33
   3  -9   4   -0.17    0.36
   3   9   4   -0.26    0.32
   4  -9   4    2.53    0.81
  -4  -9  -4    3.78    0.93
   4   9   4    2.96    0.85
  -5  -9  -4    1.45    0.66
   5   9   4    1.61    0.69
  16   0  -5   -0.06    0.43
  15   0  -5    0.11    0.36
  14   0  -5   -0.07    0.31
  13   0  -5    0.18    0.31
  12   0  -5    0.09    0.26
  11   0  -5    0.28    0.26
  10   0  -5   -0.20    0.13
   9   0  -5    0.18    0.19
   8   0  -5    0.08    0.16
   7   0  -5    0.11    0.15
   6   0  -5   -0.02    0.12
   5   0  -5    0.26    0.14
  -5   0   5   -0.02    0.07
   4   0  -5    0.01    0.09
  -4   0   5    0.21    0.12
  -2   0   5   -0.03    0.08
  -1   0   5   -0.01    0.09
  -1   0   5    0.05    0.07
   0   0   5    0.05    0.12
   0   0   5   -0.06    0.09
   1   0   5   -0.34    0.08
   1   0   5   -0.08    0.14
   2   0   5   -0.05    0.09
   2   0   5    0.25    0.17
   3   0   5    0.03    0.13
   3   0   5   -0.03    0.11
   4   0   5    0.00    0.14
   4   0   5   -0.01    0.15
   5   0   5   -0.03    0.17
   5   0   5    0.23    0.21
   6   0   5   -0.08    0.17
   6   0   5    0.06    0.17
   7   0   5    0.07    0.20
   7   0   5   -0.06    0.20
   8   0   5   -0.06    0.17
   8   0   5   -0.09    0.21
   9   0   5   -0.02    0.23
   9   0   5   -0.05    0.21
  10   0   5    0.52    0.44
  10   0   5   -0.03    0.27
  11   0   5    0.10    0.42
  11   0   5   -0.22    0.25
  12   0   5    0.11    0.40
  12   0   5    0.28    0.46
  13   0   5    0.13    0.45
  13   0   5   -0.10    0.39
  16  -1  -5   42.62    2.44
  16   1  -5   43.58    2.38
  15  -1  -5   11.46    1.47
  15   1  -5   11.44    1.39
  14  -1  -5   20.73    1.56
  14   1  -5   22.14    1.54
  13  -1  -5    5.82    0.96
  13   1  -5    5.24    0.84
  12  -1  -5   58.63    2.32
  12   1  -5   58.56    2.20
  11  -1  -5   23.27    1.38
  11   1  -5   24.63    1.33
  10  -1  -5   29.22    1.44
  10   1  -5   25.50    1.26
   9  -1  -5    0.08    0.20
   9   1  -5   -0.23    0.13
   8  -1  -5    0.29    0.22
   8   1  -5    0.26    0.19
   7  -1  -5    2.51    0.43
   7   1  -5    3.15    0.43
   6  -1  -5  104.33    2.21
   6   1  -5  106.78    1.92
  -6   1   5  108.31    2.24
   5  -1  -5  191.64    3.02
   5   1  -5  198.08    2.59
  -5   1   5  196.27    3.04
   4  -1  -5   18.10    0.76
  -4   1   5   17.24    0.73
  -3  -1   5  437.54    5.20
   3  -1  -5  437.51    5.01
  -3   1   5  432.86    5.00
  -2  -1   5    3.34    0.40
  -2   1   5    3.24    0.37
  -1  -1   5   29.05    0.98
  -1   1   5   28.08    0.91
   0  -1   5   80.07    1.44
   0  -1   5   79.86    1.78
   0   1   5   77.65    1.67
   0   1   5   82.95    1.71
   1  -1   5  137.14    2.21
   1  -1   5  136.55    2.54
   1   1   5  132.97    2.25
   1   1   5  135.52    2.42
   2  -1   5  124.04    2.28
   2  -1   5  127.05    2.58
   2   1   5  128.17    2.38
   2   1   5  128.90    2.53
   3  -1   5   -0.02    0.14
   3  -1   5    0.10    0.14
   3   1   5    0.08    0.15
   3   1   5    0.06    0.12
   4  -1   5   56.56    1.85
   4  -1   5   57.03    1.72
   4   1   5   56.63    1.76
   4   1   5   58.95    1.82
   5  -1   5   48.10    1.69
   5  -1   5   44.75    1.74
   5   1   5   46.48    1.72
   5   1   5   50.23    1.78
   6  -1   5    9.95    1.00
   6  -1   5   10.85    1.13
   6   1   5   10.26    1.05
   6   1   5    9.00    1.00
   7  -1   5   17.45    1.16
   7  -1   5   15.58    1.15
   7   1   5   16.09    1.16
   7   1   5   15.99    1.12
   8  -1   5   27.22    1.58
   8  -1   5   26.89    1.55
   8   1   5   26.21    1.55
   8   1   5   25.35    1.50
   9  -1   5   42.87    2.10
   9  -1   5   42.74    2.04
   9   1   5   38.16    1.94
   9   1   5   38.15    2.01
  10  -1   5    8.71    1.20
  10  -1   5    9.41    1.30
  10   1   5    8.84    1.21
  10   1   5    8.28    1.22
  11  -1   5    1.21    0.60
  11  -1   5    1.13    0.52
  11   1   5    1.81    0.68
  11   1   5    2.39    0.71
  12  -1   5    4.22    1.00
  12  -1   5    2.31    0.78
  12   1   5    4.13    1.01
  12   1   5    4.20    1.00
  13  -1   5    9.99    1.48
  13  -1   5   12.43    1.74
  13   1   5   12.99    1.66
  13   1   5    8.63    1.43
  16  -2  -5    0.85    0.57
  15  -2  -5   30.01    2.01
  14  -2  -5   10.78    1.40
  14   2  -5   10.62    1.27
  13  -2  -5    3.60    0.81
  13   2  -5    5.33    0.88
  12  -2  -5   60.29    2.43
  12   2  -5   57.03    2.15
  11  -2  -5    0.28    0.29
  11   2  -5    0.12    0.23
  10  -2  -5    0.54    0.30
  10   2  -5    0.17    0.23
   9  -2  -5   77.78    2.36
   9   2  -5   76.02    2.00
  -8  -2   5   92.87    2.07
   8  -2  -5   89.33    2.44
   8   2  -5   96.87    2.09
  -8   2   5   98.75    2.57
  -7  -2   5   19.29    0.91
   7  -2  -5   20.18    1.06
  -7   2   5   20.44    1.06
   7   2  -5   20.90    0.83
  -6  -2   5   37.80    1.27
   6  -2  -5   36.00    1.33
   6   2  -5   36.38    0.98
  -6   2   5   37.14    1.35
   5  -2  -5   22.17    1.00
  -5  -2   5   25.35    1.17
  -5   2   5   21.85    0.99
   4  -2  -5    4.69    0.55
  -4   2   5    4.92    0.56
  -3  -2   5    3.51    0.50
   3  -2  -5    2.23    0.36
  -3   2   5    1.74    0.32
  -2  -2   5    0.06    0.12
  -2   2   5    0.14    0.13
  -1  -2   5   27.93    1.08
  -1   2   5   28.36    1.05
   0  -2   5  334.86    4.70
   0   2   5  342.60    4.62
   0   2   5  365.05    5.18
   1  -2   5   33.46    1.26
   1  -2   5   31.19    0.94
   1   2   5   31.17    1.15
   1   2   5   33.60    1.21
   1   2   5   31.09    0.95
   2  -2   5  291.13    4.52
   2  -2   5  288.64    3.96
   2   2   5  303.55    4.28
   2   2   5  295.01    4.40
   2   2   5  303.31    4.04
   3  -2   5    1.40    0.39
   3  -2   5    1.01    0.29
   3   2   5    1.12    0.32
   4  -2   5   10.92    0.76
   4  -2   5   11.09    0.85
   4   2   5   11.21    0.81
   4   2   5   10.35    0.69
   5  -2   5    1.59    0.40
   5  -2   5    1.69    0.44
   5   2   5    1.11    0.37
   5   2   5    2.39    0.42
   6  -2   5   96.90    2.86
   6  -2   5   96.18    2.66
   6   2   5   97.57    2.76
   7  -2   5   67.21    2.45
   7  -2   5   63.41    2.26
   7   2   5   65.14    2.35
   8  -2   5   26.91    1.56
   8  -2   5   29.01    1.70
   8   2   5   27.70    1.62
   9  -2   5    6.88    1.00
   9  -2   5    7.50    1.15
   9   2   5    7.88    1.07
   9   2   5    7.26    1.11
  10  -2   5   11.35    1.45
  10  -2   5    7.32    1.09
  10   2   5   10.18    1.29
  10   2   5    9.80    1.29
  11  -2   5   16.20    1.82
  11  -2   5   15.32    1.69
  11   2   5   14.56    1.69
  11   2   5   12.62    1.48
  12  -2   5    9.02    1.34
  12  -2   5    9.48    1.51
  12   2   5    9.17    1.41
  12   2   5    8.67    1.37
  15  -3  -5    0.25    0.42
  14  -3  -5    4.72    0.98
  13  -3  -5    1.89    0.59
  13  -3  -5    1.54    0.58
  12  -3  -5   10.87    1.30
 -12   3   5   13.27    1.46
  11  -3  -5    5.52    0.87
 -11   3   5    7.36    1.02
  10  -3  -5   63.60    2.35
 -10   3   5   63.01    2.37
   9  -3  -5   60.25    2.20
  -9   3   5   62.06    2.21
   9   3  -5   65.41    2.76
  -8  -3   5    1.71    0.40
   8  -3  -5    2.03    0.49
  -8   3   5    1.90    0.44
   8   3  -5    2.04    0.37
   7  -3  -5   11.29    0.85
  -7  -3   5    8.98    0.70
   7   3  -5   10.22    0.59
  -7   3   5   11.82    0.75
  -7   3   5    9.68    0.96
  -6  -3   5   44.17    1.51
   6  -3  -5   45.40    1.65
   6   3  -5   46.63    1.08
  -6   3   5   45.24    1.48
  -6   3   5   45.82    1.66
  -5  -3   5   28.82    1.20
   5  -3  -5   28.08    1.22
  -5   3   5   28.81    1.23
  -5   3   5   31.27    1.21
   4  -3  -5    0.20    0.16
  -4  -3   5    0.03    0.17
  -4   3   5   -0.06    0.14
  -4   3   5    0.04    0.13
   3  -3  -5    9.44    0.67
  -3  -3   5   10.00    0.71
  -3  -3   5   10.12    0.71
  -3   3   5    8.79    0.66
  -3   3   5    9.05    0.67
  -2  -3   5   42.37    1.46
  -2  -3   5   43.34    1.46
  -2   3   5   43.40    1.46
  -2   3   5   43.94    1.45
  -1  -3   5    4.42    0.58
  -1  -3   5    4.59    0.59
  -1   3   5    4.17    0.55
  -1   3   5    5.65    0.63
   0  -3   5    0.10    0.16
   0  -3   5   -0.05    0.13
   0  -3   5   -0.01    0.10
   0   3   5    0.00    0.12
   0   3   5    0.01    0.13
   1  -3   5    0.09    0.16
   1  -3   5    0.04    0.15
   1  -3   5    0.07    0.12
   1   3   5    0.45    0.25
   1   3   5   -0.13    0.10
   2  -3   5   16.47    0.78
   2  -3   5   17.88    1.04
   2  -3   5   17.14    0.92
   2   3   5   17.29    0.97
   2   3   5   18.16    0.98
   3  -3   5    8.27    0.90
   3  -3   5    8.69    0.65
   3  -3   5    6.75    0.72
   3   3   5    7.85    0.83
   3   3   5    7.87    0.80
   4  -3   5    1.55    0.44
   4  -3   5    2.09    0.41
   4  -3   5    2.53    0.46
   4   3   5    1.45    0.39
   5  -3   5   13.58    0.95
   5  -3   5   13.91    1.05
   5   3   5   15.63    0.94
   5   3   5   15.83    1.07
   6  -3   5    1.69    0.48
   6  -3   5    3.05    0.61
   6   3   5    2.04    0.49
   7  -3   5    4.02    0.76
   7  -3   5    3.50    0.70
   7   3   5    3.68    0.73
   8  -3   5    8.70    1.09
   8  -3   5    8.46    1.19
   8   3   5    8.97    1.14
   9  -3   5    5.71    1.01
   9  -3   5    3.75    0.76
   9   3   5    3.95    0.79
  10  -3   5    7.34    1.10
  10  -3   5    7.83    1.21
  10   3   5    5.76    1.01
  11  -3   5   32.48    2.14
  11  -3   5   31.97    2.02
  11   3   5   32.06    2.02
  12  -3   5    7.93    1.32
  12  -3   5   11.35    1.58
  12   3   5   10.49    1.50
  12   3   5    9.23    1.45
  15  -4  -5    0.82    0.55
 -15   4   5   -0.02    0.38
  14  -4  -5    1.75    0.64
 -14   4   5    0.63    0.46
  13  -4  -5    0.37    0.42
 -13   4   5    0.85    0.49
  12  -4  -5    2.72    0.76
 -12   4   5    1.58    0.61
  11  -4  -5    5.01    0.88
 -11   4   5    6.23    0.99
  10  -4  -5   -0.12    0.25
 -10   4   5    0.05    0.20
   9  -4  -5    8.35    1.03
  -9  -4   5   10.17    1.02
  -9   4   5   12.39    1.27
  -8  -4   5    5.99    0.75
   8  -4  -5    7.00    0.92
  -8   4   5    6.30    0.87
  -8   4   5    7.97    0.92
  -7  -4   5   13.26    0.94
   7  -4  -5   16.39    1.10
  -7   4   5   15.16    0.95
  -7   4   5   14.26    1.04
   6  -4  -5   28.34    1.38
  -6  -4   5   27.33    1.31
  -6   4   5   26.47    1.33
  -6   4   5   27.36    1.26
   5  -4  -5  212.64    4.00
  -5  -4   5  221.09    4.04
  -5   4   5  212.42    4.01
  -5   4   5  216.03    3.92
  -4  -4   5   13.79    0.92
   4  -4  -5   14.05    0.92
  -4   4   5   14.56    0.94
  -4   4   5   11.63    0.85
  -3  -4   5    6.50    0.78
   3  -4  -5    5.04    0.66
   3  -4  -5    4.85    0.65
  -3   4   5    6.20    0.74
  -3   4   5    5.33    0.69
  -2  -4   5    7.09    0.79
  -2  -4   5    6.34    0.75
   2  -4  -5    5.36    0.66
  -2   4   5    6.18    0.71
  -2   4   5    6.88    0.76
  -1  -4   5   40.33    1.52
   1  -4  -5   41.25    1.58
  -1  -4   5   42.44    1.57
  -1   4   5   42.80    1.62
  -1   4   5   42.63    1.54
   0  -4   5   87.67    2.32
   0  -4   5   87.77    2.35
   0  -4  -5   90.88    2.40
   0  -4   5   89.21    1.66
   0   4   5   88.77    2.40
   0   4   5   89.64    2.33
   0   4  -5   87.67    1.65
   1  -4   5    0.32    0.20
   1  -4   5    0.10    0.17
   1  -4   5    0.40    0.17
   1   4   5    0.59    0.28
   1   4   5    0.38    0.21
   2  -4   5  159.76    3.27
   2  -4   5  158.11    3.43
   2  -4   5  162.12    2.87
   2   4   5  160.20    3.40
   2   4   5  154.59    3.34
   3  -4   5   24.79    1.22
   3  -4   5   27.72    1.17
   3  -4   5   23.74    1.31
   3   4   5   22.81    1.24
   4  -4   5  249.33    4.25
   4  -4   5  252.53    4.26
   4  -4   5  245.47    4.73
   4   4   5  254.01    4.50
   4   4   5  240.73    4.59
   5  -4   5    4.33    0.74
   5  -4   5    2.70    0.55
   5   4   5    4.21    0.71
   6  -4   5    5.12    0.84
   6  -4   5    3.71    0.66
   6   4   5    5.20    0.81
   7  -4   5    2.88    0.63
   7  -4   5    5.84    0.95
   7   4   5    4.72    0.80
   8  -4   5    2.77    0.65
   8  -4   5    3.63    0.79
   8   4   5    3.05    0.69
   9  -4   5    4.48    0.93
   9  -4   5    4.26    0.86
   9   4   5    3.44    0.80
  10  -4   5    1.76    0.64
  10  -4   5    1.72    0.62
  10   4   5    1.77    0.65
  11  -4   5   -0.25    0.45
  11  -4   5   -0.34    0.42
  11   4   5    0.36    0.44
  14  -5  -5    3.08    0.86
 -14   5   5    2.99    0.84
  13  -5  -5    4.38    0.93
 -13   5   5    2.48    0.72
  12  -5  -5    3.13    0.79
 -12   5   5    3.21    0.78
  11  -5  -5    0.73    0.46
 -11   5   5    0.70    0.36
  10  -5  -5    2.53    0.64
 -10   5   5    2.47    0.66
   9  -5  -5   -0.02    0.26
  -9  -5   5   -0.23    0.20
  -9   5   5   -0.11    0.21
   8  -5  -5   54.90    2.25
  -8  -5   5   58.17    2.14
  -8   5   5   58.18    2.05
  -8   5   5   56.42    2.26
   7  -5  -5   89.51    2.77
  -7  -5   5   84.60    2.60
  -7   5   5   89.26    2.77
  -7   5   5   88.46    2.56
  -6  -5   5    1.36    0.45
   6  -5  -5    0.19    0.25
  -6   5   5    0.91    0.36
  -6   5   5    0.31    0.29
  -5  -5   5    8.85    0.99
   5  -5  -5    7.98    0.93
   5  -5  -5   10.58    1.08
  -5   5   5    9.39    1.03
  -5   5   5    9.04    0.99
  -4  -5   5   17.49    1.14
   4  -5  -5   15.65    1.07
   4  -5  -5   18.69    1.15
  -4   5   5   16.89    1.11
  -4   5   5   18.45    1.15
   3  -5  -5    4.00    0.65
   3  -5  -5    4.90    0.72
  -3  -5   5    4.24    0.69
  -3   5   5    4.19    0.67
  -3   5   5    3.21    0.60
   2  -5  -5   88.25    2.56
  -2  -5   5   84.02    2.52
  -2  -5   5   88.00    2.50
  -2   5   5   84.95    2.53
  -2   5   5   87.54    2.45
  -1  -5   5  189.90    3.95
  -1  -5   5  195.91    3.87
   1  -5  -5  192.35    3.98
  -1   5   5  190.53    3.79
  -1   5   5  196.22    4.02
   0  -5  -5   70.67    2.30
   0  -5   5   66.28    2.21
   0  -5   5   67.73    2.17
   0   5   5   72.25    2.33
   0   5   5   68.39    2.17
  -1  -5  -5   74.87    2.40
   1  -5   5   66.61    2.22
   1  -5   5   70.29    2.28
   1   5   5   71.91    2.34
   1   5   5   73.23    2.28
   2  -5   5    8.42    0.95
   2  -5   5   10.15    0.72
  -2  -5  -5   11.92    0.96
   2  -5   5   12.77    0.97
  -2   5  -5   12.43    0.78
   2   5   5   10.65    1.06
   2   5   5    9.36    1.01
   3  -5   5  105.02    2.82
   3  -5   5  105.13    2.99
   3  -5   5  106.36    2.53
  -3  -5  -5  106.30    2.94
   3   5   5  108.39    2.95
  -3   5  -5  108.58    2.60
   3   5   5  106.57    2.95
   4  -5   5    2.54    0.55
   4  -5   5    2.84    0.61
   4  -5   5    3.71    0.61
   4   5   5    2.25    0.52
   4   5   5    2.50    0.55
   5  -5   5   12.50    1.34
   5  -5   5   11.67    1.10
   5   5   5   10.56    1.17
   5   5   5   13.04    1.04
   6  -5   5   14.57    1.13
   6  -5   5   15.72    1.26
   6   5   5   15.04    1.46
   7  -5   5   32.44    1.88
   7  -5   5   30.20    1.68
   7   5   5   34.10    1.87
   8  -5   5    0.45    0.35
   8  -5   5    0.42    0.43
   8   5   5   -0.27    0.24
   9  -5   5   52.58    2.60
   9  -5   5   57.47    2.56
   9   5   5   50.87    2.49
  10  -5   5    1.52    0.63
  10  -5   5    0.64    0.45
  10   5   5    0.17    0.41
  11  -5   5    1.50    0.73
  11  -5   5    3.29    0.88
  11   5   5    1.09    0.56
  13  -6  -5   15.24    1.81
 -13   6   5   14.14    1.77
  12  -6  -5    1.66    0.62
 -12   6   5    2.39    0.80
  11  -6  -5   31.42    1.99
 -11   6   5   35.09    2.12
  10  -6  -5   29.38    1.88
 -10   6   5   26.87    1.77
   9  -6  -5   -0.18    0.26
  -9  -6   5    0.19    0.32
  -9   6   5    0.75    0.40
  -8  -6   5    1.56    0.51
   8  -6  -5    2.59    0.66
  -8   6   5    2.29    0.57
  -8   6   5    2.45    0.61
  -7  -6   5   16.48    1.24
   7  -6  -5   15.10    1.43
  -7   6   5   15.88    1.23
  -7   6   5   15.64    1.19
  -6  -6   5   20.28    1.36
   6  -6  -5   20.80    1.34
   6  -6  -5   22.04    1.41
  -6   6   5   20.08    1.34
  -6   6   5   21.27    1.38
   5  -6  -5    4.06    0.78
  -5  -6   5    3.69    0.71
   5  -6  -5    3.48    0.69
  -5   6   5    2.97    0.63
  -5   6   5    3.86    0.70
  -4  -6   5   79.35    2.67
   4  -6  -5   79.96    2.61
   4  -6  -5   75.25    2.56
  -4   6   5   79.34    2.56
  -4   6   5   74.26    2.56
  -3  -6   5    2.58    0.62
   3  -6  -5    1.30    0.44
  -3   6   5    2.68    0.66
  -3   6   5    1.61    0.48
   2  -6  -5   59.08    2.27
  -2  -6   5   60.69    2.31
  -2   6   5   56.27    2.09
  -2   6   5   62.60    2.31
   1  -6  -5   20.00    1.32
  -1  -6   5   20.50    1.34
  -1  -6   5   20.63    1.26
  -1   6   5   18.78    1.20
  -1   6   5   17.13    1.22
   0  -6   5    3.21    0.66
   0  -6  -5    2.42    0.58
   0  -6   5    3.18    0.63
   0   6   5    3.09    0.67
   0   6   5    4.53    0.76
  -1  -6  -5   19.11    1.31
   1  -6   5   17.27    1.19
   1  -6   5   20.33    1.32
   1   6   5   19.32    1.24
   1   6   5   18.25    1.29
   2  -6   5    0.85    0.40
   2  -6   5    0.51    0.32
  -2  -6  -5    2.48    0.61
   2   6   5    1.98    0.59
   2   6   5    1.17    0.43
   3  -6   5   20.27    1.34
  -3  -6  -5   19.41    1.35
   3  -6   5   23.95    1.45
   3   6   5   20.82    1.40
   3   6   5   23.61    1.43
  -4  -6  -5   16.29    1.27
   4  -6   5   18.16    1.32
   4  -6   5   15.53    1.18
   4   6   5   15.02    1.45
   4   6   5   16.26    1.26
   5  -6   5    0.34    0.34
   5   6   5    0.09    0.31
   5   6   5   -0.16    0.22
   6  -6   5   22.71    1.58
   6   6   5   19.64    1.43
   6   6   5   24.53    1.55
   7  -6   5    7.97    1.03
   7  -6   5    9.77    1.36
   7   6   5    7.14    1.09
   8  -6   5    2.22    0.62
   8  -6   5    2.76    0.75
   8   6   5    1.60    0.56
   9  -6   5    1.29    0.59
   9  -6   5    1.32    0.60
   9   6   5    1.07    0.50
  10  -6   5   42.06    2.35
  10  -6   5   43.86    2.56
  10   6   5   41.61    2.46
  12  -7  -5    0.17    0.46
 -12   7   5    0.39    0.42
  11  -7  -5    1.15    0.59
 -11   7   5    1.53    0.64
  10  -7  -5    0.85    0.44
 -10   7   5    0.94    0.51
  -9  -7   5   20.12    1.54
   9  -7  -5   18.14    1.77
  -9   7   5   17.47    1.76
   8  -7  -5    9.50    1.30
  -8  -7   5    8.68    1.19
  -8   7   5    9.14    1.24
  -8   7   5    6.48    1.03
  -7  -7   5    0.38    0.40
   7  -7  -5    0.41    0.37
  -7   7   5    0.73    0.43
  -7   7   5    0.95    0.45
   6  -7  -5   13.20    1.40
   6  -7  -5   10.56    1.26
  -6  -7   5   10.66    1.30
  -6   7   5   11.59    1.34
  -6   7   5   10.73    1.29
  -5  -7   5   10.94    1.28
   5  -7  -5   14.53    1.47
   5  -7  -5   12.22    1.32
  -5   7   5   12.81    1.36
  -5   7   5   14.54    1.48
   4  -7  -5   23.15    1.53
  -4  -7   5   22.06    1.52
  -4   7   5   21.53    1.49
  -4   7   5   26.55    1.58
   3  -7  -5    2.28    0.64
  -3  -7   5    1.34    0.50
  -3   7   5    1.61    0.50
  -3   7   5    1.93    0.59
   2  -7  -5    2.17    0.61
  -2  -7   5    1.34    0.50
  -2   7   5    1.23    0.45
  -2   7   5    1.50    0.47
  -1  -7   5    1.06    0.43
  -1  -7   5    2.11    0.63
   1  -7  -5    0.95    0.44
  -1   7   5    1.87    0.52
  -1   7   5    1.12    0.44
   0  -7   5   30.32    1.64
   0  -7   5   31.75    1.80
   0  -7  -5   32.90    1.84
   0   7   5   29.33    1.62
   0   7   5   30.87    1.79
   1  -7   5   13.10    1.38
   1  -7   5   14.26    1.15
  -1  -7  -5   17.16    1.37
   1   7   5   13.79    1.48
   1   7   5   12.80    1.27
  -2  -7  -5    1.91    0.55
   2  -7   5    2.60    0.62
   2  -7   5    2.61    0.64
   2   7   5    3.36    0.73
   2   7   5    2.76    0.70
  -3  -7  -5    0.29    0.39
   3  -7   5    0.13    0.39
   3  -7   5   -0.13    0.26
   3   7   5    0.89    0.43
   3   7   5   -0.04    0.27
  -4  -7  -5    0.66    0.42
   4  -7   5    0.21    0.31
   4  -7   5   -0.01    0.30
   4   7   5    0.27    0.38
   4   7   5    0.43    0.37
   5  -7   5    0.55    0.40
   5   7   5    0.75    0.40
   5   7   5    1.43    0.59
   6  -7   5    2.68    0.74
   6   7   5    2.47    0.68
   6   7   5    2.75    0.70
   7  -7   5   10.93    1.43
   7   7   5    9.96    1.33
   8  -7   5   13.26    1.62
   8   7   5   10.60    1.41
  10  -8  -5    0.60    0.52
 -10   8   5    0.01    0.41
  -9  -8   5   22.62    1.74
   9  -8  -5   16.61    1.77
  -9   8   5   20.91    2.04
   8  -8  -5    1.16    0.57
  -8  -8   5    0.96    0.48
  -8   8   5    0.78    0.45
   7  -8  -5   -0.12    0.33
   7  -8  -5   -0.44    0.31
  -7  -8   5   -0.36    0.27
  -7   8   5   -0.02    0.28
  -7   8   5    0.08    0.39
   6  -8  -5    9.66    1.30
  -6  -8   5   10.18    1.36
   6  -8  -5    8.43    1.23
  -6   8   5   10.06    1.28
  -6   8   5   12.00    1.47
  -5  -8   5    1.14    0.54
   5  -8  -5    0.13    0.40
  -5   8   5    0.90    0.51
  -5   8   5    0.75    0.46
   4  -8  -5    7.40    1.19
  -4  -8   5    7.40    1.20
  -4   8   5    8.47    1.19
  -4   8   5    7.45    1.23
   3  -8  -5   16.93    1.69
  -3  -8   5   17.72    1.82
  -3   8   5   18.57    1.80
  -3   8   5   15.39    1.54
  -2  -8   5   30.20    1.91
   2  -8  -5   30.50    1.93
  -2   8   5   30.53    1.76
  -2   8   5   29.36    1.88
  -1  -8   5    0.58    0.40
   1  -8  -5    0.44    0.38
  -1   8   5   -0.02    0.28
  -1   8   5    0.44    0.42
   0  -8   5   22.15    1.64
   0  -8   5   28.20    1.71
   0  -8  -5   22.07    1.65
   0   8   5   24.34    1.60
   0   8   5   24.88    1.73
   1  -8   5    7.29    1.17
  -1  -8  -5   10.79    1.40
   1  -8   5    7.47    1.04
   1   8   5   11.32    1.33
   1   8   5   11.10    1.41
  -2  -8  -5   17.64    1.82
   2  -8   5   18.27    2.39
   2  -8   5   19.26    1.53
   2   8   5   20.25    1.47
   2   8   5   16.68    1.71
   3  -8   5    0.26    0.43
  -3  -8  -5   -0.19    0.26
   3   8   5    0.20    0.32
   3   8   5    0.14    0.36
   4  -8   5    0.60    0.47
  -4  -8  -5    0.18    0.41
   4   8   5    1.23    0.57
   4   8   5    1.18    0.53
   5   8   5    2.50    0.76
   5   8   5    5.41    0.98
   6   8   5    5.82    1.13
   6   8   5    4.76    0.97
   7   8   5    0.40    0.42
  -7  -9   5    0.30    0.43
   7  -9  -5   -0.02    0.46
  -7   9   5    0.10    0.43
  -7   9   5    0.06    0.45
  -6  -9   5   45.47    2.61
   6  -9  -5   49.16    2.65
  -6   9   5   46.41    2.57
  -6   9   5   50.32    2.59
   5  -9  -5   23.26    1.86
  -5  -9   5   25.68    1.96
  -5   9   5   26.29    1.95
  -5   9   5   26.79    1.84
   4  -9  -5   14.51    1.74
  -4  -9   5   16.25    1.83
  -4   9   5   10.84    1.48
  -4   9   5   16.35    1.67
  -3  -9   5    0.13    0.49
   3  -9  -5    1.08    0.53
  -3   9   5    1.70    0.61
  -3   9   5    2.15    0.71
  -2  -9   5   -0.02    0.32
   2  -9  -5    0.28    0.36
  -2   9   5    0.16    0.41
  -2   9   5    0.29    0.42
   1  -9  -5    8.18    1.29
  -1  -9   5    6.43    1.13
  -1   9   5    7.61    1.25
  -1   9   5    7.19    1.13
   0  -9  -5    0.17    0.38
   0  -9   5    0.10    0.49
   0   9   5   -0.04    0.32
   0   9   5    0.93    0.52
  -1  -9  -5   15.61    1.88
   1  -9   5   13.96    1.70
   1   9   5    9.34    1.36
   1   9   5   13.74    1.54
  -2  -9  -5    1.28    0.63
   2  -9   5    2.41    0.80
   2   9   5    1.79    0.67
   2   9   5    1.78    0.68
   3  -9   5   13.55    1.68
  -3  -9  -5   11.83    1.56
   3   9   5   13.34    1.65
   3   9   5   13.99    1.58
  -4  -9  -5   10.90    1.67
   4  -9   5    6.74    1.22
   4   9   5    5.95    1.13
   4   9   5    8.56    1.24
  16   0  -6   36.26    2.17
  15   0  -6   53.17    2.50
  14   0  -6    0.23    0.34
  13   0  -6    9.02    1.09
  12   0  -6    7.64    0.94
  11   0  -6  126.71    3.15
  10   0  -6    5.13    0.71
   9   0  -6    1.21    0.36
   8   0  -6   37.20    1.34
   7   0  -6  367.86    4.84
   6   0  -6    2.27    0.36
  -6   0   6    2.20    0.34
   5   0  -6   44.91    1.18
  -5   0   6   45.82    1.18
   4   0  -6    6.89    0.42
  -4   0   6    6.98    0.42
  -3   0   6    3.75    0.44
  -3   0   6    3.48    0.36
  -2   0   6    0.11    0.10
  -2   0   6    0.08    0.12
  -1   0   6  103.23    1.95
  -1   0   6  103.78    1.82
   0   0   6   10.56    0.58
   0   0   6    9.48    0.59
   1   0   6   11.69    0.65
   1   0   6   13.44    0.74
   2   0   6   10.50    0.66
   2   0   6    9.60    0.67
   3   0   6    3.92    0.57
   3   0   6    3.79    0.54
   4   0   6   34.59    1.42
   4   0   6   36.15    1.49
   5   0   6   91.70    2.57
   5   0   6   93.60    2.53
   6   0   6    8.66    0.96
   6   0   6    7.29    0.90
   7   0   6   22.19    1.41
   7   0   6   20.81    1.31
   8   0   6   17.37    1.28
   8   0   6   16.83    1.30
   9   0   6   34.29    1.89
   9   0   6   31.71    1.88
  10   0   6  100.50    3.55
  10   0   6  100.23    3.43
  11   0   6    0.35    0.37
  11   0   6    1.39    0.59
  12   0   6    9.21    1.45
  12   0   6    8.90    1.43
  16  -1  -6    0.06    0.48
  16   1  -6    0.10    0.43
  15  -1  -6    4.86    0.94
  15   1  -6    4.25    0.86
  14  -1  -6   20.81    1.53
  14   1  -6   23.51    1.55
  13  -1  -6    0.72    0.39
  13   1  -6    0.32    0.31
  12  -1  -6   50.91    2.14
  12   1  -6   55.23    2.10
  11  -1  -6   37.71    1.72
  11   1  -6   39.05    1.64
  10  -1  -6   45.70    1.80
  10   1  -6   46.41    1.67
   9  -1  -6    6.69    0.78
   9   1  -6    7.32    0.73
   8  -1  -6    2.49    0.47
  -8   1   6    2.36    0.46
   8   1  -6    2.82    0.43
   7  -1  -6  117.34    2.53
  -7   1   6  118.33    2.52
   7   1  -6  124.60    2.26
   6  -1  -6   71.53    1.79
  -6   1   6   72.94    1.80
   6   1  -6   74.07    1.50
  -5  -1   6   25.82    0.86
   5  -1  -6   24.85    0.97
   5   1  -6   25.30    0.74
  -5   1   6   26.31    0.99
   4  -1  -6   32.24    1.05
  -4   1   6   32.85    1.06
  -3  -1   6   62.91    1.57
   3  -1  -6   58.47    1.42
  -3   1   6   59.52    1.45
  -2  -1   6    1.35    0.30
  -2   1   6    0.61    0.20
  -1  -1   6   87.81    1.93
  -1   1   6   89.71    1.61
  -1   1   6   88.07    1.84
   0  -1   6    4.21    0.52
   0  -1   6    3.92    0.40
   0   1   6    3.69    0.42
   0   1   6    3.09    0.43
   1  -1   6   71.61    1.87
   1  -1   6   70.33    1.59
   1   1   6   69.71    1.66
   1   1   6   72.63    1.81
   1   1   6   67.14    1.74
   2  -1   6   77.95    1.84
   2  -1   6   77.08    2.06
   2   1   6   76.59    1.88
   2   1   6   75.65    1.95
   2   1   6   74.71    1.85
   3  -1   6   75.04    1.93
   3  -1   6   76.88    2.17
   3   1   6   71.72    1.95
   3   1   6   76.73    1.87
   3   1   6   75.78    2.06
   4  -1   6    0.30    0.23
   4  -1   6    0.65    0.26
   4   1   6    0.39    0.24
   4   1   6    0.30    0.19
   4   1   6    0.08    0.19
   5  -1   6   16.44    1.02
   5  -1   6   14.66    1.03
   5   1   6   17.32    1.10
   5   1   6   15.18    1.02
   6  -1   6   73.73    2.48
   6  -1   6   72.72    2.34
   6   1   6   72.30    2.40
   6   1   6   71.90    2.40
   7  -1   6   22.75    1.44
   7  -1   6   23.45    1.41
   7   1   6   23.02    1.42
   7   1   6   24.63    1.44
   8  -1   6   28.59    1.71
   8  -1   6   29.80    1.67
   8   1   6   29.12    1.66
   8   1   6   30.68    1.75
   9  -1   6    0.74    0.45
   9  -1   6    0.19    0.34
   9   1   6    0.00    0.25
   9   1   6    0.12    0.28
  10  -1   6    1.01    0.48
  10  -1   6    2.30    0.70
  10   1   6    2.47    0.66
  10   1   6    1.50    0.60
  11  -1   6    5.69    1.12
  11  -1   6    6.11    1.11
  11   1   6    6.21    1.10
  11   1   6    3.90    0.92
  12  -1   6   16.98    1.99
  12  -1   6   14.81    1.75
  12   1   6   19.74    2.05
  12   1   6   13.40    1.71
  16  -2  -6    1.55    0.66
  15  -2  -6    1.94    0.73
  14  -2  -6   18.77    1.81
  13  -2  -6   37.83    1.99
  12  -2  -6   12.36    1.34
  12   2  -6   13.09    1.20
  11  -2  -6   14.33    1.34
  11   2  -6   16.03    1.03
  10  -2  -6    9.17    1.01
 -10   2   6    7.23    0.92
  10   2  -6    9.90    0.89
   9  -2  -6    0.74    0.32
   9   2  -6    0.36    0.23
  -9   2   6    0.32    0.28
   8  -2  -6   19.95    1.12
  -8  -2   6   19.04    0.96
  -8   2   6   20.17    1.12
  -8   2   6   21.88    0.98
   8   2  -6   19.61    0.87
   7  -2  -6   30.40    1.30
  -7  -2   6   29.52    1.19
   7   2  -6   29.98    0.96
  -7   2   6   30.27    1.30
  -7   2   6   32.13    1.19
  -6  -2   6    0.94    0.29
   6  -2  -6    0.73    0.27
  -6   2   6    0.90    0.29
  -6   2   6    1.20    0.31
   6   2  -6    0.92    0.19
   5  -2  -6   55.21    1.63
  -5  -2   6   55.99    1.63
  -5   2   6   55.22    1.62
  -5   2   6   54.27    1.58
  -4  -2   6    0.30    0.20
   4  -2  -6    0.26    0.19
  -4   2   6    0.32    0.21
  -4   2   6    0.49    0.22
   3  -2  -6  175.31    3.02
  -3  -2   6  178.86    3.17
  -3  -2   6  177.46    3.18
  -3   2   6  182.81    3.15
  -3   2   6  183.37    3.07
  -2  -2   6   92.17    2.12
  -2  -2   6   92.78    2.15
  -2   2   6   92.06    2.03
  -2   2   6   92.70    2.14
  -1  -2   6   86.08    2.07
  -1  -2   6   86.52    2.06
  -1   2   6   85.79    2.07
  -1   2   6   86.30    2.00
   0  -2   6    8.26    0.63
   0  -2   6    9.85    0.71
   0  -2   6    9.13    0.47
   0   2   6    7.76    0.61
   0   2   6    8.99    0.48
   0   2   6    9.51    0.66
   1  -2   6   37.26    1.09
   1  -2   6   34.78    1.38
   1  -2   6   35.85    1.30
   1   2   6   36.89    1.11
   1   2   6   34.12    1.29
   1   2   6   36.16    1.32
   2  -2   6   16.77    0.99
   2  -2   6   17.88    0.90
   2  -2   6   16.99    0.81
   2   2   6   17.47    0.93
   2   2   6   17.17    0.84
   2   2   6   17.79    0.97
   3  -2   6   45.50    1.46
   3  -2   6   44.93    1.73
   3  -2   6   46.23    1.48
   3   2   6   44.11    1.64
   3   2   6   45.40    1.51
   4  -2   6    4.10    0.67
   4  -2   6    3.31    0.50
   4  -2   6    3.48    0.55
   4   2   6    4.24    0.66
   4   2   6    3.43    0.57
   4   2   6    4.03    0.57
   5  -2   6   10.72    0.83
   5  -2   6   11.68    1.16
   5   2   6   13.69    0.85
   5   2   6   11.64    1.11
   5   2   6   13.05    0.94
   6  -2   6    8.16    1.02
   6  -2   6    7.26    0.89
   6   2   6    6.48    0.87
   6   2   6    7.23    0.93
   7  -2   6   32.69    1.66
   7  -2   6   32.01    1.75
   7   2   6   30.29    1.64
   7   2   6   30.25    1.65
   8  -2   6   39.42    2.06
   8  -2   6   39.53    1.92
   8   2   6   36.65    1.93
   8   2   6   42.40    2.05
   9  -2   6    4.85    0.93
   9  -2   6    3.33    0.78
   9   2   6    6.04    0.97
   9   2   6    4.81    0.92
  10  -2   6    2.02    0.62
  10  -2   6    0.85    0.53
  10   2   6    2.63    0.70
  10   2   6    2.02    0.67
  11  -2   6    7.65    1.36
  11  -2   6   10.35    1.37
  11   2   6    8.05    1.27
  11   2   6    8.80    1.37
  12  -2   6   -0.23    0.40
  12  -2   6   -0.26    0.41
  12   2   6    0.35    0.46
  12   2   6    0.43    0.47
  16  -3  -6   22.14    2.20
 -16   3   6   17.79    2.00
  15  -3  -6    0.40    0.43
 -15   3   6   -0.27    0.33
  14  -3  -6  128.49    4.07
 -14   3   6  132.43    4.19
  13  -3  -6   26.59    1.77
 -13   3   6   21.20    1.60
  12  -3  -6    6.15    0.96
 -12   3   6    4.83    0.86
  11  -3  -6    7.09    1.01
 -11   3   6    7.27    1.05
  10  -3  -6   87.63    2.79
 -10   3   6   80.62    2.68
   9  -3  -6    2.40    0.55
  -9  -3   6    2.19    0.45
  -9   3   6    1.76    0.49
  -8  -3   6   17.30    1.00
   8  -3  -6   19.77    1.18
  -8   3   6   20.22    1.19
  -8   3   6   19.79    1.01
   7  -3  -6   31.62    1.44
  -7  -3   6   35.88    1.41
  -7   3   6   32.40    1.45
  -7   3   6   31.65    1.29
  -6  -3   6   68.54    1.99
   6  -3  -6   69.30    2.06
  -6   3   6   69.56    2.06
  -6   3   6   67.11    1.89
  -5  -3   6   15.90    0.94
   5  -3  -6   14.91    0.91
  -5   3   6   15.71    0.90
  -5   3   6   17.12    0.97
   4  -3  -6    8.43    0.82
  -4  -3   6    9.00    0.87
  -4   3   6    8.82    0.69
  -4   3   6    7.63    0.77
   3  -3  -6    2.86    0.47
  -3  -3   6    4.69    0.63
  -3  -3   6    3.92    0.58
  -3   3   6    3.90    0.58
  -3   3   6    2.96    0.48
  -2  -3   6   29.76    1.26
  -2  -3   6   31.07    1.29
  -2   3   6   32.78    1.33
  -2   3   6   30.60    1.24
  -1  -3   6   64.38    1.88
  -1  -3   6   64.81    1.91
  -1   3   6   64.66    1.86
  -1   3   6   60.25    1.84
   0  -3   6   49.48    1.68
   0  -3   6   51.86    1.16
   0  -3   6   51.98    1.68
   0   3   6   49.43    1.67
   0   3   6   52.19    1.70
   1  -3   6   25.44    1.16
   1  -3   6   25.26    0.91
   1  -3   6   25.35    1.23
   1   3   6   24.45    1.18
   1   3   6   23.87    1.16
   1   3   6   24.38    0.89
   2  -3   6   53.36    1.50
   2  -3   6   54.14    1.73
   2  -3   6   52.43    1.88
   2   3   6   53.86    1.79
   2   3   6   53.61    1.49
   2   3   6   54.03    1.83
   3  -3   6   50.35    1.58
   3  -3   6   47.83    1.84
   3   3   6   48.37    1.68
   3   3   6   48.93    1.81
   4  -3   6    8.00    0.83
   4  -3   6    6.05    0.70
   4  -3   6    5.17    0.78
   4   3   6    6.22    0.82
   5  -3   6    7.39    0.85
   5  -3   6    6.00    0.87
   5   3   6    7.04    0.80
   5   3   6    6.17    0.86
   6  -3   6   58.17    2.34
   6  -3   6   61.70    2.18
   6   3   6   60.81    2.32
   7  -3   6   81.85    2.92
   7  -3   6   85.51    2.75
   7   3   6   82.67    2.84
   8  -3   6    5.35    0.88
   8  -3   6    7.61    1.11
   8   3   6    9.74    1.21
   8   3   6    5.97    0.99
   9  -3   6   19.15    1.48
   9  -3   6   21.65    1.65
   9   3   6   19.31    1.50
   9   3   6   20.31    1.86
  10  -3   6   17.34    1.90
  10  -3   6   14.79    1.60
  10   3   6   15.65    1.64
  10   3   6   17.16    1.77
  11  -3   6   39.50    2.45
  11  -3   6   41.57    2.33
  11   3   6   40.84    2.35
  11   3   6   36.38    2.25
  15  -4  -6   26.37    1.99
 -15   4   6   23.06    2.22
  14  -4  -6    3.96    0.93
 -14   4   6    4.13    0.99
  13  -4  -6   11.92    1.49
 -13   4   6   10.68    1.40
  12  -4  -6    0.27    0.31
 -12   4   6    0.50    0.37
  11  -4  -6   33.66    1.86
 -11   4   6   34.94    1.89
  10  -4  -6    1.88    0.55
 -10   4   6    1.67    0.50
  -9  -4   6   41.90    1.71
   9  -4  -6   45.32    1.99
  -9   4   6   44.86    1.99
   8  -4  -6   -0.07    0.18
  -8  -4   6   -0.07    0.19
  -8   4   6    0.05    0.20
  -8   4   6   -0.08    0.17
   7  -4  -6   26.98    1.42
  -7  -4   6   25.20    1.31
  -7   4   6   26.74    1.30
  -7   4   6   25.77    1.38
   6  -4  -6   21.47    1.22
  -6  -4   6   20.80    1.16
  -6   4   6   20.23    1.21
  -6   4   6   22.88    1.19
  -5  -4   6    0.41    0.24
   5  -4  -6    0.56    0.31
  -5   4   6    0.31    0.25
  -5   4   6   -0.02    0.17
   4  -4  -6   10.42    1.01
  -4  -4   6    7.23    0.83
  -4   4   6    7.83    0.86
  -4   4   6    9.38    0.95
  -3  -4   6   56.66    1.91
  -3  -4   6   57.55    1.94
  -3   4   6   54.48    1.84
  -3   4   6   53.15    1.85
  -2  -4   6    0.23    0.19
  -2  -4   6    0.04    0.16
  -2   4   6   -0.05    0.15
  -2   4   6    0.39    0.24
  -1  -4   6   21.26    1.16
  -1  -4   6   22.70    1.19
  -1   4   6   20.80    1.15
  -1   4   6   19.95    1.10
   0  -4   6    7.84    0.90
   0  -4   6    9.90    1.00
   0   4   6    8.35    0.87
   0   4   6    8.74    0.92
   1  -4   6  104.32    2.06
   1  -4   6  106.85    2.66
   1  -4   6  107.14    2.78
   1   4   6  102.07    2.71
   1   4   6  100.86    2.66
   2  -4   6    4.72    0.56
   2  -4   6    5.12    0.71
   2  -4   6    5.45    0.80
   2   4   6    5.60    0.77
   2   4   6    3.87    0.64
   3  -4   6   64.80    2.02
   3  -4   6   62.44    1.84
   3  -4   6   64.28    2.26
   3   4   6   60.10    2.06
   3   4   6   65.23    2.22
   4  -4   6   37.25    1.56
   4  -4   6   40.11    1.58
   4  -4   6   39.98    1.86
   4   4   6   38.26    1.66
   4   4   6   36.08    1.72
   5  -4   6    0.12    0.25
   5  -4   6    0.37    0.27
   5   4   6   -0.03    0.20
   5   4   6    0.37    0.26
   6  -4   6    2.40    0.58
   6  -4   6    2.78    0.70
   6   4   6    1.59    0.51
   7  -4   6    5.30    0.93
   7  -4   6    7.13    0.98
   7   4   6    4.76    0.86
   8  -4   6    2.96    0.76
   8  -4   6    3.48    0.74
   8   4   6    3.33    0.77
   9  -4   6    3.82    0.93
   9  -4   6    5.56    0.96
   9   4   6    5.65    1.03
  10  -4   6    6.26    1.14
  10  -4   6    7.38    1.20
  10   4   6    7.32    1.21
  10   4   6    6.20    1.09
  11  -4   6   13.65    1.84
  11  -4   6    9.12    1.40
  11   4   6    8.81    1.37
  11   4   6    9.71    1.43
  14  -5  -6    1.04    0.58
 -14   5   6    2.51    0.84
  13  -5  -6   13.87    1.67
 -13   5   6   10.93    1.42
  12  -5  -6   -0.23    0.37
 -12   5   6   -0.18    0.32
  11  -5  -6    1.96    0.58
 -11   5   6    1.70    0.59
  10  -5  -6    1.31    0.45
 -10   5   6    1.88    0.62
  -9  -5   6    8.72    1.03
   9  -5  -6    5.88    0.93
  -9   5   6    6.94    1.01
  -8  -5   6    0.29    0.30
   8  -5  -6    0.82    0.40
  -8   5   6    0.51    0.29
  -8   5   6    1.17    0.50
  -7  -5   6    2.48    0.57
   7  -5  -6    2.22    0.57
  -7   5   6    1.99    0.52
  -7   5   6    1.50    0.48
  -6  -5   6    2.90    0.63
   6  -5  -6    2.85    0.61
  -6   5   6    3.65    0.66
  -6   5   6    2.77    0.58
  -5  -5   6    6.25    0.83
   5  -5  -6    4.98    0.76
  -5   5   6    4.71    0.74
  -5   5   6    5.34    0.79
   4  -5  -6    1.72    0.47
  -4  -5   6    1.85    0.49
  -4   5   6    2.40    0.56
  -4   5   6    2.17    0.53
  -3  -5   6  153.42    3.60
  -3   5   6  159.07    3.55
  -3   5   6  151.56    3.58
  -2  -5   6   17.49    1.17
  -2  -5   6   21.95    1.25
  -2   5   6   19.73    1.23
  -2   5   6   19.33    1.16
  -1  -5   6   14.56    1.08
  -1  -5   6   13.97    1.03
  -1   5   6   14.45    1.07
  -1   5   6   15.14    1.05
   0  -5   6    8.38    0.96
   0  -5   6   11.68    1.15
   0   5   6   11.36    1.15
   0   5   6    9.90    1.01
   1  -5   6   22.17    1.31
   1  -5   6   27.92    1.46
   1   5   6   22.68    1.35
   1   5   6   21.82    1.29
   2  -5   6   -0.14    0.19
   2  -5   6    0.00    0.19
   2   5   6   -0.03    0.22
   2   5   6    0.50    0.32
   3  -5   6   59.87    2.15
   3  -5   6   63.02    2.38
   3   5   6   61.25    2.26
   3   5   6   63.63    2.32
   4  -5   6   15.69    1.04
   4  -5   6   17.31    1.27
   4   5   6   14.17    1.12
   4   5   6   15.34    1.18
   5  -5   6   20.74    1.26
   5  -5   6   21.07    1.48
   5   5   6   21.00    1.45
   5   5   6   20.98    1.35
   6  -5   6   10.11    1.32
   6  -5   6   10.70    1.15
   6   5   6    7.92    1.09
   7  -5   6    6.64    1.07
   7  -5   6   10.24    1.18
   7   5   6   11.37    1.37
   8  -5   6    1.73    0.58
   8  -5   6    2.99    0.80
   8   5   6    1.62    0.58
   9  -5   6    2.27    0.71
   9  -5   6    2.20    0.68
   9   5   6    1.94    0.69
  10  -5   6    1.53    0.64
  10  -5   6    2.62    0.79
  10   5   6    0.80    0.61
  13  -6  -6    0.71    0.48
 -13   6   6    0.49    0.54
  12  -6  -6   -0.16    0.35
 -12   6   6   -0.74    0.26
  11  -6  -6    1.26    0.65
 -11   6   6    0.01    0.37
  10  -6  -6    1.99    0.70
 -10   6   6    1.16    0.47
  -9  -6   6   16.49    1.30
   9  -6  -6   15.11    1.57
  -9   6   6   14.12    1.49
  -8  -6   6   30.48    1.72
   8  -6  -6   31.83    1.82
  -8   6   6   32.64    1.74
  -8   6   6   31.96    1.81
   7  -6  -6   94.04    3.06
  -7  -6   6   96.90    3.07
  -7   6   6   89.08    2.98
  -7   6   6   90.82    2.89
   6  -6  -6   19.00    1.34
  -6  -6   6   19.18    1.33
  -6   6   6   21.56    1.42
  -6   6   6   17.83    1.29
  -5  -6   6   49.25    2.13
   5  -6  -6   49.74    2.11
  -5   6   6   46.68    2.06
  -5   6   6   49.46    2.10
  -4  -6   6    0.78    0.38
  -4   6   6    0.81    0.37
  -4   6   6    0.66    0.35
  -3  -6   6    3.89    0.75
   3  -6  -6    2.37    0.62
  -3   6   6    2.55    0.62
  -3   6   6    2.41    0.59
  -2  -6   6    6.34    0.96
   2  -6  -6    3.17    0.67
  -2  -6   6    2.65    0.61
  -2   6   6    3.57    0.65
  -2   6   6    2.63    0.60
   1  -6  -6   13.38    1.34
  -1  -6   6   14.23    1.10
  -1  -6   6   13.88    1.37
  -1   6   6   13.42    1.34
  -1   6   6   13.85    1.32
   0  -6   6    4.15    0.74
   0  -6   6    3.86    0.69
   0  -6  -6    4.42    0.80
   0   6   6    5.90    0.90
   0   6   6    5.22    0.87
   1  -6   6   48.49    2.10
   1  -6   6   46.94    2.05
   1   6   6   50.41    2.10
   1   6   6   49.22    2.16
   2  -6   6   12.36    1.30
   2  -6   6   10.04    1.18
   2   6   6   12.97    1.30
   2   6   6   11.23    1.22
   3  -6   6   -0.05    0.26
   3  -6   6    0.06    0.31
   3   6   6   -0.01    0.23
   3   6   6   -0.19    0.22
   4  -6   6   23.44    1.47
   4  -6   6   21.89    1.52
   4   6   6   25.32    1.58
   4   6   6   23.61    1.53
   5  -6   6    0.35    0.38
   5   6   6   -0.29    0.25
   5   6   6    0.28    0.35
   6  -6   6    0.16    0.34
   6   6   6    1.00    0.52
   6   6   6    0.41    0.38
   7  -6   6    1.99    0.68
   7   6   6    2.39    0.70
   8  -6   6    4.02    0.97
   8   6   6    2.10    0.65
   9  -6   6    2.42    0.80
   9   6   6    1.51    0.64
  12  -7  -6    5.12    1.06
 -12   7   6    3.21    0.93
  11  -7  -6    2.21    0.73
 -11   7   6    2.72    0.82
 -10  -7   6   10.95    2.09
  10  -7  -6    8.13    1.22
 -10   7   6    8.27    1.26
   9  -7  -6    0.57    0.37
  -9  -7   6    0.40    0.38
  -9   7   6    0.18    0.36
   8  -7  -6   58.54    2.62
  -8  -7   6   57.00    2.56
  -8   7   6   60.30    2.54
  -8   7   6   56.87    2.58
  -7  -7   6    1.02    0.45
   7  -7  -6    1.15    0.50
  -7   7   6    1.15    0.53
  -7   7   6    1.81    0.58
   6  -7  -6   19.85    1.45
  -6  -7   6   21.09    1.53
  -6   7   6   21.24    1.51
  -6   7   6   20.95    1.53
  -5  -7   6    0.69    0.50
   5  -7  -6    0.86    0.41
  -5   7   6    0.77    0.43
  -5   7   6    0.33    0.37
  -4  -7   6   84.99    3.05
   4  -7  -6   83.13    2.98
  -4   7   6   79.94    2.95
  -4   7   6   77.83    2.78
   3  -7  -6   12.26    1.41
  -3  -7   6    9.36    1.17
  -3   7   6   10.47    1.29
  -3   7   6   12.98    1.37
   2  -7  -6   54.67    2.42
  -2  -7   6   52.81    2.39
  -2   7   6   57.40    2.32
  -2   7   6   50.04    2.32
  -1  -7   6   23.09    1.50
   1  -7  -6   24.99    1.64
  -1  -7   6   23.30    1.59
  -1   7   6   26.04    1.68
  -1   7   6   25.33    1.54
   0  -7  -6   39.97    2.10
   0  -7   6   38.44    1.92
   0  -7   6   38.99    2.03
   0   7   6   39.38    1.94
   0   7   6   36.80    2.00
   1  -7   6   25.77    1.67
  -1  -7  -6   26.88    1.72
   1  -7   6   25.36    1.57
   1   7   6   28.08    1.76
   1   7   6   28.26    1.66
   2  -7   6   10.42    1.30
   2  -7   6    8.95    1.13
   2   7   6    8.16    1.09
   2   7   6    9.43    1.23
   3  -7   6    8.49    1.18
   3  -7   6    9.65    1.18
   3   7   6   10.27    1.32
   3   7   6   10.24    1.28
   4  -7   6   17.01    1.38
   4  -7   6   18.67    1.77
   4   7   6   16.99    1.60
   4   7   6   18.20    1.47
   5  -7   6   16.90    1.69
   5   7   6   16.54    1.65
   5   7   6   18.29    1.77
   6  -7   6    0.59    0.57
   6   7   6    0.71    0.49
   6   7   6    0.59    0.47
   7  -7   6    0.86    0.54
   7   7   6    0.52    0.45
   8  -7   6    1.11    0.61
   8   7   6    2.19    0.79
 -10  -8   6    0.52    0.57
  10  -8  -6    0.11    0.44
 -10   8   6    0.27    0.45
  -9  -8   6    1.34    0.64
   9  -8  -6    0.94    0.58
  -9   8   6    1.27    0.62
   8  -8  -6    2.73    0.79
  -8  -8   6    3.36    0.85
  -8   8   6    1.26    0.60
  -8   8   6    1.73    0.69
  -7  -8   6    3.00    0.83
   7  -8  -6    3.78    0.91
  -7   8   6    2.74    0.77
  -7   8   6    4.44    0.89
  -6  -8   6   21.39    1.68
   6  -8  -6   19.46    1.83
  -6   8   6   16.42    1.68
  -6   8   6   17.84    1.83
  -5  -8   6   38.01    2.22
  -5   8   6   37.38    2.17
  -5   8   6   34.32    2.01
   4  -8  -6    2.69    0.81
  -4  -8   6    2.69    0.76
  -4   8   6    2.80    0.76
  -4   8   6    2.38    0.67
  -3  -8   6   35.05    2.12
   3  -8  -6   31.97    2.03
  -3   8   6   42.78    2.33
  -3   8   6   40.81    2.09
   2  -8  -6    1.96    0.62
  -2  -8   6    2.77    0.74
  -2   8   6    2.93    0.74
  -2   8   6    2.04    0.62
   1  -8  -6    3.62    0.84
  -1  -8   6    4.56    0.93
  -1   8   6    4.29    0.91
  -1   8   6    4.77    0.90
   0  -8   6    7.74    1.19
   0  -8   6    7.83    1.10
   0  -8  -6    8.54    1.28
   0   8   6    6.90    1.15
   0   8   6    5.42    0.95
   1  -8   6    0.36    0.39
   1  -8   6    0.74    0.46
  -1  -8  -6    0.12    0.32
   1   8   6    0.51    0.43
   1   8   6    0.05    0.30
   2  -8   6   12.62    1.51
   2  -8   6   11.87    1.40
   2   8   6   12.16    1.54
   2   8   6   14.15    1.55
   3  -8   6    1.74    0.64
   3  -8   6    1.29    0.59
   3   8   6    1.64    0.61
   3   8   6    1.86    0.68
   4  -8   6   10.05    1.33
   4  -8   6   11.38    1.43
   4   8   6   11.70    1.45
   4   8   6    7.65    1.18
   5  -8   6   23.22    2.35
   5   8   6   25.67    1.83
   5   8   6   25.14    1.87
   6   8   6    5.42    1.09
   6   8   6    6.69    1.14
  -7  -9   6    0.37    0.50
  -7   9   6    0.60    0.58
  -7   9   6   -0.20    0.37
  -6  -9   6   -0.10    0.36
  -6   9   6    0.16    0.47
  -6   9   6   -0.17    0.38
  -5  -9   6    0.08    0.37
  -5   9   6    0.01    0.41
  -5   9   6    0.02    0.36
  -4  -9   6    0.66    0.47
   4  -9  -6    0.06    0.41
  -4   9   6    0.35    0.41
  -4   9   6   -0.10    0.35
   3  -9  -6    1.00    0.65
  -3  -9   6    2.38    0.81
  -3   9   6    1.43    0.56
  -3   9   6    1.72    0.70
  -2  -9   6    0.63    0.46
   2  -9  -6    0.18    0.35
  -2   9   6    0.03    0.33
  -2   9   6    1.08    0.57
  -1  -9   6   -0.22    0.34
   1  -9  -6    0.06    0.38
  -1   9   6   -0.02    0.36
  -1   9   6   -0.07    0.42
   0  -9   6    2.49    0.77
   0  -9  -6    3.16    0.86
   0   9   6    2.39    0.77
   0   9   6    3.48    0.89
  -1  -9  -6    0.83    0.54
   1  -9   6    1.59    0.64
   1   9   6    1.01    0.54
   1   9   6    0.73    0.43
   2  -9   6    0.84    0.56
   2   9   6    0.02    0.41
   2   9   6   -0.02    0.40
   3  -9   6    0.06    0.49
   3   9   6   -0.06    0.44
   3   9   6   -0.02    0.37
  16   0  -7   -0.07    0.45
  15   0  -7    0.17    0.37
  14   0  -7    0.11    0.30
  13   0  -7    0.05    0.25
  12   0  -7    0.03    0.23
  11   0  -7   -0.12    0.20
  10   0  -7   -0.07    0.19
   9   0  -7    0.19    0.20
   8   0  -7   -0.19    0.12
  -8   0   7   -0.06    0.16
  -8   0   7   -0.03    0.14
  -7   0   7    0.05    0.12
  -7   0   7   -0.10    0.15
   7   0  -7    0.03    0.13
  -6   0   7   -0.04    0.11
   6   0  -7    0.03    0.12
  -6   0   7    0.03    0.16
  -5   0   7    0.12    0.13
   5   0  -7    0.01    0.12
  -5   0   7    0.01    0.16
  -4   0   7   -0.05    0.09
   4   0  -7    0.09    0.12
  -4   0   7    0.07    0.14
  -3   0   7   -0.02    0.09
  -3   0   7   -0.13    0.09
  -3   0   7    0.05    0.14
  -2   0   7   -0.14    0.09
  -2   0   7   -0.16    0.12
  -2   0   7   -0.05    0.11
  -1   0   7   -0.29    0.13
  -1   0   7   -0.27    0.11
  -1   0   7   -0.26    0.11
   0   0   7   -0.05    0.10
   0   0   7   -0.02    0.11
   0   0   7   -0.07    0.09
   1   0   7   -0.10    0.12
   1   0   7   -0.01    0.11
   1   0   7    0.06    0.13
   2   0   7    0.01    0.13
   2   0   7    0.00    0.13
   2   0   7    0.00    0.13
   3   0   7   -0.06    0.15
   3   0   7    0.17    0.20
   3   0   7    0.12    0.17
   4   0   7   -0.01    0.19
   4   0   7    0.14    0.18
   4   0   7   -0.11    0.16
   5   0   7   -0.17    0.15
   5   0   7   -0.11    0.18
   6   0   7   -0.03    0.22
   6   0   7   -0.01    0.16
   7   0   7   -0.14    0.19
   7   0   7    0.25    0.30
   8   0   7    0.00    0.30
   8   0   7    0.24    0.31
   9   0   7   -0.18    0.31
   9   0   7    0.19    0.32
  10   0   7    0.14    0.37
  10   0   7    0.28    0.39
  11   0   7   -0.03    0.41
  11   0   7    0.09    0.37
  12   0   7    0.10    0.38
  12   0   7    0.33    0.45
  16  -1  -7    5.90    1.10
  15  -1  -7    5.54    1.01
  14  -1  -7    2.64    0.69
  14   1  -7    3.13    0.71
  13  -1  -7   20.15    1.40
  13   1  -7   21.18    1.35
  12  -1  -7    6.28    0.87
  12   1  -7    5.79    0.79
  11  -1  -7    0.11    0.20
  11   1  -7    0.49    0.30
  10  -1  -7    0.25    0.24
 -10   1   7   -0.09    0.20
  10   1  -7   -0.20    0.14
  -9  -1   7    0.31    0.22
   9  -1  -7    0.12    0.21
   9   1  -7   -0.14    0.16
  -9   1   7    0.20    0.20
   8  -1  -7   47.32    1.61
  -8  -1   7   47.51    1.51
  -8   1   7   48.16    1.49
  -8   1   7   46.98    1.60
   8   1  -7   47.26    1.40
   7  -1  -7  103.82    2.34
  -7  -1   7  103.48    2.33
  -7  -1   7  106.44    2.01
  -7   1   7  103.08    2.29
  -7   1   7  107.54    2.38
   7   1  -7  106.27    2.01
   6  -1  -7  142.29    2.70
  -6  -1   7  144.97    2.80
  -6  -1   7  144.47    2.24
  -6   1   7  143.72    2.68
  -6   1   7  140.04    2.73
   6   1  -7  143.81    2.23
   5  -1  -7   28.86    1.08
  -5  -1   7   31.36    0.84
  -5  -1   7   32.07    1.22
  -5   1   7   31.01    1.19
   5   1  -7   32.09    0.84
  -5   1   7   29.50    1.08
  -4  -1   7   54.19    1.61
   4  -1  -7   57.71    1.49
  -4   1   7   51.97    1.57
  -4   1   7   54.69    1.47
  -3  -1   7   12.55    0.78
  -3  -1   7   10.52    0.66
  -3   1   7   12.32    0.66
  -3   1   7   11.58    0.73
  -3   1   7   10.40    0.53
  -2  -1   7  115.33    2.48
  -2  -1   7  119.88    2.42
  -2   1   7  123.69    2.31
  -2   1   7  122.51    2.03
  -2   1   7  123.90    2.54
  -1  -1   7  136.82    2.71
  -1  -1   7  133.41    2.64
  -1  -1   7  133.50    2.09
  -1   1   7  137.91    2.27
  -1   1   7  133.95    2.50
  -1   1   7  134.04    2.69
   0  -1   7  253.08    3.97
   0  -1   7  250.70    3.97
   0  -1   7  252.40    3.42
   0   1   7  257.27    3.62
   0   1   7  250.23    3.80
   0   1   7  251.10    3.97
   1  -1   7    4.32    0.54
   1  -1   7    6.51    0.71
   1  -1   7    6.67    0.62
   1   1   7    4.83    0.58
   1   1   7    5.57    0.60
   1   1   7    4.45    0.56
   2  -1   7    7.47    0.83
   2  -1   7    7.07    0.72
   2  -1   7    7.35    0.70
   2   1   7    8.70    0.82
   2   1   7    7.99    0.64
   2   1   7    8.02    0.81
   3  -1   7   25.22    1.14
   3  -1   7   24.82    1.10
   3  -1   7   23.96    1.25
   3   1   7   26.46    1.14
   3   1   7   25.92    1.24
   3   1   7   24.99    1.19
   4  -1   7  100.18    2.28
   4  -1   7   92.78    2.66
   4  -1   7   97.28    2.49
   4   1   7   94.71    2.27
   4   1   7   95.37    2.59
   4   1   7   92.82    2.51
   5  -1   7    8.50    0.99
   5  -1   7    8.49    0.92
   5   1   7    8.81    0.98
   5   1   7    9.20    1.00
   6  -1   7    3.72    0.71
   6  -1   7    3.20    0.62
   6   1   7    2.37    0.55
   6   1   7    2.68    0.58
   7  -1   7   27.94    1.67
   7  -1   7   25.86    1.51
   7   1   7   28.30    1.60
   7   1   7   27.34    1.61
   8  -1   7   45.89    2.12
   8  -1   7   48.52    2.30
   8   1   7   48.50    2.26
   8   1   7   50.05    2.25
   9  -1   7   17.25    1.63
   9  -1   7   18.97    1.85
   9   1   7   18.68    1.75
   9   1   7   15.87    1.68
  10  -1   7    4.29    0.98
  10  -1   7    5.11    0.99
  10   1   7    4.35    0.91
  10   1   7    3.89    0.90
  11  -1   7    2.11    0.72
  11  -1   7    1.69    0.72
  11   1   7    1.66    0.64
  11   1   7    1.35    0.60
  12  -1   7    1.54    0.70
  12  -1   7    0.96    0.58
  12   1   7    0.71    0.65
  12   1   7    0.87    0.61
  16  -2  -7    2.49    0.79
 -16   2   7    2.33    0.80
  15  -2  -7    0.64    0.47
 -15   2   7    0.28    0.38
  14  -2  -7   16.24    1.61
 -14   2   7   14.60    1.53
  13  -2  -7   75.38    2.81
 -13   2   7   69.72    2.74
  12  -2  -7    9.36    1.14
 -12   2   7    7.91    1.08
  11  -2  -7   26.71    1.50
 -11   2   7   27.78    1.52
  10  -2  -7    3.02    0.61
 -10   2   7    3.90    0.68
   9  -2  -7   72.61    2.26
  -9  -2   7   69.73    1.98
  -9   2   7   73.52    2.26
   8  -2  -7   45.66    1.70
  -8  -2   7   45.58    1.56
  -8   2   7   45.20    1.69
  -8   2   7   47.47    1.54
  -7  -2   7   23.85    1.13
   7  -2  -7   25.06    1.20
  -7   2   7   24.55    1.11
  -7   2   7   22.53    1.13
  -6  -2   7    0.54    0.26
   6  -2  -7    0.19    0.17
  -6   2   7    0.28    0.21
  -6   2   7    0.94    0.29
   5  -2  -7  194.81    3.39
  -5  -2   7  197.22    3.52
  -5   2   7  192.69    3.38
  -5   2   7  189.16    3.40
  -4  -2   7   39.78    1.43
   4  -2  -7   34.89    1.28
  -4   2   7   37.67    1.38
  -4   2   7   35.47    1.30
  -3  -2   7   15.45    0.89
  -3  -2   7   15.64    0.88
  -3   2   7   16.76    0.87
  -3   2   7   15.10    0.89
  -2  -2   7   86.02    2.16
  -2  -2   7   86.54    2.16
  -2   2   7   82.72    2.02
  -2   2   7   87.75    2.19
  -1  -2   7   28.61    1.23
  -1  -2   7   26.09    1.15
  -1   2   7   27.18    1.13
  -1   2   7   27.39    0.89
  -1   2   7   30.11    1.25
   0  -2   7  207.94    2.91
   0  -2   7  212.65    3.66
   0  -2   7  208.68    3.77
   0   2   7  213.22    3.65
   0   2   7  221.26    3.09
   0   2   7  215.28    3.73
   1  -2   7   25.22    0.95
   1  -2   7   25.75    1.25
   1  -2   7   24.86    1.13
   1   2   7   26.44    1.02
   1   2   7   26.01    1.19
   1   2   7   26.83    1.21
   2  -2   7    5.11    0.66
   2  -2   7    3.59    0.59
   2  -2   7    4.09    0.51
   2   2   7    3.51    0.50
   2   2   7    4.26    0.60
   2   2   7    4.02    0.61
   3  -2   7  137.15    3.24
   3  -2   7  131.56    2.78
   3  -2   7  132.46    2.77
   3   2   7  133.36    3.07
   3   2   7  130.95    2.82
   4  -2   7   17.15    1.16
   4  -2   7   14.74    0.89
   4  -2   7   15.90    0.98
   4   2   7   16.26    1.03
   4   2   7   15.14    0.93
   4   2   7   14.90    1.04
   5  -2   7    5.95    0.88
   5  -2   7    7.07    0.86
   5   2   7    6.58    0.87
   5   2   7    5.24    0.77
   6  -2   7   31.49    1.58
   6  -2   7   32.32    1.75
   6   2   7   31.90    1.64
   6   2   7   29.73    1.63
   7  -2   7   85.20    2.81
   7  -2   7   92.96    3.14
   7   2   7   89.26    2.98
   7   2   7   90.88    2.97
   8  -2   7    2.93    0.69
   8  -2   7    2.20    0.64
   8   2   7    2.84    0.69
   8   2   7    1.68    0.57
   9  -2   7   52.32    2.41
   9  -2   7   51.24    2.53
   9   2   7   50.86    2.46
   9   2   7   49.08    2.38
  10  -2   7    2.36    0.76
  10  -2   7    1.18    0.55
  10   2   7    2.34    0.71
  10   2   7    0.75    0.54
  11  -2   7   28.31    1.98
  11  -2   7   26.75    2.02
  11   2   7   27.15    2.01
  11   2   7   26.84    1.99
  16  -3  -7    2.47    0.86
 -16   3   7    2.81    0.85
  15  -3  -7   -0.11    0.39
 -15   3   7    0.07    0.38
  14  -3  -7   70.07    2.97
 -14   3   7   65.74    2.88
  13  -3  -7    0.56    0.43
 -13   3   7    1.14    0.49
  12  -3  -7    0.44    0.37
 -12   3   7    0.86    0.41
  11  -3  -7    5.59    0.89
 -11   3   7    4.95    0.86
  10  -3  -7   30.77    1.62
 -10   3   7   31.40    1.63
   9  -3  -7    1.12    0.40
  -9  -3   7    1.48    0.41
  -9   3   7    1.10    0.43
   8  -3  -7    5.75    0.80
  -8  -3   7    4.75    0.69
  -8   3   7    5.87    0.72
  -8   3   7    5.90    0.82
  -7  -3   7    0.63    0.27
   7  -3  -7    0.68    0.30
  -7   3   7    1.08    0.35
  -7   3   7    1.04    0.33
   6  -3  -7    3.71    0.59
  -6  -3   7    3.68    0.59
  -6   3   7    3.40    0.55
  -6   3   7    4.30    0.64
  -5  -3   7    0.71    0.29
   5  -3  -7    1.08    0.34
  -5   3   7    0.53    0.26
  -5   3   7    0.84    0.31
   4  -3  -7   20.89    1.08
  -4  -3   7   21.16    1.12
  -4   3   7   21.19    1.10
  -4   3   7   21.32    1.09
  -3  -3   7    2.65    0.52
  -3  -3   7    1.16    0.34
  -3   3   7    0.89    0.29
  -3   3   7    1.56    0.38
  -2  -3   7    8.90    0.89
  -2  -3   7    7.82    0.83
  -2   3   7    8.21    0.81
  -2   3   7    7.08    0.79
  -1  -3   7    3.27    0.55
  -1  -3   7    4.32    0.64
  -1   3   7    3.75    0.57
  -1   3   7    3.50    0.56
   0  -3   7    0.30    0.15
   0  -3   7   -0.16    0.16
   0  -3   7   -0.12    0.12
   0   3   7   -0.03    0.15
   0   3   7    0.48    0.24
   1  -3   7    0.22    0.16
   1  -3   7    0.16    0.23
   1  -3   7    0.49    0.26
   1   3   7    0.43    0.20
   1   3   7    0.17    0.21
   1   3   7    0.47    0.24
   2  -3   7    1.05    0.36
   2  -3   7    1.06    0.28
   2  -3   7   -0.05    0.19
   2   3   7    0.26    0.20
   2   3   7    0.35    0.25
   2   3   7    0.78    0.32
   3  -3   7    9.69    1.06
   3  -3   7   10.81    0.76
   3   3   7   11.85    1.14
   3   3   7   10.50    0.83
   3   3   7   12.92    0.84
   4  -3   7   15.36    0.96
   4  -3   7   17.75    1.23
   4  -3   7   17.90    1.05
   4   3   7   16.46    1.13
   4   3   7   15.23    0.99
   5  -3   7    5.00    0.82
   5  -3   7    3.55    0.61
   5   3   7    3.97    0.65
   5   3   7    5.76    0.87
   5   3   7    4.75    0.74
   6  -3   7   33.47    1.85
   6  -3   7   30.21    1.57
   6   3   7   32.59    1.75
   6   3   7   34.59    1.70
   7  -3   7   19.35    1.34
   7  -3   7   19.31    1.47
   7   3   7   18.86    1.35
   7   3   7   23.84    1.59
   8  -3   7    0.53    0.41
   8  -3   7   -0.05    0.28
   8   3   7   -0.26    0.21
   8   3   7    0.27    0.36
   9  -3   7   14.85    1.58
   9  -3   7   12.91    1.63
   9   3   7   16.10    1.69
   9   3   7   13.07    1.53
  10  -3   7    9.66    1.35
  10  -3   7   13.02    1.67
  10   3   7    9.73    1.39
  10   3   7   13.42    1.60
  11  -3   7    0.01    0.45
  11  -3   7    0.42    0.50
  11   3   7   -0.29    0.40
  11   3   7    0.31    0.44
  15  -4  -7    0.49    0.51
 -15   4   7    0.59    0.46
  14  -4  -7    0.47    0.41
 -14   4   7    0.88    0.49
  13  -4  -7    2.39    0.71
 -13   4   7    2.77    0.74
  12  -4  -7    0.98    0.47
 -12   4   7    1.94    0.62
  11  -4  -7    4.79    0.88
 -11   4   7    3.59    0.77
  10  -4  -7   92.28    3.02
 -10   4   7   89.42    2.96
  -9  -4   7   87.16    2.57
   9  -4  -7   85.13    2.79
  -9   4   7   86.53    2.79
   8  -4  -7    6.99    0.98
  -8  -4   7    6.42    0.82
  -8   4   7    8.18    1.01
  -8   4   7    6.38    0.83
   7  -4  -7   11.58    1.15
  -7  -4   7   11.64    1.13
  -7   4   7    9.71    0.98
  -7   4   7    9.95    1.10
   6  -4  -7   18.84    1.17
  -6  -4   7   18.07    1.13
  -6   4   7   15.68    1.06
  -6   4   7   17.26    1.09
  -5  -4   7   17.16    1.09
   5  -4  -7   17.81    1.12
  -5   4   7   17.01    1.09
  -5   4   7   15.84    1.05
   4  -4  -7   23.20    1.24
  -4  -4   7   24.76    1.31
  -4   4   7   24.45    1.28
  -4   4   7   25.04    1.30
  -3  -4   7   26.75    1.35
  -3  -4   7   27.33    1.38
  -3   4   7   24.92    1.30
  -3   4   7   27.86    1.34
  -2  -4   7    0.70    0.30
  -2  -4   7    0.98    0.37
  -2   4   7    1.20    0.38
  -2   4   7    0.85    0.31
  -1  -4   7    8.65    0.97
  -1  -4   7    5.68    0.76
  -1   4   7    5.06    0.70
  -1   4   7    6.90    0.85
   0  -4   7   48.94    1.85
   0  -4   7   56.41    2.01
   0   4   7   51.67    1.93
   0   4   7   55.39    1.95
   1  -4   7   63.18    2.22
   1  -4   7   66.50    2.16
   1   4   7   66.80    2.22
   1   4   7   66.30    2.22
   2  -4   7    4.59    0.70
   2  -4   7    4.31    0.75
   2  -4   7    5.35    0.68
   2   4   7    4.13    0.70
   2   4   7    3.99    0.70
   3  -4   7    0.12    0.18
   3  -4   7   -0.10    0.18
   3  -4   7    0.11    0.23
   3   4   7    0.13    0.22
   3   4   7    0.52    0.29
   4  -4   7   12.24    1.32
   4  -4   7   11.32    0.88
   4  -4   7   11.27    0.89
   4   4   7    9.20    1.08
   4   4   7   11.44    1.13
   5  -4   7   13.16    1.01
   5  -4   7   14.01    1.43
   5   4   7   14.48    1.42
   6  -4   7    0.17    0.31
   6  -4   7   -0.26    0.25
   6   4   7    0.01    0.29
   6   4   7    0.23    0.27
   7  -4   7    7.02    1.00
   7  -4   7    7.30    1.19
   7   4   7    7.30    1.11
   7   4   7    7.34    1.03
   8  -4   7    2.19    0.65
   8  -4   7    3.22    0.80
   8   4   7    3.03    0.80
   8   4   7    3.48    0.75
   9  -4   7    0.53    0.45
   9  -4   7    1.87    0.71
   9   4   7    3.12    0.82
   9   4   7    2.25    0.73
  10  -4   7   16.28    1.91
  10  -4   7   14.96    1.65
  10   4   7   18.82    1.96
  10   4   7   15.16    1.74
  14  -5  -7    0.02    0.44
 -14   5   7   -0.31    0.33
  13  -5  -7   18.72    1.90
 -13   5   7   19.61    2.01
  12  -5  -7   15.27    1.66
 -12   5   7   16.78    1.80
  11  -5  -7    1.72    0.55
 -11   5   7    3.64    0.80
 -10  -5   7    0.34    0.51
  10  -5  -7   -0.14    0.26
 -10   5   7    0.29    0.28
   9  -5  -7   40.33    2.00
  -9  -5   7   38.14    1.82
  -9   5   7   41.72    2.03
   8  -5  -7   25.98    1.55
  -8  -5   7   23.52    1.41
  -8   5   7   25.13    1.53
  -8   5   7   24.30    1.40
   7  -5  -7   88.24    2.83
  -7  -5   7   88.39    2.76
  -7   5   7   88.86    2.71
  -7   5   7   88.33    2.81
   6  -5  -7  128.20    3.39
  -6  -5   7  122.28    3.30
  -6   5   7  124.40    3.22
  -6   5   7  120.18    3.25
   5  -5  -7    2.33    0.53
  -5  -5   7    2.76    0.63
  -5   5   7    2.06    0.56
  -5   5   7    2.09    0.52
  -4  -5   7  135.43    3.43
  -4   5   7  132.87    3.33
  -4   5   7  134.09    3.41
  -3  -5   7    3.24    0.64
  -3  -5   7    3.22    0.63
  -3   5   7    2.21    0.51
  -3   5   7    3.04    0.60
  -2  -5   7   14.08    1.06
  -2  -5   7   12.50    1.00
  -2   5   7   12.72    1.18
  -2   5   7   13.63    1.07
  -1  -5   7    2.05    0.51
  -1  -5   7    1.34    0.41
  -1   5   7    1.96    0.50
  -1   5   7    0.97    0.44
   0  -5   7   12.09    1.21
   0  -5   7   14.65    1.08
   0   5   7   14.40    1.36
   0   5   7   13.25    1.24
   1  -5   7   11.53    1.18
   1  -5   7   11.79    1.27
   1   5   7   10.25    1.14
   1   5   7   11.09    1.16
   2  -5   7  197.72    4.41
   2  -5   7  196.79    4.22
   2   5   7  187.14    4.24
   2   5   7  194.53    4.30
   3  -5   7    0.20    0.32
   3  -5   7   -0.01    0.27
   3   5   7    0.33    0.30
   3   5   7   -0.16    0.18
   4  -5   7   30.45    1.78
   4   5   7   38.11    1.91
   4   5   7   36.74    1.82
   5  -5   7   17.56    1.41
   5   5   7   15.05    1.49
   5   5   7   15.96    1.23
   6  -5   7    2.65    0.73
   6   5   7    2.27    0.64
   7  -5   7    6.49    1.11
   7  -5   7    8.68    1.12
   7   5   7    8.66    1.22
   8  -5   7   47.22    2.55
   8  -5   7   55.89    2.46
   8   5   7   49.53    2.55
   9  -5   7    0.44    0.41
   9  -5   7    0.17    0.41
   9   5   7    0.11    0.39
  13  -6  -7    1.09    0.63
 -13   6   7    0.17    0.44
  12  -6  -7    5.41    1.09
 -12   6   7    4.49    1.01
  11  -6  -7    2.46    0.72
 -11   6   7    0.83    0.47
  10  -6  -7    6.09    1.07
 -10  -6   7    3.71    0.78
 -10   6   7    5.86    1.06
  -9  -6   7   13.14    1.40
   9  -6  -7   10.92    1.36
  -9   6   7   11.95    1.40
  -8  -6   7    0.41    0.35
   8  -6  -7    0.35    0.33
  -8   6   7    0.09    0.27
  -8   6   7    0.30    0.31
  -7  -6   7    0.28    0.29
   7  -6  -7    0.38    0.32
  -7   6   7    0.45    0.36
  -7   6   7    0.15    0.29
  -6  -6   7    1.40    0.49
   6  -6  -7    0.97    0.45
  -6   6   7    1.68    0.54
  -6   6   7    1.78    0.58
   5  -6  -7   13.93    1.37
  -5  -6   7   15.92    1.25
  -5   6   7   16.19    1.24
  -5   6   7   13.40    1.34
  -4  -6   7  102.63    3.18
  -4   6   7  101.86    3.14
  -4   6   7   98.71    3.02
  -3  -6   7   30.87    1.70
  -3   6   7   33.13    1.69
  -3   6   7   29.65    1.68
  -2  -6   7   24.32    1.51
  -2  -6   7   28.90    1.60
  -2   6   7   29.32    1.59
  -2   6   7   27.94    1.65
  -1  -6   7   77.46    2.65
  -1  -6   7   76.62    2.71
  -1   6   7   73.96    2.70
  -1   6   7   71.90    2.54
   0  -6   7    0.46    0.33
   0  -6   7    1.16    0.46
   0   6   7    1.80    0.61
   0   6   7    0.67    0.40
   1  -6   7   26.01    1.57
   1  -6   7   25.84    1.59
   1   6   7   27.59    1.64
   1   6   7   26.64    1.57
   2  -6   7   15.32    1.51
   2  -6   7   13.30    1.33
   2   6   7   13.66    1.44
   2   6   7   13.25    1.39
   3  -6   7    7.77    1.12
   3  -6   7    7.47    1.04
   3   6   7    6.64    0.97
   3   6   7    7.78    1.14
   4  -6   7    3.60    0.72
   4  -6   7    3.65    0.84
   4   6   7    2.98    0.77
   4   6   7    3.07    0.70
   5  -6   7   24.66    1.74
   5   6   7   22.44    1.64
   5   6   7   22.00    1.55
   6  -6   7   25.42    1.82
   6   6   7   25.75    1.77
   7  -6   7    3.71    0.93
   7   6   7    4.10    0.94
   8  -6   7    0.02    0.41
   8   6   7    0.10    0.44
  12  -7  -7    0.77    0.56
 -12   7   7    1.77    0.78
  11  -7  -7    1.52    0.60
 -11   7   7    1.33    0.57
  10  -7  -7   14.15    1.69
 -10  -7   7   15.47    1.65
 -10   7   7   12.85    1.54
   9  -7  -7    6.91    1.13
  -9  -7   7    7.61    1.15
  -9   7   7    6.82    1.11
  -8  -7   7    4.38    0.91
   8  -7  -7    5.01    0.96
  -8   7   7    4.55    0.91
  -8   7   7    4.39    0.90
  -7  -7   7    0.87    0.42
   7  -7  -7    0.55    0.45
  -7   7   7    0.26    0.35
  -7   7   7    0.57    0.41
  -6  -7   7    5.25    0.99
   6  -7  -7    1.96    0.59
  -6   7   7    3.85    0.86
  -6   7   7    3.18    0.75
  -5  -7   7    4.10    0.82
  -5   7   7    5.51    0.98
  -5   7   7    5.60    0.92
  -4  -7   7   10.78    1.34
  -4   7   7   10.70    1.27
  -4   7   7   13.86    1.57
  -3  -7   7    0.62    0.43
  -3   7   7    0.57    0.35
  -3   7   7    0.39    0.37
  -2  -7   7    0.19    0.29
  -2  -7   7    0.26    0.36
  -2   7   7   -0.17    0.25
  -2   7   7    0.01    0.29
  -1  -7   7   22.98    1.54
  -1  -7   7   23.73    1.61
  -1   7   7   23.28    1.64
  -1   7   7   23.36    1.52
   0  -7   7    8.67    1.18
   0  -7   7    9.21    1.20
   0   7   7   10.64    1.31
   0   7   7   10.49    1.24
   1  -7   7    0.11    0.37
   1  -7   7    0.25    0.37
   1   7   7   -0.11    0.32
   1   7   7   -0.13    0.24
   2  -7   7    0.61    0.44
   2  -7   7    0.65    0.40
   2   7   7    1.24    0.50
   2   7   7    1.08    0.48
   3  -7   7    9.88    1.26
   3  -7   7    7.92    1.16
   3   7   7    6.46    1.04
   3   7   7    8.11    1.20
   4  -7   7    2.92    0.71
   4  -7   7    4.20    0.90
   4   7   7    3.30    0.81
   4   7   7    4.23    0.88
   5  -7   7    0.53    0.44
   5   7   7   -0.01    0.34
   5   7   7    1.26    0.53
   6  -7   7    2.27    0.79
   6   7   7    0.69    0.53
   7  -7   7    5.00    1.08
   7   7   7    5.21    1.04
  10  -8  -7    2.80    0.89
 -10  -8   7    3.57    0.93
 -10   8   7    4.13    1.00
   9  -8  -7    0.73    0.52
  -9  -8   7   -0.13    0.40
  -9   8   7   -0.23    0.44
   8  -8  -7    0.96    0.58
  -8  -8   7    1.50    0.65
  -8   8   7    0.99    0.58
  -8   8   7    1.00    0.61
   7  -8  -7   29.33    1.98
  -7  -8   7   31.12    2.08
  -7   8   7   31.35    2.04
  -7   8   7   30.91    1.99
  -6  -8   7    3.37    0.83
  -6   8   7    3.91    0.96
  -6   8   7    2.04    0.70
  -5  -8   7    2.92    0.79
  -5   8   7    5.15    0.94
  -5   8   7    3.53    0.82
  -4  -8   7    0.12    0.38
  -4   8   7    0.07    0.40
  -4   8   7    0.41    0.39
  -3  -8   7   31.77    2.04
  -3   8   7   34.10    2.12
  -3   8   7   30.80    1.88
  -2  -8   7    1.63    0.58
  -2   8   7    1.33    0.61
  -2   8   7    0.30    0.42
  -1  -8   7   11.31    1.36
  -1  -8   7   13.61    1.57
  -1   8   7   14.29    1.51
  -1   8   7   15.53    1.79
   0  -8   7    7.40    1.14
   0  -8   7    7.35    1.18
   0   8   7    7.77    1.16
   0   8   7    5.94    1.09
   1  -8   7   23.21    1.67
   1  -8   7   22.34    1.75
   1   8   7   21.85    1.74
   1   8   7   16.75    1.68
   2  -8   7    4.02    0.85
   2  -8   7    6.43    1.15
   2   8   7    2.92    0.80
   2   8   7    4.55    0.96
   3  -8   7    5.74    1.07
   3  -8   7    8.45    1.25
   3   8   7    7.02    1.15
   3   8   7    4.91    0.97
   4  -8   7    3.69    0.91
   4  -8   7    4.71    0.95
   4   8   7    4.78    1.02
   4   8   7    4.47    0.99
   5  -8   7    8.07    1.33
   5   8   7    7.35    1.25
   5   8   7    8.21    1.32
  -7  -9   7   11.33    1.62
  -7   9   7    9.08    1.39
  -7   9   7   11.26    1.60
  -6  -9   7    0.21    0.43
  -6   9   7    0.29    0.45
  -6   9   7    0.30    0.40
  -5  -9   7   11.56    1.63
  -5   9   7   11.23    1.61
  -5   9   7   14.32    1.66
  -4  -9   7    2.00    0.74
  -4   9   7    1.92    0.70
  -4   9   7    2.54    0.79
  -3  -9   7    1.44    0.65
  -3   9   7    1.79    0.70
  -3   9   7    1.47    0.66
  -2  -9   7   21.17    2.07
  -2   9   7   26.81    1.86
  -2   9   7   21.75    2.16
  -1  -9   7    0.12    0.47
  -1   9   7   -0.07    0.45
  -1   9   7   -0.18    0.39
   0  -9   7   36.01    2.32
   0   9   7   29.81    2.14
   0   9   7   31.22    2.04
   1  -9   7    0.36    0.52
   1   9   7    0.45    0.46
   1   9   7    0.38    0.48
   2  -9   7    2.12    0.77
   2   9   7    2.83    0.83
   2   9   7    2.99    0.87
  16   0  -8    4.58    0.90
  15   0  -8    3.93    0.85
  14   0  -8   38.38    1.93
  13   0  -8    1.12    0.41
  12   0  -8   33.06    1.60
  11   0  -8    5.82    0.78
 -11   0   8    5.65    0.80
  10   0  -8   37.42    1.51
 -10   0   8   35.86    1.50
  -9   0   8    9.21    0.86
   9   0  -8    8.20    0.81
  -9   0   8    7.40    0.77
  -8   0   8   40.52    1.38
   8   0  -8   38.17    1.34
  -8   0   8   39.52    1.45
  -7   0   8    0.30    0.20
  -7   0   8    0.93    0.29
   7   0  -8    0.23    0.18
  -6   0   8    2.19    0.37
   6   0  -8    2.62    0.39
  -6   0   8    2.85    0.49
  -5   0   8   39.28    1.15
  -5   0   8   37.52    1.40
   5   0  -8   38.97    1.15
  -4   0   8    0.31    0.16
  -4   0   8    0.34    0.17
  -4   0   8    0.14    0.15
  -3   0   8    6.70    0.64
  -3   0   8    4.63    0.46
  -3   0   8    5.79    0.69
  -2   0   8  103.41    1.99
  -2   0   8  101.67    2.38
  -2   0   8  100.00    2.12
  -1   0   8   16.02    0.90
  -1   0   8   13.87    0.79
  -1   0   8   14.46    0.73
   0   0   8  219.41    3.48
   0   0   8  221.27    3.79
   0   0   8  218.06    3.66
   1   0   8   24.91    1.17
   1   0   8   25.36    1.10
   1   0   8   26.61    1.19
   2   0   8   65.88    1.93
   2   0   8   68.62    1.96
   2   0   8   66.79    2.04
   3   0   8    3.02    0.53
   3   0   8    2.81    0.55
   3   0   8    1.93    0.42
   4   0   8   29.84    1.49
   4   0   8   30.17    1.44
   4   0   8   27.66    1.24
   5   0   8   59.77    2.16
   5   0   8   55.48    2.18
   6   0   8   21.23    1.40
   6   0   8   21.31    1.34
   7   0   8    5.78    0.96
   7   0   8    7.20    1.03
   8   0   8   15.94    1.64
   8   0   8   15.90    1.55
   9   0   8   83.54    3.27
   9   0   8   83.18    3.17
  10   0   8   21.11    2.10
  10   0   8   21.51    2.00
  11   0   8   23.57    2.26
  11   0   8   27.95    2.07
  16  -1  -8    0.66    0.49
 -16   1   8    0.27    0.43
  15  -1  -8    2.39    0.73
 -15   1   8    2.75    0.74
  14  -1  -8   12.37    1.37
 -14   1   8   13.67    1.46
  13  -1  -8   10.40    1.20
 -13   1   8   11.86    1.34
  12  -1  -8    4.25    0.74
 -12   1   8    3.44    0.68
  11  -1  -8   -0.26    0.20
 -11   1   8    0.11    0.24
  11   1  -8    0.15    0.25
  10  -1  -8    1.20    0.40
 -10   1   8    2.11    0.47
  10   1  -8    2.24    0.44
  -9  -1   8   11.63    0.81
  -9  -1   8   12.30    0.78
   9  -1  -8   10.70    0.82
  -9   1   8   10.91    0.82
   9   1  -8   10.20    0.70
  -9   1   8    9.52    0.74
  -8  -1   8   12.14    0.69
   8  -1  -8   10.60    0.78
  -8  -1   8    9.35    0.75
   8   1  -8   10.76    0.66
  -8   1   8   11.43    0.78
  -8   1   8    9.90    0.75
  -7  -1   8  166.31    3.23
  -7  -1   8  173.98    2.70
   7  -1  -8  171.31    3.16
  -7   1   8  172.70    3.26
  -7   1   8  170.69    3.14
   7   1  -8  168.71    2.69
  -6  -1   8   34.79    1.36
  -6  -1   8   36.49    1.01
   6  -1  -8   34.92    1.27
   6   1  -8   36.71    1.01
  -6   1   8   36.86    1.39
  -6   1   8   38.69    1.32
   5  -1  -8    0.30    0.19
  -5  -1   8    0.26    0.13
  -5  -1   8    0.45    0.24
  -5   1   8    0.04    0.16
   5   1  -8    0.15    0.12
  -5   1   8    0.06    0.15
  -4  -1   8    6.48    0.70
  -4  -1   8    8.33    0.65
  -4  -1   8    8.09    0.43
  -4   1   8    9.42    0.63
  -4   1   8    8.86    0.68
  -3  -1   8   44.52    1.55
  -3  -1   8   44.32    1.02
  -3  -1   8   44.40    1.47
  -3   1   8   45.40    1.21
  -3   1   8   44.06    1.34
  -3   1   8   44.61    1.54
  -2  -1   8    1.85    0.39
  -2  -1   8    1.58    0.25
  -2  -1   8    1.39    0.35
  -2   1   8    2.24    0.45
  -2   1   8    1.32    0.27
  -2   1   8    1.97    0.36
  -1  -1   8   21.23    0.81
  -1  -1   8   21.49    1.08
  -1  -1   8   19.51    1.00
  -1   1   8   22.16    0.90
  -1   1   8   20.92    1.06
  -1   1   8   19.70    0.94
   0  -1   8    2.81    0.48
   0  -1   8    2.22    0.36
   0  -1   8    2.18    0.44
   0   1   8    3.24    0.47
   0   1   8    1.85    0.36
   0   1   8    2.03    0.41
   1  -1   8   32.06    1.38
   1  -1   8   30.23    1.15
   1  -1   8   29.67    1.28
   1   1   8   32.44    1.31
   1   1   8   30.96    1.23
   1   1   8   29.57    1.27
   2  -1   8   66.16    1.93
   2  -1   8   62.33    2.06
   2  -1   8   64.79    1.86
   2   1   8   64.51    1.98
   2   1   8   65.61    1.96
   2   1   8   65.79    1.95
   3  -1   8    0.04    0.17
   3  -1   8    0.10    0.20
   3  -1   8    0.49    0.26
   3   1   8   -0.11    0.20
   3   1   8   -0.07    0.15
   3   1   8    0.58    0.29
   4  -1   8   39.68    1.62
   4  -1   8   41.42    1.52
   4  -1   8   41.12    1.81
   4   1   8   39.61    1.68
   4   1   8   41.21    1.74
   4   1   8   39.18    1.52
   5  -1   8   78.24    2.45
   5  -1   8   78.06    2.64
   5   1   8   80.12    2.57
   5   1   8   82.11    2.63
   6  -1   8    3.80    0.77
   6  -1   8    3.80    0.70
   6   1   8    3.94    0.72
   6   1   8    2.78    0.62
   7  -1   8   19.96    1.38
   7  -1   8   22.30    1.56
   7   1   8   22.51    1.49
   7   1   8   23.67    1.54
   8  -1   8   34.64    1.92
   8  -1   8   34.81    2.03
   8   1   8   35.05    1.95
   8   1   8   33.56    1.94
   9  -1   8   13.82    1.57
   9  -1   8   12.41    1.57
   9   1   8   17.30    1.75
   9   1   8   16.17    1.72
  10  -1   8   10.85    1.49
  10  -1   8    9.18    1.39
  10   1   8    8.19    1.27
  10   1   8    8.73    1.28
  11  -1   8    1.68    0.69
  11  -1   8    0.37    0.54
  11   1   8    1.47    0.68
  11   1   8    0.38    0.61
  16  -2  -8    5.87    1.10
 -16   2   8    5.26    0.99
  15  -2  -8   -0.08    0.34
 -15   2   8   -0.02    0.33
  14  -2  -8    3.31    0.75
 -14   2   8    1.42    0.53
  13  -2  -8   14.60    1.48
 -13   2   8   15.23    1.51
  12  -2  -8    2.07    0.62
 -12   2   8    3.64    0.71
  11  -2  -8    0.13    0.33
 -11   2   8    0.22    0.28
  10  -2  -8    0.48    0.30
 -10   2   8   -0.06    0.21
  -9  -2   8   71.85    2.10
   9  -2  -8   72.71    2.29
  -9   2   8   71.37    2.05
  -9   2   8   69.75    2.23
  -8  -2   8    1.51    0.40
   8  -2  -8    0.80    0.32
  -8   2   8    0.70    0.31
  -8   2   8    1.25    0.38
  -7  -2   8   40.64    1.55
   7  -2  -8   40.50    1.55
  -7   2   8   40.66    1.55
  -7   2   8   43.39    1.57
  -6  -2   8    6.79    0.78
   6  -2  -8    7.87    0.82
  -6   2   8    6.50    0.74
  -6   2   8    5.61    0.68
  -5  -2   8   70.83    2.05
   5  -2  -8   68.76    1.94
  -5   2   8   69.18    2.01
  -5   2   8   71.20    1.96
  -4  -2   8   46.21    1.64
  -4  -2   8   47.84    1.66
  -4   2   8   45.78    1.64
  -4   2   8   44.62    1.52
  -3  -2   8    4.61    0.63
  -3  -2   8    4.76    0.62
  -3   2   8    4.43    0.57
  -3   2   8    4.23    0.61
  -2  -2   8   34.84    1.42
  -2  -2   8   33.96    1.40
  -2   2   8   34.40    1.33
  -2   2   8   35.82    0.96
  -2   2   8   36.29    1.45
  -1  -2   8   43.90    1.06
  -1  -2   8   44.60    1.61
  -1  -2   8   39.90    1.55
  -1   2   8   43.20    1.51
  -1   2   8   41.84    1.15
  -1   2   8   43.26    1.61
   0  -2   8    5.48    0.72
   0  -2   8    4.63    0.47
   0  -2   8    4.93    0.64
   0   2   8    4.43    0.66
   0   2   8    4.24    0.59
   0   2   8    4.48    0.51
   1  -2   8    0.76    0.25
   1  -2   8    0.61    0.29
   1  -2   8    0.30    0.22
   1   2   8    0.68    0.30
   1   2   8    0.74    0.25
   1   2   8    0.49    0.25
   2  -2   8    3.70    0.58
   2  -2   8    3.31    0.61
   2  -2   8    3.90    0.54
   2   2   8    3.44    0.54
   2   2   8    3.18    0.54
   2   2   8    3.27    0.57
   3  -2   8   12.22    0.84
   3  -2   8   13.36    1.03
   3  -2   8   12.47    0.87
   3   2   8   11.48    0.87
   3   2   8   12.30    0.94
   3   2   8   13.10    0.90
   4  -2   8  102.91    2.52
   4  -2   8   99.14    2.61
   4  -2   8  102.32    3.02
   4   2   8  101.01    2.70
   4   2   8   98.82    2.86
   4   2   8  100.43    2.61
   5  -2   8   13.27    1.38
   5  -2   8   15.21    1.06
   5   2   8   13.03    1.03
   5   2   8   14.74    1.39
   6  -2   8    0.14    0.21
   6  -2   8    0.04    0.23
   6   2   8    0.29    0.29
   6   2   8    0.47    0.35
   7  -2   8    0.76    0.44
   7  -2   8    0.59    0.34
   7   2   8    0.48    0.41
   7   2   8    0.29    0.32
   8  -2   8   29.47    1.89
   8  -2   8   29.74    1.78
   8   2   8   31.63    1.87
   8   2   8   30.55    1.88
   9  -2   8   34.62    2.15
   9  -2   8   34.39    2.00
   9   2   8   35.62    2.09
   9   2   8   33.24    2.05
  10  -2   8    3.76    0.87
  10  -2   8    4.72    1.07
  10   2   8    4.02    0.94
  10   2   8    2.72    0.78
  11  -2   8    9.75    1.42
  11  -2   8    9.08    1.51
  11   2   8   12.00    1.63
  11   2   8    9.38    1.40
  16  -3  -8    8.31    1.34
 -16   3   8    9.47    1.41
  15  -3  -8   42.15    2.36
 -15   3   8   39.56    2.28
  14  -3  -8    0.20    0.34
 -14   3   8    0.34    0.37
  13  -3  -8    4.89    0.90
 -13   3   8    6.97    1.05
  12  -3  -8   11.85    1.33
 -12   3   8    9.30    1.17
  11  -3  -8   70.93    2.59
 -11   3   8   67.01    2.52
  10  -3  -8    1.14    0.43
 -10   3   8    1.33    0.45
   9  -3  -8   37.01    1.72
  -9  -3   8   37.31    1.60
  -9   3   8   35.70    1.52
  -9   3   8   37.65    1.71
   8  -3  -8    5.09    0.76
  -8  -3   8    5.14    0.74
  -8   3   8    5.11    0.76
  -8   3   8    5.42    0.75
   7  -3  -8  109.67    2.83
  -7  -3   8  108.74    2.77
  -7   3   8  112.63    2.74
  -7   3   8  113.85    2.87
  -6  -3   8    2.81    0.55
   6  -3  -8    3.29    0.59
  -6   3   8    3.07    0.54
  -6   3   8    2.53    0.54
  -5  -3   8  125.71    2.97
   5  -3  -8  126.70    2.92
  -5   3   8  124.18    2.90
  -5   3   8  121.53    2.91
  -4  -3   8   18.21    1.10
  -4  -3   8   17.58    1.06
  -4   3   8   17.38    1.04
  -4   3   8   17.19    1.04
  -3  -3   8    4.40    0.65
  -3  -3   8    4.74    0.68
  -3   3   8    4.35    0.64
  -3   3   8    3.79    0.58
  -2  -3   8    5.09    0.71
  -2  -3   8    4.70    0.69
  -2   3   8    4.30    0.62
  -2   3   8    4.94    0.70
  -1  -3   8    0.06    0.20
  -1  -3   8    0.50    0.28
  -1   3   8    0.17    0.19
  -1   3   8    0.04    0.19
   0  -3   8   24.11    1.29
   0  -3   8   21.87    1.20
   0   3   8   22.39    1.20
   0   3   8   23.87    1.26
   1  -3   8   38.77    1.60
   1  -3   8   39.17    1.72
   1  -3   8   37.68    1.24
   1   3   8   38.68    1.63
   1   3   8   42.46    1.71
   2  -3   8  123.85    3.23
   2  -3   8  121.03    2.55
   2  -3   8  123.01    2.93
   2   3   8  115.02    2.96
   2   3   8  123.35    2.60
   2   3   8  123.84    3.12
   3  -3   8    9.57    1.10
   3  -3   8    9.97    0.76
   3   3   8    9.71    0.76
   3   3   8    9.17    1.04
   3   3   8   10.03    1.02
   4  -3   8   11.09    0.88
   4  -3   8   13.87    1.39
   4  -3   8   12.12    1.09
   4   3   8    9.88    1.09
   4   3   8   11.72    0.93
   5  -3   8   16.58    1.14
   5  -3   8   17.61    1.34
   5   3   8   16.83    1.28
   5   3   8   17.60    1.20
   6  -3   8   54.80    2.44
   6  -3   8   54.73    2.16
   6   3   8   51.88    2.17
   6   3   8   57.04    2.40
   7  -3   8    0.55    0.43
   7  -3   8    1.39    0.50
   7   3   8    1.78    0.61
   7   3   8    0.87    0.44
   8  -3   8    0.26    0.40
   8  -3   8    1.43    0.56
   8   3   8    0.57    0.45
   8   3   8    1.31    0.55
   9  -3   8   35.27    2.08
   9  -3   8   38.35    2.32
   9   3   8   43.49    2.35
   9   3   8   37.45    2.26
  10  -3   8   15.55    1.86
  10  -3   8   17.97    1.89
  10   3   8   18.87    1.94
  10   3   8   15.91    1.77
  15  -4  -8    0.52    0.42
 -15   4   8   -0.05    0.37
  14  -4  -8   21.07    2.00
 -14   4   8   24.52    1.79
  13  -4  -8    5.64    1.08
 -13   4   8    4.76    1.00
  12  -4  -8   14.20    1.57
 -12   4   8   13.49    1.53
  11  -4  -8    0.25    0.36
 -11   4   8    0.30    0.35
  10  -4  -8    0.21    0.27
 -10  -4   8   -0.14    0.21
 -10   4   8    0.13    0.30
   9  -4  -8    6.60    0.93
  -9  -4   8   11.25    1.15
  -9   4   8   10.48    1.17
  -9   4   8    8.21    0.97
   8  -4  -8   29.29    1.57
  -8  -4   8   28.11    1.47
  -8   4   8   31.91    1.52
  -8   4   8   29.92    1.58
  -7  -4   8    8.01    0.93
   7  -4  -8   11.81    1.18
  -7   4   8   11.02    1.16
  -7   4   8   10.42    1.07
   6  -4  -8   71.23    2.35
  -6  -4   8   69.23    2.31
  -6   4   8   67.92    2.25
  -6   4   8   66.88    2.27
  -5  -4   8    6.19    0.83
   5  -4  -8    8.49    0.95
  -5   4   8    4.72    0.71
  -5   4   8    6.57    0.83
  -4  -4   8   33.79    1.59
  -4  -4   8   33.10    1.58
  -4   4   8   31.76    1.51
  -4   4   8   30.63    1.47
  -3  -4   8   21.01    1.25
  -3  -4   8   24.20    1.34
  -3   4   8   24.66    1.35
  -3   4   8   22.48    1.24
  -2  -4   8   52.76    1.98
  -2  -4   8   50.24    1.94
  -2   4   8   54.42    1.97
  -2   4   8   44.01    1.82
  -1  -4   8   14.82    1.09
  -1  -4   8   15.58    1.09
  -1   4   8   15.91    1.07
  -1   4   8   16.00    1.09
   0  -4   8    6.41    0.87
   0  -4   8    6.97    0.88
   0   4   8    6.40    0.85
   0   4   8    6.79    0.87
   1  -4   8    0.17    0.25
   1  -4   8   -0.02    0.21
   1   4   8    0.12    0.23
   1   4   8    0.30    0.25
   2  -4   8   34.08    1.60
   2  -4   8   36.15    1.80
   2   4   8   33.42    1.67
   2   4   8   36.41    1.71
   3  -4   8    6.03    0.92
   3  -4   8    7.17    0.87
   3   4   8    7.05    0.97
   3   4   8    7.26    0.93
   4  -4   8    6.48    0.93
   4  -4   8    6.48    0.84
   4  -4   8    7.37    1.08
   4   4   8    6.37    0.97
   4   4   8    7.88    1.00
   5  -4   8   10.23    1.08
   5  -4   8   10.30    1.32
   5   4   8    9.45    1.16
   6  -4   8   12.54    1.48
   6  -4   8   15.23    1.42
   6   4   8   11.48    1.34
   7  -4   8   17.68    1.78
   7  -4   8   18.77    1.38
   7   4   8   17.08    1.70
   8  -4   8    2.54    0.67
   8  -4   8    2.34    0.78
   8   4   8    1.39    0.64
   9  -4   8   27.55    1.87
   9  -4   8   24.48    1.94
   9   4   8   25.60    1.95
  10  -4   8    2.59    0.79
  10  -4   8    3.08    0.89
  10   4   8    3.14    0.90
  14  -5  -8    1.28    0.68
 -14   5   8    3.28    0.93
  13  -5  -8    6.06    1.13
 -13   5   8    5.76    1.12
  12  -5  -8    0.24    0.40
 -12   5   8    0.33    0.41
  11  -5  -8    0.46    0.41
 -11   5   8    0.70    0.40
  10  -5  -8    7.49    1.09
 -10  -5   8    5.14    0.82
 -10   5   8    5.51    0.91
  -9  -5   8    5.11    0.82
   9  -5  -8    4.10    0.80
  -9   5   8    4.42    0.81
  -9   5   8    6.66    0.93
  -8  -5   8   30.97    1.67
   8  -5  -8   32.46    1.76
  -8   5   8   32.34    1.66
  -8   5   8   33.86    1.77
  -7  -5   8   64.72    2.42
   7  -5  -8   65.98    2.50
  -7   5   8   69.74    2.43
  -7   5   8   69.19    2.50
   6  -5  -8    3.96    0.75
  -6  -5   8    3.90    0.75
  -6   5   8    2.76    0.60
  -6   5   8    3.51    0.72
  -5  -5   8    0.50    0.31
   5  -5  -8    0.73    0.34
  -5   5   8    0.66    0.35
  -5   5   8    0.38    0.31
  -4  -5   8   23.08    1.40
  -4   5   8   23.54    1.42
  -4   5   8   23.63    1.38
  -3  -5   8   16.04    1.16
  -3  -5   8   17.44    1.22
  -3   5   8   17.07    1.17
  -3   5   8   18.20    1.25
  -2  -5   8   24.54    1.44
  -2  -5   8   22.94    1.39
  -2   5   8   25.17    1.47
  -2   5   8   22.14    1.34
  -1  -5   8   58.81    2.25
  -1  -5   8   58.70    2.24
  -1   5   8   58.44    2.19
  -1   5   8   57.12    2.24
   0  -5   8    0.31    0.33
   0  -5   8    0.06    0.26
   0   5   8    0.24    0.24
   0   5   8    0.35    0.28
   1  -5   8   61.70    2.27
   1  -5   8   57.71    2.33
   1   5   8   59.77    2.35
   1   5   8   57.40    2.26
   2  -5   8   79.79    2.80
   2  -5   8   80.60    2.62
   2   5   8   75.70    2.67
   2   5   8   73.57    2.65
   3  -5   8   20.21    1.34
   3  -5   8   20.04    1.46
   3   5   8   18.97    1.39
   3   5   8   18.25    1.32
   4  -5   8    6.19    1.02
   4   5   8    8.47    1.12
   4   5   8    6.68    1.01
   5  -5   8    1.64    0.58
   5   5   8    0.45    0.38
   5   5   8    0.92    0.46
   6  -5   8    0.06    0.34
   6   5   8    0.09    0.33
   7  -5   8   -0.06    0.39
   7   5   8    0.28    0.37
   8  -5   8   17.80    1.95
   8   5   8   22.60    2.10
   9  -5   8    0.40    0.50
   9   5   8    0.97    0.54
  13  -6  -8    1.32    0.65
 -13   6   8    0.08    0.46
  12  -6  -8   28.99    2.01
  11  -6  -8    2.03    0.72
 -11   6   8    1.85    0.63
 -10  -6   8    3.23    0.75
  10  -6  -8    5.27    0.98
 -10   6   8    5.18    1.00
  -9  -6   8    2.57    0.64
   9  -6  -8    1.97    0.62
  -9   6   8    2.92    0.73
  -9   6   8    2.14    0.61
   8  -6  -8   19.07    1.78
  -8  -6   8   23.01    1.54
  -8   6   8   19.89    1.42
  -8   6   8   22.25    1.53
  -7  -6   8    0.00    0.25
   7  -6  -8    0.33    0.40
  -7   6   8    0.16    0.32
  -7   6   8   -0.10    0.26
  -6  -6   8   50.39    2.27
   6  -6  -8   47.90    2.22
  -6   6   8   48.10    2.18
  -6   6   8   50.88    2.24
  -5  -6   8    2.97    0.69
  -5   6   8    4.18    0.78
  -5   6   8    3.12    0.68
  -4  -6   8    0.06    0.24
  -4   6   8   -0.15    0.23
  -4   6   8    0.19    0.28
  -3  -6   8   30.42    1.74
  -3  -6   8   32.42    1.77
  -3   6   8   33.86    1.75
  -2  -6   8    1.34    0.49
  -2  -6   8    1.54    0.51
  -2   6   8    0.54    0.35
  -2   6   8    1.60    0.51
  -1  -6   8   -0.09    0.20
  -1  -6   8    0.09    0.26
  -1   6   8    0.04    0.29
  -1   6   8    0.00    0.18
   0  -6   8    2.55    0.63
   0  -6   8    2.46    0.64
   0   6   8    2.18    0.59
   0   6   8    2.82    0.71
   1  -6   8    0.38    0.36
   1  -6   8    0.24    0.29
   1   6   8    0.26    0.32
   1   6   8    0.51    0.35
   2  -6   8    9.80    1.22
   2  -6   8    8.99    1.21
   2   6   8    6.15    0.96
   2   6   8    8.67    1.16
   3  -6   8   33.91    1.84
   3  -6   8   31.59    1.91
   3   6   8   28.75    1.79
   3   6   8   35.39    1.95
   4  -6   8    1.61    0.66
   4  -6   8    1.41    0.63
   4   6   8    1.18    0.52
   4   6   8    2.37    0.66
   5  -6   8    1.17    0.56
   5   6   8    1.02    0.47
   5   6   8    0.95    0.53
   6  -6   8    0.64    0.49
   6   6   8    1.34    0.52
   7  -6   8    0.72    0.57
   7   6   8    0.48    0.53
   8  -6   8   11.73    1.67
   8   6   8   11.48    1.60
  12  -7  -8    4.27    1.02
 -12   7   8    4.01    0.96
  11  -7  -8   10.29    1.50
 -11   7   8    8.75    1.32
 -10  -7   8    0.39    0.47
  10  -7  -8    0.25    0.41
 -10   7   8    0.11    0.38
   9  -7  -8   39.72    2.28
  -9  -7   8   41.02    2.25
  -9   7   8   40.79    2.21
  -9   7   8   42.54    2.32
   8  -7  -8    7.12    1.17
  -8  -7   8    3.01    0.78
  -8   7   8    4.01    0.85
  -8   7   8    6.20    1.06
  -7  -7   8    8.11    1.19
   7  -7  -8    9.77    1.34
  -7   7   8   10.52    1.36
  -7   7   8   11.41    1.40
  -6  -7   8    9.49    1.30
  -6   7   8   12.47    1.48
  -6   7   8    9.55    1.27
  -5  -7   8   20.91    1.59
  -5   7   8   19.80    1.47
  -5   7   8   23.36    1.67
  -4  -7   8    7.86    1.16
  -4   7   8    7.87    1.11
  -4   7   8    8.11    1.19
  -3  -7   8   16.51    1.65
  -3   7   8   14.34    1.52
  -3   7   8   21.05    1.49
  -2  -7   8   10.38    1.34
  -2  -7   8    6.99    1.09
  -2   7   8    8.02    1.18
  -2   7   8    5.72    0.95
  -1  -7   8   42.19    2.14
  -1  -7   8   40.50    2.16
  -1   7   8   39.06    2.03
  -1   7   8   40.84    2.20
   0  -7   8   21.23    1.57
   0  -7   8   18.35    1.75
   0   7   8   21.39    1.60
   0   7   8   20.20    1.50
   1  -7   8    3.56    0.80
   1  -7   8    2.71    0.68
   1   7   8    2.31    0.62
   1   7   8    2.94    0.74
   2  -7   8    2.32    0.63
   2  -7   8    3.65    0.83
   2   7   8    4.17    0.87
   2   7   8    3.91    0.85
   3  -7   8   22.52    1.63
   3  -7   8   24.30    1.78
   3   7   8   22.97    1.71
   3   7   8   23.60    1.71
   4  -7   8    1.78    0.63
   4   7   8    0.40    0.39
   4   7   8    1.27    0.52
   5  -7   8    1.13    0.60
   5   7   8    3.11    0.85
   5   7   8    2.75    0.80
   6  -7   8   10.78    1.57
  10  -8  -8   52.06    2.83
 -10  -8   8   50.68    2.69
 -10   8   8   49.60    2.75
   9  -8  -8   14.29    1.71
  -9  -8   8   13.50    1.69
  -9   8   8   11.60    1.58
  -8  -8   8    5.83    1.12
   8  -8  -8    5.49    1.05
  -8   8   8    7.25    1.26
  -8   8   8    4.92    1.00
  -7  -8   8    2.46    0.79
  -7   8   8    2.10    0.69
  -7   8   8    2.29    0.75
  -6  -8   8   10.78    1.48
  -6   8   8    9.15    1.34
  -6   8   8    7.95    1.22
  -5  -8   8    1.29    0.60
  -5   8   8    1.51    0.57
  -5   8   8    1.35    0.57
  -4  -8   8   12.49    1.51
  -4   8   8   10.25    1.43
  -4   8   8   13.36    1.52
  -3  -8   8    0.39    0.44
  -3   8   8   -0.13    0.35
  -3   8   8   -0.18    0.32
  -2  -8   8    2.36    0.73
  -2   8   8    3.72    0.85
  -2   8   8    2.54    0.82
  -1  -8   8    5.05    0.98
  -1  -8   8    5.80    1.06
  -1   8   8    3.99    0.92
  -1   8   8    5.20    0.98
   0  -8   8    1.00    0.60
   0  -8   8    0.54    0.43
   0   8   8   -0.02    0.46
   0   8   8    0.44    0.46
   1  -8   8   42.51    2.40
   1  -8   8   41.02    2.29
   1   8   8   39.65    2.35
   1   8   8   42.06    2.29
   2  -8   8    4.65    0.99
   2  -8   8    4.47    0.97
   2   8   8    3.48    0.84
   2   8   8    4.12    0.90
   3  -8   8    7.96    1.28
   3  -8   8    8.51    1.33
   3   8   8    6.59    1.15
   3   8   8    7.21    1.23
   4  -8   8    1.59    0.70
   4   8   8    0.73    0.50
   4   8   8    0.67    0.54
  -6  -9   8    0.29    0.52
  -6   9   8   -0.17    0.51
  -6   9   8    0.10    0.51
  -5  -9   8    0.00    0.38
  -5   9   8    0.30    0.44
  -5   9   8   -0.26    0.38
  -4  -9   8    0.15    0.45
  -4   9   8    0.14    0.43
  -4   9   8    0.61    0.44
  -3  -9   8    0.19    0.44
  -3   9   8    0.44    0.53
  -3   9   8   -0.44    0.32
  -2  -9   8    2.32    0.76
  -2   9   8    1.63    0.75
  -2   9   8    1.20    0.56
  -1  -9   8    5.95    1.19
  -1   9   8    5.58    1.10
  -1   9   8    4.15    1.00
   0  -9   8    1.89    0.72
   0  -9   8    1.37    0.65
   0   9   8    1.50    0.66
   0   9   8    1.61    0.74
   1  -9   8    3.79    0.94
   1  -9   8    3.36    0.92
   1   9   8    2.84    0.88
   1   9   8    3.92    0.96
  14   0  -9    0.22    0.36
 -14   0   9    0.51    0.44
  13   0  -9    0.19    0.31
 -13   0   9   -0.11    0.28
  12   0  -9   -0.03    0.24
 -12   0   9   -0.22    0.24
 -11   0   9   -0.09    0.21
  11   0  -9    0.30    0.28
  10   0  -9    0.25    0.22
 -10   0   9   -0.01    0.18
  -9   0   9    0.03    0.24
  -9   0   9   -0.20    0.16
   9   0  -9    0.87    0.32
   8   0  -9   -0.05    0.14
  -8   0   9   -0.04    0.19
  -8   0   9    0.09    0.18
   7   0  -9    0.03    0.16
  -7   0   9   -0.15    0.15
  -7   0   9    0.12    0.17
   6   0  -9   -0.11    0.15
  -6   0   9    0.23    0.16
  -6   0   9   -0.02    0.18
  -5   0   9   -0.19    0.13
  -5   0   9   -0.02    0.18
  -4   0   9    0.01    0.19
  -4   0   9    0.02    0.12
  -4   0   9    0.06    0.13
  -3   0   9   -0.11    0.10
  -3   0   9    0.06    0.16
  -3   0   9   -0.26    0.10
  -2   0   9   -0.12    0.13
  -2   0   9    0.02    0.13
  -2   0   9    0.09    0.16
  -1   0   9   -0.11    0.10
  -1   0   9    0.08    0.16
  -1   0   9   -0.14    0.15
   0   0   9    0.60    0.29
   0   0   9    0.01    0.14
   0   0   9   -0.16    0.14
   1   0   9   -0.01    0.13
   1   0   9   -0.12    0.16
   1   0   9    0.15    0.16
   2   0   9    0.04    0.18
   2   0   9    0.04    0.17
   2   0   9   -0.09    0.17
   3   0   9    0.03    0.17
   3   0   9    0.13    0.21
   3   0   9   -0.12    0.17
   4   0   9   -0.03    0.25
   4   0   9   -0.05    0.21
   4   0   9    0.20    0.24
   5   0   9   -0.08    0.19
   5   0   9    0.01    0.24
   6   0   9   -0.16    0.19
   6   0   9    0.22    0.34
   7   0   9    0.28    0.31
   7   0   9    0.01    0.34
   8   0   9   -0.21    0.27
   8   0   9   -0.11    0.35
   9   0   9    0.11    0.38
   9   0   9    0.27    0.40
  10   0   9    0.03    0.39
  10   0   9   -0.11    0.37
  16  -1  -9    2.01    0.78
 -16   1   9    1.90    0.68
  15  -1  -9    0.00    0.40
 -15   1   9   -0.24    0.35
  14  -1  -9    3.85    0.81
 -14   1   9    3.32    0.77
  13  -1  -9   13.20    1.37
 -13   1   9   10.68    1.20
  12  -1  -9    1.86    0.50
 -12   1   9    1.69    0.47
  11  -1  -9    5.78    0.81
 -11   1   9    5.01    0.76
  10  -1  -9    0.08    0.25
 -10   1   9    0.33    0.24
  -9  -1   9   65.23    2.03
   9  -1  -9   67.56    2.09
  -9   1   9   71.20    2.13
  -9   1   9   65.74    2.02
   8  -1  -9   15.91    0.95
  -8  -1   9   14.80    0.96
  -8   1   9   15.98    0.98
  -8   1   9   16.84    0.97
   7  -1  -9  102.73    2.40
  -7  -1   9  104.72    2.60
  -7  -1   9  102.40    1.99
   7   1  -9  103.85    2.02
  -7   1   9  106.52    2.61
  -7   1   9  107.14    2.43
  -6  -1   9    8.04    0.49
  -6  -1   9    6.74    0.78
   6  -1  -9    7.98    0.75
   6   1  -9    7.35    0.47
  -6   1   9    5.97    0.65
  -6   1   9    8.73    0.88
  -5  -1   9  114.30    1.88
  -5  -1   9  114.62    2.74
  -5   1   9  115.64    2.73
  -5   1   9  115.11    2.42
  -4  -1   9   25.40    1.17
  -4  -1   9   25.01    0.80
  -4  -1   9   26.63    1.27
  -4   1   9   26.45    1.08
  -4   1   9   26.09    1.25
  -3  -1   9   34.17    1.33
  -3  -1   9   33.27    0.96
  -3  -1   9   32.77    1.41
  -3   1   9   33.69    1.43
  -3   1   9   32.61    1.21
  -3   1   9   33.34    1.11
  -2  -1   9  180.68    3.55
  -2  -1   9  180.14    2.73
  -2  -1   9  179.52    3.40
  -2   1   9  172.98    3.49
  -2   1   9  178.58    3.18
  -2   1   9  181.46    2.98
  -1  -1   9  144.02    3.07
  -1  -1   9  147.46    3.17
  -1  -1   9  147.33    2.54
  -1   1   9  150.26    3.20
  -1   1   9  144.06    2.71
  -1   1   9  148.89    2.92
   0  -1   9    0.75    0.25
   0  -1   9    0.44    0.26
   0  -1   9    0.95    0.34
   0   1   9    1.31    0.36
   0   1   9    0.92    0.27
   0   1   9    0.64    0.24
   1  -1   9   69.50    2.20
   1  -1   9   64.52    1.82
   1  -1   9   69.30    2.11
   1   1   9   65.10    1.93
   1   1   9   65.76    2.02
   1   1   9   67.25    2.09
   2  -1   9    6.72    0.85
   2  -1   9    7.18    0.84
   2  -1   9    7.21    0.78
   2   1   9    7.91    0.89
   2   1   9    6.33    0.76
   2   1   9    7.65    0.87
   3  -1   9   72.01    2.17
   3  -1   9   72.04    2.15
   3  -1   9   72.69    2.44
   3   1   9   70.60    2.26
   3   1   9   73.04    2.32
   4  -1   9   -0.12    0.21
   4  -1   9    0.18    0.27
   4   1   9    0.30    0.25
   4   1   9   -0.12    0.18
   4   1   9    0.18    0.25
   5  -1   9   37.59    1.90
   5  -1   9   37.25    1.73
   5   1   9   36.72    1.81
   5   1   9   37.68    1.83
   6  -1   9    8.81    1.10
   6  -1   9   11.02    1.35
   6   1   9   10.47    1.23
   6   1   9    9.35    1.14
   7  -1   9   17.09    1.59
   7  -1   9   17.63    1.76
   7   1   9   15.96    1.55
   7   1   9   18.39    1.41
   8  -1   9    0.00    0.30
   8  -1   9    0.35    0.37
   8   1   9    0.29    0.40
   8   1   9    0.32    0.41
   9  -1   9    1.89    0.67
   9  -1   9    1.24    0.53
   9   1   9    1.27    0.61
   9   1   9    1.11    0.55
  10  -1   9    2.66    0.81
  10  -1   9    3.35    0.92
  10   1   9    2.01    0.74
  10   1   9    2.62    0.84
  16  -2  -9   23.00    2.09
 -16   2   9   21.97    2.02
  15  -2  -9    1.96    0.72
 -15   2   9    1.70    0.60
  14  -2  -9   11.60    1.37
 -14   2   9   12.04    1.41
  13  -2  -9    0.08    0.26
 -13   2   9    0.08    0.24
  12  -2  -9   34.20    1.78
 -12   2   9   38.02    1.87
  11  -2  -9    6.79    0.92
 -11   2   9    6.22    0.87
 -10  -2   9    7.87    0.89
  10  -2  -9   11.34    1.16
 -10   2   9    9.03    1.04
   9  -2  -9    1.16    0.38
  -9  -2   9    1.64    0.44
  -9   2   9    1.21    0.41
  -9   2   9    2.31    0.51
   8  -2  -9    5.52    0.73
  -8  -2   9    5.54    0.75
  -8   2   9    4.94    0.71
  -8   2   9    4.27    0.66
  -7  -2   9   51.51    1.85
   7  -2  -9   53.76    1.82
  -7   2   9   49.73    1.79
  -7   2   9   53.35    1.80
  -6  -2   9    0.32    0.25
   6  -2  -9    0.56    0.27
  -6   2   9    0.54    0.25
  -6   2   9    0.66    0.34
  -5  -2   9   49.99    1.80
   5  -2  -9   52.69    1.70
  -5   2   9   49.97    1.80
  -5   2   9   51.18    1.70
  -4  -2   9  142.97    3.13
  -4  -2   9  139.56    3.14
  -4   2   9  140.19    2.91
  -4   2   9  143.52    3.18
  -3  -2   9   45.50    1.68
  -3  -2   9   43.77    1.68
  -3   2   9   43.11    1.67
  -3   2   9   43.81    1.55
  -2  -2   9   80.39    2.31
  -2  -2   9   78.85    2.30
  -2   2   9   81.13    2.34
  -2   2   9   80.08    2.16
  -2   2   9   79.86    1.66
  -1  -2   9   40.92    1.13
  -1  -2   9   44.90    1.72
  -1  -2   9   40.94    1.63
  -1   2   9   44.75    1.62
  -1   2   9   41.42    1.66
  -1   2   9   42.31    1.24
   0  -2   9   61.92    2.10
   0  -2   9   64.49    2.06
   0  -2   9   60.17    1.54
   0   2   9   62.50    1.99
   0   2   9   63.88    1.69
   0   2   9   62.90    2.08
   1  -2   9    8.20    0.89
   1  -2   9    7.39    0.90
   1  -2   9    6.65    0.65
   1   2   9    6.89    0.84
   1   2   9    7.94    0.87
   1   2   9    8.36    0.67
   2  -2   9  153.10    3.67
   2  -2   9  151.37    3.03
   2  -2   9  156.68    3.35
   2   2   9  155.22    3.53
   2   2   9  152.00    3.41
   2   2   9  152.63    3.18
   3  -2   9    0.40    0.28
   3  -2   9    0.49    0.26
   3  -2   9    0.62    0.31
   3   2   9    0.58    0.30
   3   2   9    0.94    0.37
   3   2   9    0.26    0.26
   4  -2   9   54.07    1.96
   4  -2   9   55.11    2.27
   4   2   9   49.37    1.95
   4   2   9   50.67    1.90
   4   2   9   49.73    2.08
   5  -2   9   16.50    1.59
   5  -2   9   21.17    1.31
   5   2   9   18.86    1.28
   5   2   9   21.04    1.40
   6  -2   9   30.15    1.83
   6  -2   9   34.99    1.77
   6   2   9   33.19    1.86
   6   2   9   29.57    1.68
   7  -2   9   -0.05    0.29
   7  -2   9   -0.28    0.19
   7   2   9    0.17    0.29
   7   2   9    0.34    0.40
   8  -2   9   10.28    1.31
   8  -2   9   10.66    1.43
   8   2   9    9.63    1.36
   8   2   9   13.09    1.51
   9  -2   9    0.35    0.42
   9  -2   9    0.69    0.47
   9   2   9   -0.24    0.29
   9   2   9    0.11    0.41
  10  -2   9   19.48    2.16
  10  -2   9   24.44    2.21
  10   2   9   25.41    1.92
  10   2   9   27.17    2.45
  16  -3  -9    6.19    1.13
 -16   3   9    8.47    1.35
  15  -3  -9   12.07    1.50
 -15   3   9   11.40    1.49
  14  -3  -9    0.17    0.30
 -14   3   9    0.08    0.29
  13  -3  -9    4.44    0.89
 -13   3   9    7.30    1.11
  12  -3  -9    1.44    0.51
 -12   3   9    0.85    0.45
  11  -3  -9    0.65    0.37
 -11   3   9    0.54    0.36
 -10  -3   9    1.34    0.41
  10  -3  -9    1.17    0.44
 -10   3   9    2.36    0.60
  -9  -3   9    6.13    0.84
   9  -3  -9    5.84    0.85
  -9   3   9    5.73    0.79
  -9   3   9    6.08    0.89
   8  -3  -9   15.37    1.08
  -8  -3   9   15.08    1.06
  -8   3   9   14.67    1.06
  -8   3   9   15.06    1.03
   7  -3  -9    0.19    0.23
  -7  -3   9    0.77    0.32
  -7   3   9    0.54    0.31
  -7   3   9    0.79    0.34
   6  -3  -9    4.28    0.67
  -6  -3   9    5.82    0.81
  -6   3   9    5.59    0.75
  -6   3   9    7.01    0.86
  -5  -3   9    2.94    0.60
  -5   3   9    2.62    0.53
  -5   3   9    3.07    0.59
  -4  -3   9    2.74    0.54
  -4  -3   9    3.22    0.59
  -4   3   9    3.45    0.62
  -4   3   9    3.11    0.54
  -3  -3   9    0.03    0.17
  -3  -3   9   -0.18    0.12
  -3   3   9    0.16    0.24
  -3   3   9   -0.07    0.16
  -2  -3   9    7.38    0.88
  -2  -3   9   10.05    1.03
  -2   3   9    8.10    0.91
  -2   3   9    7.85    0.86
  -1  -3   9    3.22    0.60
  -1  -3   9    1.97    0.46
  -1   3   9    2.42    0.54
  -1   3   9    2.24    0.47
   0  -3   9   13.93    1.04
   0  -3   9   16.01    1.06
   0   3   9   15.82    1.06
   0   3   9   16.04    1.08
   1  -3   9   20.65    1.31
   1  -3   9   21.92    1.25
   1   3   9   22.38    1.29
   1   3   9   24.32    1.34
   2  -3   9    6.20    0.81
   2  -3   9    7.78    0.90
   2  -3   9    7.92    1.01
   2   3   9    9.02    1.03
   2   3   9    7.57    0.97
   3  -3   9    1.40    0.53
   3  -3   9    2.00    0.45
   3   3   9    2.20    0.54
   3   3   9    1.79    0.46
   4  -3   9   14.02    1.01
   4  -3   9   11.36    1.27
   4   3   9   13.24    1.30
   4   3   9   14.57    1.05
   5  -3   9   85.99    3.05
   5  -3   9   84.06    2.64
   5   3   9   80.89    2.89
   5   3   9   84.14    2.68
   6  -3   9    8.89    1.24
   6  -3   9   10.09    1.15
   6   3   9   11.39    1.38
   6   3   9   12.30    1.31
   7  -3   9   20.05    1.45
   7  -3   9   19.70    1.59
   7   3   9   24.41    1.60
   7   3   9   21.94    1.64
   8  -3   9    7.82    1.17
   8  -3   9    8.49    1.30
   8   3   9    7.03    1.08
   8   3   9    8.90    1.29
   9  -3   9    2.72    0.78
   9  -3   9    2.45    0.84
   9   3   9    2.78    0.86
   9   3   9    3.06    0.87
  15  -4  -9    1.03    0.65
 -15   4   9    1.62    0.69
  14  -4  -9   52.04    2.66
 -14   4   9   58.63    2.79
  13  -4  -9    8.95    1.23
 -13   4   9    9.04    1.26
  12  -4  -9    5.29    0.96
 -12   4   9    3.55    0.80
  11  -4  -9    0.47    0.40
 -11   4   9    0.42    0.33
 -10  -4   9    1.42    0.47
  10  -4  -9    1.37    0.48
 -10   4   9    1.14    0.43
  -9  -4   9   23.17    1.39
   9  -4  -9   25.78    1.55
  -9   4   9   21.95    1.42
  -9   4   9   22.47    1.34
  -8  -4   9    0.23    0.31
   8  -4  -9   -0.11    0.17
  -8   4   9    0.50    0.32
  -8   4   9   -0.10    0.23
  -7  -4   9   14.54    1.36
   7  -4  -9   11.76    1.23
  -7   4   9   12.82    1.26
  -7   4   9   10.91    1.12
   6  -4  -9   75.90    2.48
  -6  -4   9   79.35    2.55
  -6   4   9   75.18    2.45
  -6   4   9   74.80    2.45
  -5  -4   9    0.78    0.39
  -5   4   9    2.77    0.61
  -5   4   9    1.45    0.42
  -4  -4   9   13.31    1.05
  -4  -4   9   14.44    1.09
  -4   4   9   12.88    0.98
  -4   4   9   11.28    1.15
  -3  -4   9    9.79    1.11
  -3  -4   9    8.11    0.97
  -3   4   9    8.37    0.95
  -3   4   9   11.05    1.13
  -2  -4   9    4.21    0.72
  -2  -4   9    2.56    0.57
  -2   4   9    2.68    0.60
  -2   4   9    4.08    0.68
  -1  -4   9   12.04    1.25
  -1  -4   9   10.72    1.10
  -1   4   9   10.68    1.11
  -1   4   9    9.41    1.07
   0  -4   9   89.55    2.73
   0  -4   9   91.07    2.85
   0   4   9   91.94    2.82
   0   4   9   95.44    2.81
   1  -4   9    7.26    0.95
   1  -4   9    4.26    0.81
   1   4   9    5.00    0.79
   1   4   9    3.95    0.72
   2  -4   9    0.12    0.30
   2  -4   9    0.15    0.25
   2   4   9    0.17    0.29
   2   4   9   -0.06    0.24
   3  -4   9   14.88    1.11
   3  -4   9   13.41    1.41
   3   4   9   10.36    1.22
   3   4   9   15.54    1.20
   4  -4   9    1.50    0.56
   4   4   9    2.09    0.57
   4   4   9    2.42    0.66
   5  -4   9    2.90    0.76
   5   4   9    1.28    0.46
   6  -4   9    9.61    1.33
   6   4   9    9.67    1.26
   7  -4   9    0.08    0.38
   7   4   9   -0.17    0.27
   8  -4   9   -0.23    0.36
   8  -4   9    0.43    0.48
   8   4   9    0.47    0.49
   9  -4   9    6.35    1.14
   9  -4   9   12.62    1.76
   9   4   9    9.58    1.46
  14  -5  -9   11.55    1.56
 -14   5   9   12.99    1.64
  13  -5  -9   18.82    1.92
 -13   5   9   24.46    1.81
  12  -5  -9    4.47    0.97
 -12   5   9    5.56    1.05
  11  -5  -9   67.07    2.82
 -11   5   9   64.38    2.76
 -10  -5   9    0.83    0.44
  10  -5  -9    0.89    0.51
 -10   5   9    0.99    0.50
   9  -5  -9   10.25    1.26
  -9  -5   9   15.63    1.52
  -9   5   9    8.85    1.16
  -9   5   9   13.30    1.36
  -8  -5   9    1.96    0.58
   8  -5  -9    2.62    0.67
  -8   5   9    1.60    0.51
  -8   5   9    1.83    0.57
   7  -5  -9   34.65    1.82
  -7  -5   9   38.02    1.86
  -7   5   9   36.61    1.82
  -7   5   9   37.82    1.88
   6  -5  -9    6.11    0.90
  -6  -5   9    4.36    0.82
  -6   5   9    3.16    0.67
  -6   5   9    4.55    0.79
  -5  -5   9   67.30    2.48
  -5   5   9   66.40    2.44
  -5   5   9   66.69    2.43
  -4  -5   9   28.77    1.62
  -4  -5   9   32.35    1.71
  -4   5   9   33.83    1.70
  -4   5   9   32.69    1.70
  -3  -5   9   50.88    2.16
  -3  -5   9   49.31    2.11
  -3   5   9   51.47    2.16
  -3   5   9   52.16    2.10
  -2  -5   9   36.63    1.82
  -2  -5   9   35.43    1.80
  -2   5   9   36.68    1.83
  -2   5   9   38.82    1.84
  -1  -5   9   54.92    2.26
  -1  -5   9   54.23    2.21
  -1   5   9   54.96    2.26
  -1   5   9   52.62    2.17
   0  -5   9    1.31    0.45
   0  -5   9    1.63    0.51
   0   5   9    1.60    0.49
   0   5   9    1.56    0.52
   1  -5   9    6.31    0.91
   1  -5   9    4.41    0.82
   1   5   9    6.72    1.00
   1   5   9    4.64    0.80
   2  -5   9   20.37    1.46
   2  -5   9   19.17    1.33
   2   5   9   17.64    1.33
   2   5   9   19.75    1.41
   3  -5   9   42.72    2.21
   3  -5   9   42.12    1.95
   3   5   9   47.39    2.22
   3   5   9   41.47    2.05
   4  -5   9   16.57    1.72
   4   5   9   13.32    1.38
   4   5   9   13.39    1.50
   5  -5   9    7.98    1.25
   5   5   9    5.76    1.01
   6  -5   9    5.52    1.03
   6   5   9    7.27    1.15
   7  -5   9    6.18    1.17
   7   5   9    5.14    1.03
   8  -5   9   -0.12    0.40
   8   5   9    0.94    0.51
  13  -6  -9    1.20    0.59
 -13   6   9    1.22    0.68
  12  -6  -9    4.04    0.93
 -12   6   9    3.41    0.89
  11  -6  -9   16.44    1.73
 -11   6   9   16.95    1.76
  10  -6  -9    4.97    0.94
 -10  -6   9    7.80    1.18
 -10   6   9    5.51    0.97
   9  -6  -9    7.72    1.16
  -9  -6   9    5.21    0.96
  -9   6   9    7.43    1.12
  -9   6   9    7.68    1.11
   8  -6  -9   50.40    2.38
  -8  -6   9   54.19    2.43
  -8   6   9   45.88    2.19
  -8   6   9   47.17    2.30
  -7  -6   9    1.75    0.58
   7  -6  -9    0.54    0.41
  -7   6   9    1.22    0.53
  -7   6   9    2.16    0.63
  -6  -6   9   46.59    2.24
  -6   6   9   46.19    2.21
  -6   6   9   45.58    2.17
  -5  -6   9    6.25    1.01
  -5   6   9    5.96    0.99
  -5   6   9    5.19    0.93
  -4  -6   9    6.01    0.95
  -4   6   9    6.51    1.02
  -4   6   9    6.93    1.00
  -3  -6   9    8.68    1.13
  -3  -6   9    8.64    1.16
  -3   6   9    7.39    1.01
  -3   6   9    7.17    1.06
  -2  -6   9    1.06    0.44
  -2  -6   9    0.74    0.43
  -2   6   9    0.41    0.32
  -2   6   9    0.42    0.31
  -1  -6   9    0.18    0.36
  -1  -6   9    0.47    0.40
  -1   6   9   -0.04    0.26
  -1   6   9    0.95    0.48
   0  -6   9   30.76    1.80
   0  -6   9   29.85    1.79
   0   6   9   32.36    1.89
   0   6   9   32.82    1.84
   1  -6   9   -0.13    0.26
   1  -6   9    0.20    0.36
   1   6   9    0.34    0.35
   1   6   9    0.43    0.35
   2  -6   9    3.51    0.76
   2  -6   9    1.38    0.53
   2   6   9    0.61    0.37
   2   6   9    1.17    0.48
   3  -6   9    1.22    0.63
   3  -6   9    2.90    0.72
   3   6   9    1.93    0.63
   3   6   9    1.94    0.60
   4  -6   9    4.43    0.96
   4   6   9    3.88    0.79
   4   6   9    1.47    0.55
   5  -6   9    4.94    1.06
   5   6   9    2.21    0.71
   5   6   9    5.13    0.96
   6  -6   9   14.66    1.80
   6   6   9   12.62    1.59
   7  -6   9    0.65    0.56
   7   6   9    0.23    0.48
  11  -7  -9    2.65    0.81
 -11   7   9    1.86    0.75
  10  -7  -9    3.73    0.91
 -10  -7   9    3.53    0.96
 -10   7   9    2.96    0.84
  -9  -7   9    0.33    0.39
   9  -7  -9   -0.07    0.39
  -9   7   9    0.41    0.48
  -9   7   9    0.41    0.38
  -8  -7   9    0.53    0.46
   8  -7  -9    1.39    0.61
  -8   7   9    0.75    0.51
  -8   7   9    0.56    0.45
  -7  -7   9    2.46    0.71
  -7   7   9    2.00    0.66
  -7   7   9    2.32    0.67
  -6  -7   9    3.21    0.77
  -6   7   9    2.40    0.72
  -6   7   9    4.40    0.91
  -5  -7   9   36.84    2.11
  -5   7   9   36.68    2.03
  -5   7   9   34.82    2.05
  -4  -7   9    8.36    1.22
  -4   7   9    8.59    1.17
  -4   7   9    6.44    1.08
  -3  -7   9    0.04    0.36
  -3   7   9   -0.22    0.23
  -3   7   9   -0.09    0.30
  -2  -7   9    2.22    0.65
  -2  -7   9    3.18    0.75
  -2   7   9    3.51    0.79
  -2   7   9    2.94    0.77
  -1  -7   9    1.51    0.59
  -1  -7   9    0.72    0.46
  -1   7   9    1.76    0.60
  -1   7   9    2.13    0.69
   0  -7   9    1.21    0.50
   0  -7   9    0.68    0.41
   0   7   9    1.30    0.53
   0   7   9    1.42    0.58
   1  -7   9   -0.23    0.31
   1  -7   9   -0.05    0.27
   1   7   9    0.51    0.50
   1   7   9    0.25    0.36
   2  -7   9    3.13    0.78
   2  -7   9    2.57    0.69
   2   7   9    3.89    0.89
   2   7   9    3.35    0.83
   3  -7   9   -0.29    0.39
   3  -7   9    0.13    0.39
   3   7   9    0.20    0.43
   3   7   9   -0.10    0.33
   4  -7   9   -0.06    0.36
   4   7   9    0.15    0.36
   4   7   9   -0.09    0.45
   5  -7   9    4.98    1.06
   5   7   9    7.53    1.25
   5   7   9    6.70    1.23
   9  -8  -9    2.61    0.87
  -9  -8   9    0.52    0.49
  -9   8   9    2.26    0.73
  -9   8   9    1.69    0.64
  -8  -8   9   14.48    1.74
  -8   8   9   14.02    1.70
  -8   8   9   14.80    1.76
  -7  -8   9   -0.23    0.36
  -7   8   9   -0.33    0.26
  -7   8   9    0.12    0.44
  -6  -8   9    8.08    1.33
  -6   8   9    5.88    1.14
  -6   8   9    4.99    0.98
  -5  -8   9    0.57    0.40
  -5   8   9    0.79    0.46
  -5   8   9    0.31    0.44
  -4  -8   9   12.05    1.56
  -4   8   9   15.13    1.71
  -4   8   9   13.19    1.53
  -3  -8   9    3.19    0.85
  -3   8   9    3.21    0.78
  -3   8   9    1.68    0.69
  -2  -8   9   24.08    1.82
  -2   8   9   20.15    1.90
  -2   8   9   22.93    2.17
  -1  -8   9    1.63    0.62
  -1  -8   9    1.84    0.69
  -1   8   9    2.94    0.83
  -1   8   9    1.18    0.54
   0  -8   9    3.42    0.83
   0  -8   9    4.49    0.96
   0   8   9    5.67    1.07
   0   8   9    3.17    0.82
   1  -8   9    0.11    0.37
   1  -8   9   -0.07    0.41
   1   8   9   -0.13    0.44
   1   8   9    0.73    0.52
   2  -8   9    9.45    1.40
   2  -8   9    9.37    1.35
   2   8   9    8.48    1.35
   2   8   9   10.64    1.47
   3  -8   9    0.57    0.53
   3  -8   9    0.64    0.53
   3   8   9    0.02    0.46
   3   8   9    0.44    0.46
  -5  -9   9    6.23    1.19
  -5   9   9    6.44    1.28
  -5   9   9    9.75    1.42
  -4  -9   9    0.18    0.52
  -4   9   9    0.04    0.42
  -4   9   9    0.84    0.60
  -3  -9   9    6.65    1.23
  -3   9   9    6.54    1.26
  -3   9   9    6.69    1.15
  -2  -9   9    0.30    0.47
  -2   9   9    0.64    0.53
  -2   9   9    0.51    0.56
  -1  -9   9    0.15    0.48
  -1   9   9   -0.36    0.35
  -1   9   9    0.03    0.46
 -11   0  10    0.57    0.29
  11   0 -10    0.26    0.22
  10   0 -10   33.16    1.42
 -10   0  10   33.14    1.42
 -10   0  10   32.56    1.47
  -9   0  10    1.76    0.39
   9   0 -10    1.35    0.36
  -9   0  10    1.63    0.45
  -8   0  10   15.69    0.86
   8   0 -10   17.36    0.92
  -8   0  10   14.68    1.01
  -7   0  10   46.58    1.76
  -7   0  10   43.50    1.40
   7   0 -10   44.99    1.43
  -6   0  10   22.64    1.21
  -6   0  10   21.73    0.96
  -5   0  10   58.33    1.97
  -5   0  10   55.91    1.50
  -4   0  10    8.68    0.93
  -4   0  10    7.20    0.73
  -4   0  10    7.95    0.56
  -3   0  10   88.15    2.47
  -3   0  10   88.26    1.97
  -3   0  10   84.96    2.14
  -2   0  10    6.98    0.73
  -2   0  10    8.35    0.90
  -2   0  10    6.67    0.65
  -1   0  10  272.42    4.17
  -1   0  10  277.22    4.80
  -1   0  10  273.32    4.47
   0   0  10   59.61    2.03
   0   0  10   60.35    1.82
   0   0  10   61.27    1.96
   1   0  10   49.80    1.85
   1   0  10   44.87    1.66
   1   0  10   50.88    1.86
   2   0  10  202.60    3.97
   2   0  10  210.76    4.09
   2   0  10  212.59    4.26
   3   0  10    9.64    1.02
   3   0  10   10.84    1.15
   4   0  10   27.94    1.54
   4   0  10   27.67    1.57
   5   0  10    0.67    0.37
   5   0  10    1.33    0.49
   6   0  10   26.26    1.68
   6   0  10   27.05    1.63
   7   0  10    1.82    0.56
   7   0  10    0.66    0.44
   8   0  10   27.15    1.92
   8   0  10   29.66    1.92
   9   0  10    1.00    0.54
   9   0  10    2.03    0.67
  15  -1 -10    1.93    0.61
 -15   1  10    2.82    0.72
  14  -1 -10   12.14    1.32
 -14   1  10    8.12    1.06
  13  -1 -10    1.32    0.49
 -13   1  10    2.27    0.60
  12  -1 -10   13.63    1.27
 -12   1  10   13.20    1.28
  11  -1 -10   41.94    1.81
 -11   1  10   44.00    1.83
  10  -1 -10   40.75    1.69
 -10  -1  10   41.71    1.70
 -10   1  10   42.77    1.72
 -10   1  10   43.37    1.72
  -9  -1  10   27.80    1.39
   9  -1 -10   25.97    1.28
  -9   1  10   26.54    1.29
  -9   1  10   26.38    1.35
   8  -1 -10    7.94    0.84
  -8  -1  10    7.03    0.87
  -8   1  10    7.92    0.92
  -8   1  10    7.64    0.79
   7  -1 -10    2.26    0.44
  -7  -1  10    1.30    0.39
  -7   1  10    1.63    0.43
  -7   1  10    1.62    0.38
  -6  -1  10    2.83    0.56
   6  -1 -10    2.12    0.42
  -6   1  10    2.50    0.44
  -6   1  10    2.94    0.54
  -5  -1  10   23.31    1.26
  -5   1  10   21.55    1.21
  -5   1  10   23.72    1.08
  -4  -1  10    2.46    0.35
  -4  -1  10    2.05    0.49
  -4  -1  10    2.17    0.45
  -4   1  10    1.56    0.35
  -4   1  10    2.40    0.51
  -4   1  10    2.48    0.40
  -3  -1  10   19.15    1.14
  -3  -1  10   18.41    0.77
  -3  -1  10   20.31    1.08
  -3   1  10   19.28    1.15
  -3   1  10   20.18    0.91
  -3   1  10   19.00    0.98
  -2  -1  10    4.18    0.65
  -2  -1  10    2.87    0.40
  -2  -1  10    2.10    0.48
  -2   1  10    2.91    0.51
  -2   1  10    2.48    0.51
  -2   1  10    1.61    0.34
  -1  -1  10    1.84    0.45
  -1  -1  10    0.77    0.32
  -1  -1  10    0.62    0.23
  -1   1  10    0.89    0.34
  -1   1  10    0.55    0.28
  -1   1  10    1.01    0.31
   0  -1  10   18.45    0.94
   0  -1  10   18.17    1.14
   0  -1  10   18.81    1.14
   0   1  10   15.97    0.99
   0   1  10   18.57    1.15
   0   1  10   18.40    1.02
   1  -1  10   67.44    2.28
   1  -1  10   69.75    1.99
   1  -1  10   64.21    2.15
   1   1  10   66.33    2.21
   1   1  10   66.23    2.12
   1   1  10   64.85    2.04
   2  -1  10  137.89    3.09
   2  -1  10  145.96    3.54
   2  -1  10  139.30    3.25
   2   1  10  140.24    3.27
   2   1  10  137.61    3.28
   2   1  10  143.88    3.35
   3  -1  10   68.64    2.48
   3  -1  10   73.45    2.28
   3   1  10   67.26    2.24
   3   1  10   72.02    2.39
   3   1  10   68.80    2.34
   4  -1  10   11.45    1.11
   4  -1  10   11.66    1.29
   4   1  10   14.82    1.98
   4   1  10   12.85    1.31
   4   1  10   14.22    1.34
   5  -1  10   23.60    1.44
   5  -1  10   22.07    1.53
   5   1  10   24.94    1.56
   5   1  10   24.94    1.55
   6  -1  10    1.96    0.66
   6  -1  10    4.56    0.81
   6   1  10    1.88    0.58
   6   1  10    2.65    0.69
   7  -1  10    3.13    0.77
   7  -1  10    4.03    0.82
   7   1  10    5.41    0.96
   7   1  10    4.02    0.89
   8  -1  10    6.33    1.04
   8  -1  10    6.67    1.16
   8   1  10    7.62    1.25
   8   1  10    6.16    1.06
   9  -1  10    3.24    0.85
   9  -1  10    3.43    0.92
   9   1  10    1.68    0.69
   9   1  10    3.50    0.89
  16  -2 -10    1.30    0.61
 -16   2  10    2.39    0.72
  15  -2 -10    0.26    0.42
 -15   2  10    0.30    0.45
  14  -2 -10    9.01    1.19
 -14   2  10    7.43    1.08
  13  -2 -10    9.66    1.20
 -13   2  10   11.37    1.33
  12  -2 -10    2.13    0.59
 -12   2  10    1.52    0.54
  11  -2 -10    1.18    0.46
 -11   2  10    2.73    0.62
 -10  -2  10    8.96    0.97
  10  -2 -10    8.23    0.97
 -10   2  10    8.40    0.96
 -10   2  10    9.61    1.35
   9  -2 -10   20.37    1.21
  -9  -2  10   18.87    1.18
  -9   2  10   18.06    1.15
  -9   2  10   18.07    1.15
   8  -2 -10   41.87    1.68
  -8  -2  10   40.72    1.73
  -8   2  10   40.14    1.70
  -8   2  10   44.30    1.73
  -7  -2  10   16.65    1.09
   7  -2 -10   15.68    1.02
  -7   2  10   17.65    1.07
  -7   2  10   16.64    1.09
  -6  -2  10   68.76    2.24
   6  -2 -10   67.04    2.05
  -6   2  10   69.78    2.25
  -6   2  10   67.23    2.06
  -5  -2  10    1.59    0.46
  -5   2  10    2.39    0.49
  -5   2  10    2.23    0.52
  -4  -2  10   -0.08    0.16
  -4  -2  10   -0.01    0.17
  -4   2  10    0.12    0.17
  -4   2  10    0.03    0.17
  -3  -2  10    3.60    0.64
  -3  -2  10    3.06    0.57
  -3   2  10    3.27    0.55
  -3   2  10    3.75    0.65
  -2  -2  10    8.69    0.97
  -2  -2  10    8.94    0.98
  -2   2  10    8.97    1.00
  -2   2  10   10.16    0.96
  -1  -2  10    8.39    0.97
  -1  -2  10    6.80    0.90
  -1   2  10    6.01    0.77
  -1   2  10    5.98    0.79
   0  -2  10   83.48    2.22
   0  -2  10   80.33    2.44
   0  -2  10   78.72    2.51
   0   2  10   75.31    2.42
   0   2  10   80.88    2.39
   0   2  10   82.20    2.07
   1  -2  10   25.51    1.13
   1  -2  10   28.51    1.53
   1  -2  10   26.67    1.40
   1   2  10   26.89    1.42
   1   2  10   26.50    1.23
   1   2  10   29.31    1.45
   2  -2  10    7.82    1.02
   2  -2  10   10.40    0.95
   2  -2  10    9.68    1.03
   2   2  10   10.27    1.11
   2   2  10    9.48    1.05
   2   2  10    8.94    0.94
   3  -2  10    5.39    0.89
   3  -2  10    4.92    0.70
   3   2  10    4.59    0.71
   3   2  10    4.64    0.77
   3   2  10    5.51    0.82
   4  -2  10   66.31    2.28
   4  -2  10   73.10    2.73
   4   2  10   69.50    2.37
   4   2  10   71.19    2.58
   4   2  10   73.81    2.50
   5  -2  10   19.22    1.47
   5  -2  10   18.88    1.27
   5   2  10   18.46    1.38
   5   2  10   21.55    1.44
   6  -2  10    6.00    1.06
   6  -2  10    6.85    1.01
   6   2  10    5.13    0.89
   6   2  10    4.11    0.86
   7  -2  10   -0.12    0.32
   7  -2  10    0.08    0.41
   7   2  10   -0.45    0.23
   7   2  10   -0.22    0.30
   8  -2  10    1.21    0.64
   8  -2  10    1.81    0.67
   8   2  10    1.62    0.63
   8   2  10    1.72    0.60
   9  -2  10    1.81    0.73
   9  -2  10    2.13    0.72
   9   2  10    3.01    0.85
   9   2  10    2.69    0.80
  16  -3 -10   41.05    2.46
 -16   3  10   38.39    2.36
  15  -3 -10    2.47    0.72
 -15   3  10    1.89    0.66
  14  -3 -10   30.35    1.93
 -14   3  10   28.57    1.89
  13  -3 -10    8.29    1.17
 -13   3  10    8.87    1.17
  12  -3 -10   19.76    1.43
 -12   3  10   19.24    1.40
  11  -3 -10   11.37    1.24
 -11   3  10   10.08    1.18
 -10  -3  10   14.43    1.09
  10  -3 -10   12.99    1.27
 -10   3  10   15.12    1.17
  -9  -3  10    3.95    0.70
   9  -3 -10    3.03    0.61
  -9   3  10    3.59    0.67
  -9   3  10    5.68    0.84
   8  -3 -10    9.92    1.07
  -8  -3  10   10.20    1.06
  -8   3  10    9.40    1.06
  -8   3  10   10.33    1.09
  -7  -3  10   -0.14    0.21
   7  -3 -10    0.31    0.26
  -7   3  10   -0.02    0.21
  -7   3  10   -0.03    0.20
   6  -3 -10   34.77    1.56
  -6  -3  10   32.13    1.57
  -6   3  10   31.16    1.49
  -6   3  10   31.06    1.55
  -5  -3  10    1.41    0.44
  -5   3  10    0.87    0.40
  -5   3  10    0.63    0.27
  -4  -3  10    0.89    0.35
  -4  -3  10    0.95    0.37
  -4   3  10    1.21    0.40
  -4   3  10    1.00    0.36
  -3  -3  10   23.55    1.35
  -3  -3  10   24.92    1.39
  -3   3  10   24.64    1.38
  -3   3  10   21.38    1.23
  -2  -3  10    1.10    0.39
  -2  -3  10    1.57    0.47
  -2   3  10    0.77    0.34
  -2   3  10    0.94    0.37
  -1  -3  10   -0.01    0.21
  -1  -3  10    0.05    0.19
  -1   3  10    0.12    0.22
  -1   3  10   -0.01    0.21
   0  -3  10   56.43    2.09
   0  -3  10   53.68    2.14
   0   3  10   53.07    2.04
   0   3  10   53.73    2.11
   1  -3  10  104.53    3.13
   1  -3  10   95.52    2.79
   1   3  10   95.35    2.88
   1   3  10   98.83    2.88
   2  -3  10    4.07    0.76
   2  -3  10    3.96    0.67
   2   3  10    5.08    0.82
   2   3  10    4.25    0.75
   3  -3  10    0.67    0.32
   3  -3  10    0.04    0.26
   3   3  10    0.24    0.27
   3   3  10    0.04    0.29
   4  -3  10   40.44    2.12
   4   3  10   37.90    1.81
   4   3  10   38.62    1.97
   5  -3  10   68.86    2.83
   5  -3  10   63.81    2.35
   5   3  10   61.99    2.59
   6  -3  10    7.00    1.01
   6  -3  10    7.49    1.24
   6   3  10    8.74    1.25
   7  -3  10    9.28    1.23
   7  -3  10    7.93    1.29
   7   3  10    8.61    1.27
   7   3  10    6.37    1.27
   8  -3  10   15.97    1.66
   8  -3  10   15.27    1.82
   8   3  10   17.76    1.81
   8   3  10   20.27    2.03
   9  -3  10   35.23    2.39
   9   3  10   39.16    2.35
   9   3  10   38.11    2.37
  15  -4 -10    6.50    1.21
 -15   4  10    5.79    1.14
  14  -4 -10    5.23    1.02
 -14   4  10    5.99    1.07
  13  -4 -10   38.35    2.18
 -13   4  10   37.38    2.13
  12  -4 -10    2.26    0.62
 -12   4  10    2.78    0.75
  11  -4 -10    4.73    0.88
 -11   4  10    6.17    1.03
  10  -4 -10   13.75    1.41
 -10  -4  10   12.20    1.25
 -10   4  10    9.98    1.17
   9  -4 -10   17.36    1.28
  -9  -4  10   15.28    1.20
  -9   4  10   15.97    1.23
  -9   4  10   15.01    1.16
  -8  -4  10    3.17    0.68
   8  -4 -10    5.10    0.87
  -8   4  10    4.67    0.80
  -8   4  10    3.44    0.72
  -7  -4  10   24.17    1.45
   7  -4 -10   29.07    1.57
  -7   4  10   23.09    1.41
  -7   4  10   24.86    1.46
  -6  -4  10   16.55    1.21
  -6   4  10   17.77    1.21
  -6   4  10   16.22    1.19
  -5  -4  10   28.56    1.56
  -5   4  10   25.38    1.42
  -5   4  10   28.06    1.54
  -4  -4  10    1.67    0.48
  -4  -4  10    2.98    0.63
  -4   4  10    1.97    0.50
  -4   4  10    2.87    0.62
  -3  -4  10   42.94    1.93
  -3  -4  10   43.79    1.92
  -3   4  10   40.73    1.81
  -3   4  10   42.90    1.92
  -2  -4  10   14.07    1.10
  -2  -4  10   15.99    1.18
  -2   4  10   14.37    1.12
  -2   4  10   15.06    1.12
  -1  -4  10   11.96    1.28
  -1  -4  10   14.64    1.13
  -1   4  10   11.52    1.19
  -1   4  10   13.69    1.35
   0  -4  10    1.55    0.46
   0  -4  10    0.97    0.44
   0   4  10    1.33    0.46
   0   4  10    1.00    0.41
   1  -4  10   15.07    1.15
   1  -4  10   16.30    1.28
   1   4  10   14.53    1.42
   1   4  10   12.77    1.30
   2  -4  10   13.40    1.45
   2  -4  10   13.06    1.29
   2   4  10   13.05    1.36
   2   4  10   11.80    1.25
   3  -4  10    8.00    1.00
   3  -4  10   10.25    1.34
   3   4  10    8.78    1.16
   3   4  10    6.66    0.98
   4  -4  10   22.23    1.62
   4   4  10   22.03    1.58
   4   4  10   22.55    1.51
   5  -4  10    0.49    0.40
   5   4  10    0.40    0.36
   6  -4  10   24.97    1.89
   6   4  10   21.49    1.67
   7  -4  10   13.16    1.72
   7   4  10   15.27    1.77
   8  -4  10   16.98    1.96
   8   4  10   18.79    2.08
  14  -5 -10   -0.64    0.36
 -14   5  10    0.08    0.50
  13  -5 -10    5.85    1.08
 -13   5  10    5.56    1.10
  12  -5 -10   13.36    1.56
 -12   5  10   18.14    1.82
 -11  -5  10   10.12    1.39
  11  -5 -10   10.91    1.41
 -11   5  10   10.06    1.34
 -10  -5  10    2.21    0.62
  10  -5 -10    2.00    0.64
 -10   5  10    1.18    0.52
   9  -5 -10    0.32    0.31
  -9  -5  10    1.18    0.44
  -9   5  10    0.93    0.42
  -9   5  10    0.40    0.38
  -8  -5  10    6.12    0.93
   8  -5 -10    6.04    0.98
  -8   5  10    6.40    1.02
  -8   5  10    6.39    0.99
  -7  -5  10   20.97    1.44
   7  -5 -10   22.56    1.50
  -7   5  10   21.31    1.42
  -7   5  10   21.19    1.43
  -6  -5  10   66.69    2.55
  -6   5  10   70.41    2.59
  -6   5  10   60.88    2.43
  -5  -5  10    2.67    0.67
  -5   5  10    3.33    0.69
  -5   5  10    1.70    0.52
  -4  -5  10   24.34    1.53
  -4  -5  10   23.59    1.54
  -4   5  10   24.24    1.47
  -4   5  10   27.91    1.64
  -3  -5  10    9.85    1.21
  -3  -5  10   12.59    1.33
  -3   5  10    9.57    1.13
  -3   5  10    9.56    1.15
  -2  -5  10   87.74    2.98
  -2  -5  10   89.81    2.98
  -2   5  10   90.03    3.01
  -2   5  10   89.42    2.90
  -1  -5  10    3.89    0.77
  -1  -5  10    1.90    0.58
  -1   5  10    2.96    0.68
  -1   5  10    1.44    0.51
   0  -5  10    4.17    0.85
   0  -5  10    3.95    0.77
   0   5  10    2.30    0.58
   0   5  10    2.63    0.61
   1  -5  10   17.07    1.30
   1  -5  10   15.14    1.60
   1   5  10   15.41    1.51
   1   5  10   16.03    1.55
   2  -5  10    0.12    0.34
   2  -5  10    0.01    0.29
   2   5  10   -0.02    0.24
   2   5  10    0.00    0.25
   3  -5  10   -0.42    0.23
   3  -5  10    0.31    0.35
   3   5  10    0.06    0.32
   3   5  10    0.13    0.27
   4  -5  10    8.12    1.29
   4   5  10    6.77    1.06
   4   5  10    7.83    1.18
   5  -5  10    0.80    0.54
   5   5  10    1.25    0.55
   6  -5  10    0.42    0.50
   6   5  10    1.15    0.58
   7  -5  10    3.33    0.92
   7   5  10    2.87    0.82
  13  -6 -10   17.22    1.95
 -13   6  10   16.64    1.94
  12  -6 -10    1.01    0.61
 -12   6  10    1.86    0.69
  11  -6 -10    1.20    0.61
 -11  -6  10    2.39    0.76
 -11   6  10    1.61    0.63
 -10  -6  10    3.75    0.86
  10  -6 -10    3.24    0.85
 -10   6  10    2.78    0.79
   9  -6 -10    1.71    0.65
  -9  -6  10    0.63    0.44
  -9   6  10    2.64    0.71
  -9   6  10    0.02    0.37
  -8  -6  10    0.61    0.42
   8  -6 -10    1.36    0.54
  -8   6  10    0.55    0.39
  -8   6  10    1.36    0.59
  -7  -6  10    0.59    0.41
  -7   6  10    0.48    0.37
  -7   6  10    1.43    0.53
  -6  -6  10    0.63    0.38
  -6   6  10    0.29    0.38
  -6   6  10    1.28    0.49
  -5  -6  10    4.55    0.85
  -5   6  10    7.40    1.10
  -5   6  10    6.38    1.04
  -4  -6  10   10.32    1.27
  -4   6  10   16.62    1.60
  -4   6  10   13.85    1.49
  -3  -6  10   18.98    1.43
  -3  -6  10   22.08    1.57
  -3   6  10   17.88    1.37
  -3   6  10   19.01    1.45
  -2  -6  10   12.51    1.41
  -2  -6  10   11.44    1.30
  -2   6  10   14.66    1.49
  -2   6  10   13.50    1.49
  -1  -6  10    6.04    1.03
  -1  -6  10    3.54    0.78
  -1   6  10    4.01    0.79
  -1   6  10    6.13    1.03
   0  -6  10   10.17    1.27
   0  -6  10   12.02    1.44
   0   6  10   10.45    1.31
   0   6  10   11.56    1.39
   1  -6  10   10.89    1.43
   1  -6  10    9.96    1.25
   1   6  10   10.32    1.31
   1   6  10   10.73    1.38
   2  -6  10    3.33    0.84
   2  -6  10    2.63    0.68
   2   6  10    5.28    1.01
   2   6  10    2.41    0.70
   3  -6  10    2.22    0.65
   3  -6  10    2.04    0.72
   3   6  10    2.70    0.75
   3   6  10    1.69    0.57
   4  -6  10    4.96    1.02
   4   6  10    5.59    1.02
   4   6  10    4.76    0.97
   5  -6  10    0.01    0.49
   5   6  10    0.64    0.43
   6  -6  10    0.21    0.47
   6   6  10    0.65    0.52
  11  -7 -10    0.67    0.56
 -11  -7  10    0.83    0.59
 -11   7  10    0.96    0.57
 -10  -7  10   15.62    1.79
  10  -7 -10   17.22    1.90
 -10   7  10   15.79    1.83
  -9  -7  10    6.87    1.22
   9  -7 -10    3.45    0.91
  -9   7  10    3.16    0.83
  -9   7  10    5.03    1.06
  -8  -7  10   25.96    1.86
  -8   7  10   26.01    1.83
  -8   7  10   21.22    1.67
  -7  -7  10   12.53    1.57
  -7   7  10   14.09    1.65
  -7   7  10   14.89    1.69
  -6  -7  10   20.01    1.95
  -6   7  10   18.01    1.78
  -6   7  10   16.73    1.75
  -5  -7  10   32.41    2.01
  -5   7  10   31.61    2.01
  -5   7  10   33.43    1.98
  -4  -7  10    2.07    0.69
  -4   7  10    2.23    0.64
  -4   7  10    2.50    0.75
  -3  -7  10    3.65    0.86
  -3  -7  10    2.36    0.68
  -3   7  10    2.87    0.71
  -3   7  10    3.71    0.87
  -2  -7  10   15.74    1.67
  -2  -7  10   16.44    1.68
  -2   7  10   17.40    1.73
  -2   7  10   14.67    1.63
  -1  -7  10   15.66    1.65
  -1  -7  10   17.16    1.74
  -1   7  10   15.39    1.71
  -1   7  10   16.54    1.70
   0  -7  10    8.62    1.26
   0  -7  10   10.60    1.40
   0   7  10   12.09    1.56
   0   7  10   10.38    1.38
   1  -7  10    6.91    1.17
   1  -7  10    3.61    0.89
   1   7  10    7.31    1.17
   1   7  10    6.11    1.12
   2  -7  10    5.37    1.00
   2  -7  10    8.37    1.35
   2   7  10    5.08    0.98
   2   7  10    4.00    0.90
   3  -7  10    6.56    1.23
   3  -7  10    4.12    0.88
   3   7  10    5.36    1.05
   3   7  10    3.61    0.87
   4  -7  10    0.60    0.51
   4   7  10    1.48    0.69
   4   7  10    0.39    0.53
  -9  -8  10   24.05    2.33
  -9   8  10   21.36    2.21
  -9   8  10   22.83    1.85
  -8  -8  10    6.74    1.27
  -8   8  10    7.38    1.32
  -8   8  10    7.09    1.26
  -7  -8  10   10.95    1.55
  -7   8  10   10.25    1.46
  -7   8  10   11.01    1.53
  -6  -8  10   -0.23    0.32
  -6   8  10   -0.33    0.39
  -6   8  10    0.04    0.46
  -5  -8  10    0.39    0.46
  -5   8  10    2.02    0.75
  -5   8  10    1.96    0.75
  -4  -8  10    3.74    0.91
  -4   8  10    3.13    0.88
  -4   8  10    4.01    0.88
  -3  -8  10    6.25    1.14
  -3   8  10    4.88    1.00
  -3   8  10    6.97    1.28
  -2  -8  10    9.42    1.42
  -2  -8  10    8.91    1.36
  -2   8  10    8.85    1.43
  -2   8  10    9.01    1.34
  -1  -8  10    0.23    0.41
  -1  -8  10    0.34    0.44
  -1   8  10   -0.03    0.38
  -1   8  10   -0.08    0.37
   0  -8  10    1.62    0.64
   0  -8  10    1.18    0.65
   0   8  10    1.26    0.62
   0   8  10    1.55    0.70
   1  -8  10    0.52    0.48
   1  -8  10    0.25    0.37
   1   8  10    0.02    0.40
   1   8  10    0.86    0.46
   2  -8  10   -0.25    0.38
   2  -8  10    0.29    0.44
   2   8  10   -0.09    0.41
   2   8  10    0.40    0.52
 -10   0  11    0.44    0.31
  -9   0  11   -0.16    0.20
  -8   0  11   -0.21    0.19
  -8   0  11    0.03    0.20
   8   0 -11    0.10    0.22
  -7   0  11    0.18    0.24
  -7   0  11    0.33    0.20
  -6   0  11    0.09    0.19
  -6   0  11   -0.05    0.16
  -5   0  11   -0.10    0.15
  -5   0  11    0.54    0.30
  -4   0  11   -0.01    0.16
  -4   0  11    0.19    0.17
  -4   0  11    0.09    0.21
  -3   0  11   -0.16    0.14
  -3   0  11    0.00    0.16
  -3   0  11   -0.03    0.19
  -2   0  11   -0.02    0.16
  -2   0  11    0.21    0.22
  -2   0  11   -0.09    0.19
  -1   0  11    0.22    0.23
  -1   0  11    0.02    0.23
  -1   0  11    0.10    0.19
   0   0  11   -0.11    0.19
   0   0  11    0.42    0.21
   0   0  11   -0.08    0.22
   1   0  11    0.02    0.22
   1   0  11    0.07    0.20
   1   0  11   -0.13    0.21
   2   0  11    0.07    0.22
   2   0  11    0.19    0.24
   2   0  11    0.08    0.23
   3   0  11    0.08    0.24
   3   0  11    0.00    0.24
   3   0  11    0.14    0.23
   4   0  11   -0.12    0.24
   4   0  11    0.06    0.28
   5   0  11    0.09    0.23
   5   0  11    0.09    0.25
   6   0  11   -0.03    0.28
   6   0  11    0.09    0.32
   7   0  11   -0.10    0.31
   7   0  11    0.56    0.44
   8   0  11    0.06    0.37
   8   0  11    0.10    0.38
   9   0  11    0.13    0.41
   9   0  11   -0.05    0.44
  13  -1 -11    0.75    0.42
 -13   1  11    1.79    0.53
  12  -1 -11   28.85    1.57
 -12   1  11   28.56    1.55
  11  -1 -11    2.69    0.56
 -11   1  11    1.63    0.49
 -10  -1  11   19.76    1.24
  10  -1 -11   19.49    1.18
 -10   1  11   18.90    1.21
 -10   1  11   19.16    1.18
   9  -1 -11    4.20    0.64
  -9  -1  11    3.95    0.70
  -9   1  11    4.62    0.76
  -9   1  11    4.56    0.68
  -8  -1  11    2.01    0.54
   8  -1 -11    0.90    0.33
  -8   1  11    1.06    0.40
  -8   1  11    2.55    0.51
   7  -1 -11    5.95    0.74
  -7  -1  11    4.64    0.72
  -7   1  11    5.54    0.69
  -7   1  11    4.17    0.70
  -6  -1  11  124.15    3.15
  -6   1  11  125.68    2.73
  -6   1  11  121.08    3.13
  -5  -1  11   14.47    0.98
  -5  -1  11   10.51    1.05
  -5   1  11   11.42    1.13
  -5   1  11   12.99    0.83
  -4  -1  11   37.86    1.55
  -4  -1  11   31.11    1.55
  -4   1  11   33.33    1.59
  -4   1  11   33.98    1.34
  -4   1  11   33.08    1.25
  -3  -1  11   21.58    1.18
  -3  -1  11   22.96    1.33
  -3   1  11   21.08    1.27
  -3   1  11   19.67    1.06
  -3   1  11   21.83    1.02
  -2  -1  11   16.21    1.05
  -2  -1  11   16.12    1.12
  -2  -1  11   16.43    0.83
  -2   1  11   16.30    0.98
  -2   1  11   19.07    1.21
  -2   1  11   16.59    0.93
  -1  -1  11    6.58    0.89
  -1  -1  11    5.17    0.75
  -1  -1  11    5.96    0.65
  -1   1  11    5.09    0.77
  -1   1  11    5.40    0.71
  -1   1  11    8.18    0.86
   0  -1  11   53.92    2.05
   0  -1  11   52.04    2.02
   0  -1  11   53.77    1.72
   0   1  11   53.97    2.07
   0   1  11   50.30    1.85
   0   1  11   51.00    1.80
   1  -1  11  182.49    4.06
   1  -1  11  176.82    3.91
   1  -1  11  177.82    3.53
   1   1  11  175.96    3.70
   1   1  11  178.76    3.98
   1   1  11  181.23    3.81
   2  -1  11   77.17    2.35
   2  -1  11   83.63    2.57
   2  -1  11   79.22    2.69
   2   1  11   80.16    2.55
   2   1  11   79.77    2.52
   2   1  11   79.54    2.56
   3  -1  11   17.54    1.31
   3  -1  11   19.04    1.21
   3   1  11   18.17    1.23
   3   1  11   19.86    1.31
   3   1  11   18.69    1.29
   4  -1  11    2.04    0.53
   4  -1  11    0.49    0.37
   4   1  11    1.73    0.56
   4   1  11    2.58    0.64
   5  -1  11    0.28    0.33
   5  -1  11    1.27    0.54
   5   1  11    1.18    0.49
   5   1  11    1.07    0.47
   6  -1  11    4.57    0.83
   6  -1  11    4.96    0.98
   6   1  11    6.82    1.08
   6   1  11    4.70    0.89
   7  -1  11   17.10    1.69
   7  -1  11   19.80    2.05
   7   1  11   18.32    1.80
   7   1  11   20.52    1.92
   8  -1  11    0.62    0.55
   8  -1  11    0.19    0.47
   8   1  11    2.02    0.70
   8   1  11    1.00    0.54
   9  -1  11    5.62    1.20
   9  -1  11    4.33    0.94
   9   1  11    5.43    1.11
   9   1  11    5.14    1.03
  16  -2 -11    4.95    1.02
 -16   2  11    5.66    1.10
  15  -2 -11   13.49    1.55
 -15   2  11   12.68    1.48
  14  -2 -11    2.04    0.68
 -14   2  11    2.52    0.69
  13  -2 -11   16.84    1.56
 -13   2  11   16.72    1.55
  12  -2 -11    9.24    1.15
 -12   2  11   10.78    1.20
  11  -2 -11   17.62    1.24
 -11   2  11   16.64    1.21
 -10  -2  11   10.48    1.08
  10  -2 -11   11.71    1.19
 -10   2  11   10.95    1.13
 -10   2  11   13.62    1.05
   9  -2 -11   89.34    2.63
  -9  -2  11   89.29    2.73
  -9   2  11   90.77    2.74
  -9   2  11   93.97    2.68
  -8  -2  11   25.92    1.43
   8  -2 -11   27.82    1.41
  -8   2  11   26.43    1.44
  -8   2  11   28.89    1.43
  -7  -2  11   47.59    1.94
   7  -2 -11   48.62    1.82
  -7   2  11   46.40    1.92
  -7   2  11   47.60    1.79
  -6  -2  11    2.00    0.49
  -6   2  11    2.04    0.52
  -6   2  11    1.61    0.40
  -5  -2  11  138.05    3.34
  -5  -2  11  141.83    3.45
  -5   2  11  136.68    3.38
  -5   2  11  135.92    3.06
  -4  -2  11   23.28    1.36
  -4  -2  11   21.60    1.26
  -4   2  11   22.93    1.35
  -4   2  11   21.33    1.17
  -3  -2  11    6.22    0.84
  -3  -2  11    5.65    0.80
  -3   2  11    6.16    0.80
  -3   2  11    5.19    0.81
  -2  -2  11   -0.09    0.19
  -2  -2  11   -0.01    0.22
  -2   2  11    0.28    0.26
  -2   2  11   -0.07    0.17
  -1  -2  11   56.02    2.14
  -1  -2  11   59.22    2.21
  -1   2  11   60.90    2.24
  -1   2  11   60.97    2.08
   0  -2  11    1.95    0.54
   0  -2  11    1.30    0.47
   0   2  11    2.25    0.55
   0   2  11    1.25    0.40
   1  -2  11   11.04    1.13
   1  -2  11   13.20    1.34
   1   2  11    9.96    1.10
   1   2  11   11.74    1.16
   2  -2  11    5.08    0.88
   2  -2  11    5.49    0.84
   2  -2  11    6.25    0.77
   2   2  11    5.39    0.75
   2   2  11    5.66    0.85
   2   2  11    5.39    0.82
   3  -2  11   46.91    2.22
   3  -2  11   47.78    1.86
   3   2  11   50.93    2.10
   3   2  11   50.78    2.18
   3   2  11   46.52    1.95
   4  -2  11    2.25    0.55
   4  -2  11    2.26    0.65
   4   2  11    2.03    0.55
   4   2  11    1.92    0.59
   5  -2  11   19.91    1.36
   5  -2  11   17.68    1.76
   5   2  11   18.28    1.71
   5   2  11   19.17    1.42
   6  -2  11    5.49    1.07
   6  -2  11    4.20    0.85
   6   2  11    5.16    0.99
   6   2  11    4.06    0.86
   7  -2  11   15.71    1.78
   7  -2  11   16.64    1.67
   7   2  11   15.06    1.69
   7   2  11   13.59    1.54
   8  -2  11    0.03    0.44
   8  -2  11   -0.23    0.40
   8   2  11    0.18    0.48
   8   2  11    0.85    0.47
  15  -3 -11   -0.36    0.35
 -15   3  11   -0.03    0.39
  14  -3 -11    0.82    0.49
 -14   3  11    0.41    0.46
  13  -3 -11   12.98    1.44
 -13   3  11   13.36    1.47
  12  -3 -11    5.11    0.90
 -12   3  11    5.89    0.96
  11  -3 -11    1.52    0.51
 -11  -3  11    1.11    0.47
 -11   3  11    1.23    0.44
  10  -3 -11    2.85    0.62
 -10  -3  11    3.35    0.70
 -10   3  11    2.71    0.63
 -10   3  11    4.52    0.79
   9  -3 -11    0.23    0.25
  -9  -3  11    0.34    0.31
  -9   3  11    0.27    0.28
  -9   3  11   -0.02    0.23
   8  -3 -11    0.62    0.40
  -8  -3  11    0.73    0.40
  -8   3  11    0.20    0.26
  -8   3  11    0.75    0.36
  -7  -3  11   24.51    1.44
   7  -3 -11   25.73    1.42
  -7   3  11   24.96    1.40
  -7   3  11   25.87    1.48
  -6  -3  11    0.64    0.34
  -6   3  11    0.47    0.35
  -6   3  11    0.32    0.29
  -5  -3  11   16.26    1.17
  -5  -3  11   17.98    1.23
  -5   3  11   18.84    1.25
  -5   3  11   16.99    1.11
  -4  -3  11   58.62    2.21
  -4  -3  11   50.45    2.06
  -4   3  11   57.69    2.06
  -4   3  11   57.84    2.21
  -3  -3  11    1.40    0.47
  -3  -3  11    0.89    0.36
  -3   3  11    1.51    0.47
  -3   3  11    1.15    0.40
  -2  -3  11    0.55    0.34
  -2  -3  11    1.01    0.40
  -2   3  11    0.22    0.23
  -2   3  11    0.20    0.21
  -1  -3  11    0.33    0.28
  -1  -3  11    0.02    0.24
  -1   3  11    0.10    0.24
  -1   3  11    0.08    0.25
   0  -3  11   58.50    2.23
   0  -3  11   58.49    2.34
   0   3  11   57.21    2.20
   0   3  11   57.85    2.29
   1  -3  11   35.98    1.76
   1  -3  11   38.75    1.96
   1   3  11   38.40    1.85
   1   3  11   39.63    1.89
   2  -3  11    0.16    0.32
   2  -3  11    1.06    0.45
   2   3  11    1.33    0.49
   2   3  11    1.32    0.46
   3  -3  11   10.69    1.17
   3  -3  11   10.98    1.37
   3   3  11    8.02    1.05
   3   3  11    9.95    1.19
   4  -3  11   12.13    1.47
   4   3  11   13.22    1.47
   4   3  11   11.28    1.23
   5  -3  11    0.22    0.38
   5   3  11    0.31    0.38
   6  -3  11   -0.25    0.41
   6   3  11   -0.04    0.28
   7  -3  11    1.14    0.58
   7   3  11    0.68    0.56
   8  -3  11   11.14    1.60
   8   3  11   15.38    1.81
  15  -4 -11    5.01    1.13
 -15   4  11    5.50    1.18
  14  -4 -11   14.95    1.66
 -14   4  11   14.16    1.66
  13  -4 -11   32.27    2.02
 -13   4  11   33.40    2.05
  12  -4 -11    6.32    1.11
 -12   4  11    4.77    0.92
  11  -4 -11   44.47    2.21
 -11  -4  11   40.31    1.98
 -11   4  11   42.36    2.14
 -10  -4  11    2.51    0.61
  10  -4 -11    3.02    0.73
 -10   4  11    3.75    0.82
 -10   4  11    3.29    0.68
  -9  -4  11   16.13    1.27
   9  -4 -11   19.12    1.39
  -9   4  11   14.07    1.38
  -9   4  11   17.24    1.27
   8  -4 -11    3.14    0.66
  -8  -4  11    3.55    0.69
  -8   4  11    3.41    0.67
  -8   4  11    4.33    0.80
  -7  -4  11   13.24    1.36
  -7   4  11   12.07    1.26
  -7   4  11   10.43    1.21
  -6  -4  11   39.51    1.90
  -6   4  11   38.08    1.80
  -6   4  11   37.22    1.84
  -5  -4  11   14.51    1.15
  -5   4  11   12.85    1.27
  -5   4  11   10.67    1.17
  -4  -4  11   57.02    2.31
  -4  -4  11   55.81    2.27
  -4   4  11   57.37    2.19
  -4   4  11   53.26    2.21
  -3  -4  11    8.17    1.03
  -3  -4  11   10.70    1.20
  -3   4  11    9.65    1.14
  -3   4  11    9.11    1.05
  -2  -4  11   11.18    1.20
  -2  -4  11   12.23    1.33
  -2   4  11   11.77    1.22
  -2   4  11   12.62    1.33
  -1  -4  11    3.87    0.77
  -1  -4  11    3.88    0.73
  -1   4  11    4.35    0.81
  -1   4  11    4.55    0.84
   0  -4  11   -0.08    0.24
   0  -4  11    0.67    0.39
   0   4  11    0.33    0.31
   0   4  11    0.66    0.37
   1  -4  11    2.29    0.58
   1  -4  11    2.15    0.58
   1   4  11    2.67    0.66
   1   4  11    4.34    0.83
   2  -4  11    1.16    0.44
   2  -4  11    1.56    0.56
   2   4  11    1.87    0.58
   2   4  11    0.84    0.40
   3  -4  11    3.70    0.72
   3  -4  11    3.48    0.84
   3   4  11    5.73    0.95
   3   4  11    3.47    0.80
   4  -4  11    0.19    0.35
   4   4  11    0.55    0.33
   4   4  11    0.67    0.45
   5  -4  11    9.76    1.42
   5   4  11    7.76    1.22
   6  -4  11    4.05    0.99
   6   4  11    3.91    0.93
   7  -4  11   -0.03    0.52
   7   4  11    0.79    0.59
  14  -5 -11   22.76    2.22
 -14   5  11   25.28    2.36
  13  -5 -11    4.48    0.99
 -13   5  11    4.06    0.91
  12  -5 -11   25.32    1.82
 -12   5  11   26.60    1.84
  11  -5 -11    0.39    0.47
 -11  -5  11    1.08    0.52
 -11   5  11    1.10    0.53
 -10  -5  11   10.08    1.22
  10  -5 -11    9.67    1.32
 -10   5  11   10.14    1.32
 -10   5  11    9.79    1.25
  -9  -5  11    0.49    0.40
   9  -5 -11    0.20    0.33
  -9   5  11   -0.33    0.25
  -9   5  11   -0.21    0.31
  -8  -5  11   86.39    3.03
   8  -5 -11   85.90    3.06
  -8   5  11   82.91    2.94
  -8   5  11   83.58    2.99
  -7  -5  11    0.12    0.28
  -7   5  11    0.57    0.44
  -7   5  11    0.39    0.39
  -6  -5  11    3.50    0.77
  -6   5  11    2.87    0.69
  -6   5  11    4.05    0.82
  -5  -5  11    3.27    0.74
  -5   5  11    1.50    0.50
  -5   5  11    2.38    0.62
  -4  -5  11    5.87    0.98
  -4  -5  11    8.92    1.18
  -4   5  11    5.44    0.92
  -4   5  11    6.34    0.96
  -3  -5  11    0.57    0.42
  -3  -5  11    1.99    0.55
  -3   5  11    0.88    0.42
  -3   5  11    2.05    0.61
  -2  -5  11   77.60    2.84
  -2  -5  11   75.84    2.87
  -2   5  11   79.86    2.83
  -2   5  11   82.78    2.96
  -1  -5  11    0.12    0.27
  -1  -5  11   -0.01    0.28
  -1   5  11    0.19    0.34
  -1   5  11   -0.01    0.26
   0  -5  11    0.10    0.33
   0  -5  11    0.37    0.35
   0   5  11    0.54    0.36
   0   5  11    0.41    0.34
   1  -5  11    3.96    0.77
   1  -5  11    3.88    0.85
   1   5  11    3.96    0.79
   1   5  11    4.48    0.87
   2  -5  11   27.50    1.86
   2  -5  11   27.26    1.69
   2   5  11   27.43    1.74
   2   5  11   25.04    1.70
   3  -5  11    0.29    0.41
   3  -5  11   -0.21    0.31
   3   5  11    0.20    0.34
   3   5  11    0.49    0.42
   4  -5  11    8.42    1.31
   4   5  11    6.84    1.16
   4   5  11    6.51    1.11
   5  -5  11   10.87    1.56
   5   5  11   12.62    1.59
   6  -5  11    8.60    1.43
   6   5  11    8.06    1.32
  12  -6 -11    1.02    0.58
 -12   6  11    2.99    0.89
  11  -6 -11    4.05    0.95
 -11  -6  11    5.71    1.12
 -11   6  11    4.08    0.91
 -10  -6  11   -0.08    0.30
  10  -6 -11    0.15    0.39
 -10   6  11    0.26    0.33
 -10   6  11    0.46    0.49
  -9  -6  11    0.46    0.45
   9  -6 -11    1.27    0.57
  -9   6  11    1.75    0.61
  -9   6  11    0.59    0.45
  -8  -6  11    0.39    0.38
  -8   6  11    0.16    0.38
  -8   6  11    0.02    0.37
  -7  -6  11   -0.23    0.31
  -7   6  11    0.45    0.41
  -7   6  11   -0.01    0.26
  -6  -6  11    0.39    0.37
  -6   6  11    0.90    0.48
  -6   6  11    0.50    0.43
  -5  -6  11    9.12    1.19
  -5   6  11    9.07    1.26
  -5   6  11    7.88    1.15
  -4  -6  11    1.74    0.56
  -4  -6  11    1.84    0.60
  -4   6  11    1.64    0.62
  -4   6  11    1.19    0.51
  -3  -6  11   23.96    1.69
  -3  -6  11   24.07    1.67
  -3   6  11   24.24    1.63
  -3   6  11   21.00    1.58
  -2  -6  11    0.69    0.44
  -2  -6  11    0.47    0.39
  -2   6  11    0.88    0.47
  -2   6  11    1.74    0.65
  -1  -6  11   28.72    1.89
  -1  -6  11   27.58    1.78
  -1   6  11   30.62    1.92
  -1   6  11   31.39    1.90
   0  -6  11    9.45    1.30
   0  -6  11    8.17    1.16
   0   6  11   11.54    1.46
   0   6  11   11.80    1.41
   1  -6  11   25.73    1.75
   1  -6  11   24.60    1.81
   1   6  11   22.79    1.70
   1   6  11   19.98    1.59
   2  -6  11    0.26    0.46
   2  -6  11    0.63    0.48
   2   6  11    0.26    0.44
   2   6  11   -0.04    0.40
   3  -6  11    7.71    1.24
   3  -6  11    6.46    1.07
   3   6  11    6.45    1.17
   3   6  11    8.29    1.33
   4  -6  11    0.46    0.49
   4   6  11   -0.21    0.43
   4   6  11    0.22    0.48
   5  -6  11    6.38    1.22
   5   6  11    7.09    1.27
  11  -7 -11    2.25    0.81
 -11  -7  11    1.24    0.63
 -11   7  11    1.88    0.77
 -10  -7  11    5.71    1.15
  10  -7 -11    4.01    1.02
 -10   7  11    5.71    1.18
  -9  -7  11   10.58    1.50
  -9   7  11   10.48    1.47
  -9   7  11    8.60    1.33
  -8  -7  11    2.77    0.82
  -8   7  11    1.88    0.63
  -8   7  11    4.87    1.00
  -7  -7  11   -0.31    0.28
  -7   7  11    0.28    0.41
  -7   7  11    0.13    0.45
  -6  -7  11    0.27    0.46
  -6   7  11    0.17    0.37
  -6   7  11    0.09    0.38
  -5  -7  11    0.47    0.45
  -5   7  11    0.40    0.41
  -5   7  11   -0.12    0.29
  -4  -7  11    0.67    0.49
  -4   7  11   -0.22    0.34
  -4   7  11   -0.02    0.35
  -3  -7  11    2.74    0.73
  -3  -7  11    3.63    0.87
  -3   7  11    3.69    0.82
  -3   7  11    3.73    0.87
  -2  -7  11    1.13    0.52
  -2  -7  11    0.98    0.52
  -2   7  11    1.61    0.62
  -2   7  11    1.48    0.62
  -1  -7  11    9.62    1.35
  -1  -7  11    9.32    1.38
  -1   7  11   10.75    1.46
  -1   7  11    9.25    1.32
   0  -7  11    0.25    0.48
   0  -7  11    0.71    0.56
   0   7  11    1.62    0.64
   0   7  11    1.67    0.67
   1  -7  11    7.06    1.21
   1  -7  11    7.05    1.21
   1   7  11    6.02    1.13
   1   7  11    6.95    1.22
   2  -7  11    7.52    1.27
   2  -7  11    8.42    1.27
   2   7  11    8.31    1.35
   2   7  11    9.44    1.42
   3  -7  11    0.59    0.56
   3   7  11    0.38    0.55
   3   7  11    0.08    0.47
  -8  -8  11    1.69    0.67
  -8   8  11    1.23    0.65
  -8   8  11    1.34    0.59
  -7  -8  11   28.17    2.07
  -7   8  11   25.08    1.97
  -7   8  11   28.04    2.02
  -6  -8  11    0.90    0.62
  -6   8  11   -0.02    0.43
  -6   8  11    0.18    0.41
  -5  -8  11   12.56    1.66
  -5   8  11   14.44    1.75
  -5   8  11   15.21    1.81
  -4  -8  11   -0.23    0.35
  -4   8  11    0.75    0.57
  -4   8  11    0.04    0.44
  -3  -8  11    5.72    1.13
  -3   8  11    6.20    1.16
  -3   8  11    7.54    1.26
  -2  -8  11    1.78    0.70
  -2  -8  11    2.50    0.80
  -2   8  11    3.43    0.97
  -2   8  11    2.55    0.78
  -1  -8  11    1.43    0.61
  -1  -8  11    0.86    0.51
  -1   8  11    1.33    0.64
  -1   8  11    0.09    0.44
   0  -8  11   -0.14    0.40
   0  -8  11    0.09    0.42
   0   8  11    0.04    0.50
   0   8  11   -0.30    0.35
 -10   0  12    3.16    0.67
  -9   0  12    0.36    0.30
  -8   0  12   73.54    2.51
  -7   0  12   50.38    2.05
  -6   0  12   62.93    2.27
  -5   0  12  232.29    4.16
  -5   0  12  231.94    3.75
  -5   0  12  225.33    4.59
  -4   0  12    2.27    0.43
  -4   0  12    1.72    0.43
  -4   0  12    2.55    0.56
  -3   0  12  100.36    2.35
  -3   0  12   94.40    2.85
  -3   0  12   99.45    2.57
  -2   0  12   12.78    0.85
  -2   0  12   15.76    1.03
  -2   0  12   13.14    1.05
  -1   0  12    0.90    0.33
  -1   0  12    0.85    0.35
  -1   0  12    0.80    0.36
   0   0  12   74.10    2.52
   0   0  12   72.54    2.39
   0   0  12   71.42    2.20
   1   0  12   96.69    2.93
   1   0  12   97.05    2.70
   1   0  12   98.06    2.92
   2   0  12   71.97    2.58
   2   0  12   73.75    2.45
   2   0  12   73.55    2.57
   3   0  12    3.27    0.74
   3   0  12    4.26    0.75
   3   0  12    4.19    0.74
   4   0  12    0.37    0.41
   4   0  12    1.68    0.59
   5   0  12   22.40    1.63
   5   0  12   19.47    1.43
   6   0  12   14.61    1.64
   6   0  12   16.42    1.67
   7   0  12    0.06    0.45
   7   0  12    0.11    0.39
   8   0  12    0.52    0.52
   8   0  12    0.37    0.45
 -11  -1  12   20.73    1.33
  11  -1 -12   20.84    1.32
 -11   1  12   19.00    1.22
  10  -1 -12   11.61    1.10
 -10  -1  12   13.38    1.31
 -10   1  12   14.07    1.01
 -10   1  12   13.97    1.09
  -9  -1  12   13.13    1.28
   9  -1 -12   15.88    1.04
  -9   1  12   15.74    1.17
  -9   1  12   17.17    1.08
   8  -1 -12    0.02    0.22
  -8  -1  12   -0.03    0.19
  -8   1  12   -0.05    0.22
  -8   1  12    0.05    0.22
  -7  -1  12    3.03    0.63
  -7   1  12    5.04    0.67
  -7   1  12    5.54    0.86
  -6  -1  12    1.20    0.48
  -6   1  12    3.05    0.64
  -6   1  12    1.50    0.38
  -5  -1  12   17.97    1.14
  -5  -1  12   19.79    1.30
  -5   1  12   18.12    1.25
  -5   1  12   22.18    1.13
  -4  -1  12   17.77    1.23
  -4  -1  12   16.70    1.09
  -4   1  12   15.90    1.16
  -4   1  12   16.77    1.05
  -4   1  12   17.04    0.99
  -3  -1  12   35.49    1.74
  -3  -1  12   36.76    1.63
  -3   1  12   34.79    1.73
  -3   1  12   34.02    1.44
  -3   1  12   35.11    1.38
  -2  -1  12  117.32    3.07
  -2  -1  12  121.09    3.29
  -2   1  12  115.91    2.71
  -2   1  12  116.25    3.24
  -2   1  12  117.16    2.83
  -1  -1  12   -0.03    0.21
  -1  -1  12    0.03    0.20
  -1   1  12    0.13    0.22
  -1   1  12    0.27    0.25
  -1   1  12    0.24    0.25
   0  -1  12   94.47    2.90
   0  -1  12   94.32    2.44
   0  -1  12   90.14    2.83
   0   1  12   94.40    2.70
   0   1  12   95.55    2.93
   0   1  12   91.25    2.57
   1  -1  12    3.94    0.75
   1  -1  12    4.14    0.77
   1  -1  12    3.50    0.59
   1   1  12    3.94    0.71
   1   1  12    4.31    0.76
   1   1  12    3.08    0.61
   2  -1  12    0.15    0.30
   2  -1  12    0.20    0.28
   2  -1  12   -0.03    0.24
   2   1  12    0.16    0.29
   2   1  12    0.68    0.36
   2   1  12    0.05    0.30
   3  -1  12    1.29    0.42
   3  -1  12    1.17    0.43
   3  -1  12    1.46    0.55
   3   1  12    1.80    0.54
   3   1  12    1.06    0.41
   3   1  12    1.06    0.46
   4  -1  12   20.06    1.52
   4  -1  12   20.24    1.36
   4   1  12   19.83    1.45
   4   1  12   19.38    1.44
   5  -1  12   -0.23    0.31
   5  -1  12   -0.16    0.28
   5   1  12   -0.15    0.30
   5   1  12    0.20    0.41
   6  -1  12    0.09    0.43
   6  -1  12    2.13    0.63
   6   1  12    0.01    0.42
   6   1  12    0.16    0.43
   7  -1  12    1.07    0.53
   7  -1  12    0.68    0.54
   7   1  12    0.83    0.59
   7   1  12    0.85    0.54
   8  -1  12    0.46    0.50
   8  -1  12    0.53    0.50
   8   1  12    0.36    0.46
   8   1  12    0.18    0.53
  15  -2 -12    0.51    0.48
 -15   2  12    0.17    0.45
  14  -2 -12    9.84    1.28
 -14   2  12    9.03    1.25
  13  -2 -12    1.28    0.51
 -13   2  12    1.86    0.61
  12  -2 -12   16.06    1.48
 -12   2  12   16.29    1.53
 -11  -2  12   19.86    1.34
  11  -2 -12   18.41    1.29
 -11   2  12   18.96    1.28
  10  -2 -12   16.72    1.18
 -10  -2  12   19.31    1.32
 -10   2  12   18.08    1.25
 -10   2  12   17.96    1.26
  -9  -2  12    4.16    0.74
   9  -2 -12    3.77    0.67
  -9   2  12    3.76    0.66
  -9   2  12    3.66    0.69
   8  -2 -12   25.04    1.37
  -8  -2  12   22.37    1.39
  -8   2  12   23.18    1.31
  -8   2  12   20.02    1.34
  -7  -2  12   15.86    1.18
  -7   2  12   18.11    1.14
  -7   2  12   15.47    1.16
  -6  -2  12    8.69    1.07
  -6   2  12    7.63    0.88
  -6   2  12    7.11    0.94
  -5  -2  12    0.75    0.39
  -5  -2  12    1.79    0.51
  -5   2  12    0.31    0.29
  -5   2  12    0.41    0.25
  -4  -2  12   24.71    1.40
  -4  -2  12   23.97    1.44
  -4   2  12   23.76    1.43
  -4   2  12   21.94    1.22
  -3  -2  12   12.18    1.25
  -3  -2  12   11.96    1.18
  -3   2  12   12.60    0.96
  -3   2  12   10.63    1.19
  -2  -2  12    4.40    0.77
  -2  -2  12    5.30    0.86
  -2   2  12    4.01    0.77
  -2   2  12    4.22    0.69
  -1  -2  12    5.88    0.87
  -1  -2  12    6.92    0.95
  -1   2  12    7.72    1.01
  -1   2  12    6.40    0.86
   0  -2  12   21.78    1.45
   0  -2  12   20.52    1.36
   0   2  12   19.43    1.35
   0   2  12   21.22    1.31
   1  -2  12    7.94    1.11
   1  -2  12    6.45    0.90
   1   2  12    8.17    1.05
   1   2  12    7.71    1.02
   2  -2  12   10.74    1.21
   2  -2  12    8.70    1.13
   2   2  12   10.34    1.19
   2   2  12    9.92    1.17
   3  -2  12    0.41    0.35
   3  -2  12    0.32    0.38
   3   2  12    0.26    0.33
   3   2  12    0.32    0.34
   4  -2  12   12.44    1.49
   4   2  12   11.91    1.39
   5  -2  12    0.13    0.36
   5  -2  12   -0.20    0.38
   5   2  12   -0.03    0.32
   5   2  12   -0.34    0.31
   6  -2  12    2.24    0.74
   6  -2  12    2.74    0.74
   6   2  12    1.66    0.58
   6   2  12    2.37    0.76
   7  -2  12    6.78    1.12
   7  -2  12    5.66    1.15
   7   2  12    7.55    1.23
   7   2  12    5.83    1.12
  15  -3 -12    3.28    0.86
 -15   3  12    5.43    1.07
  14  -3 -12    0.33    0.40
 -14   3  12    0.26    0.47
  13  -3 -12   17.08    1.70
 -13   3  12   16.19    1.60
  12  -3 -12   -0.10    0.29
 -12   3  12    0.32    0.33
 -11  -3  12   15.99    1.25
  11  -3 -12   19.03    1.37
 -11   3  12   14.74    1.44
  10  -3 -12    5.57    0.91
 -10  -3  12    5.05    0.83
 -10   3  12    5.77    0.88
 -10   3  12    6.69    0.98
   9  -3 -12   31.06    1.67
  -9  -3  12   28.75    1.65
  -9   3  12   29.86    1.65
  -9   3  12   32.60    1.70
   8  -3 -12    0.46    0.32
  -8  -3  12    0.59    0.36
  -8   3  12    0.77    0.39
  -8   3  12    0.16    0.21
  -7  -3  12   16.57    1.23
  -7   3  12   18.32    1.24
  -7   3  12   23.40    1.47
  -6  -3  12    7.02    0.95
  -6   3  12    5.63    0.81
  -6   3  12    6.37    0.93
  -5  -3  12   21.60    1.41
  -5  -3  12   18.69    1.31
  -5   3  12   19.35    1.34
  -5   3  12   19.91    1.25
  -4  -3  12   71.47    2.58
  -4  -3  12   72.30    2.56
  -4   3  12   75.91    2.48
  -4   3  12   73.79    2.63
  -3  -3  12   14.59    1.16
  -3  -3  12   13.60    1.33
  -3   3  12   14.22    1.08
  -3   3  12   15.08    1.49
  -2  -3  12    6.59    0.93
  -2  -3  12    5.10    0.83
  -2   3  12    7.59    1.00
  -2   3  12    6.30    0.95
  -1  -3  12   47.95    2.10
  -1  -3  12   57.77    2.37
  -1   3  12   53.71    2.27
  -1   3  12   51.99    2.14
   0  -3  12   36.35    1.92
   0  -3  12   33.75    1.76
   0   3  12   35.09    1.86
   0   3  12   37.12    1.84
   1  -3  12    0.24    0.36
   1  -3  12    0.66    0.35
   1   3  12    0.02    0.27
   1   3  12    0.26    0.33
   2  -3  12   35.91    1.84
   2  -3  12   35.03    2.02
   2   3  12   33.09    1.84
   2   3  12   32.00    1.84
   3  -3  12   16.00    1.26
   3  -3  12   15.58    1.71
   3   3  12   17.05    1.64
   3   3  12   15.68    1.53
   4  -3  12   55.90    2.67
   4   3  12   58.09    2.63
   5  -3  12    0.55    0.45
   5   3  12    1.28    0.54
   6  -3  12   14.72    1.83
   6   3  12    9.78    1.38
   7  -3  12   15.09    1.86
   7   3  12   18.01    2.01
  14  -4 -12    2.83    0.79
 -14   4  12    2.76    0.77
  13  -4 -12    1.88    0.67
 -13   4  12    1.68    0.62
  12  -4 -12   13.29    1.50
 -12   4  12   12.41    1.43
 -11  -4  12   10.22    1.27
  11  -4 -12    8.03    1.20
 -11   4  12   10.00    1.29
 -10  -4  12    9.07    1.20
  10  -4 -12    8.95    1.18
 -10   4  12    8.58    1.15
 -10   4  12    8.89    1.15
   9  -4 -12    8.62    1.16
  -9  -4  12    6.48    0.96
  -9   4  12    7.41    1.05
  -9   4  12    6.26    1.01
  -8  -4  12   19.24    1.39
  -8   4  12   17.34    1.32
  -8   4  12   19.71    1.40
  -7  -4  12   13.18    1.34
  -7   4  12   12.10    1.25
  -7   4  12   15.63    1.26
  -6  -4  12   20.29    1.43
  -6   4  12   21.84    1.41
  -6   4  12   20.28    1.44
  -5  -4  12    0.11    0.31
  -5  -4  12   -0.26    0.17
  -5   4  12    0.36    0.32
  -5   4  12    0.18    0.29
  -4  -4  12   23.88    1.55
  -4  -4  12   26.70    1.61
  -4   4  12   27.39    1.69
  -4   4  12   25.58    1.52
  -3  -4  12   13.66    1.43
  -3  -4  12   13.33    1.36
  -3   4  12   12.77    1.30
  -3   4  12   14.28    1.49
  -2  -4  12   30.42    1.72
  -2  -4  12   30.79    1.77
  -2   4  12   27.72    1.63
  -2   4  12   33.90    1.89
  -1  -4  12   14.09    1.40
  -1  -4  12   15.78    1.64
  -1   4  12   14.19    1.39
  -1   4  12   18.51    1.43
   0  -4  12    0.48    0.34
   0  -4  12    0.44    0.39
   0   4  12    0.17    0.30
   0   4  12    0.08    0.30
   1  -4  12   17.70    1.35
   1  -4  12   15.72    1.64
   1   4  12   16.66    1.62
   1   4  12   20.07    1.46
   2  -4  12    0.10    0.32
   2  -4  12    0.46    0.37
   2   4  12    0.72    0.45
   2   4  12    0.32    0.35
   3  -4  12   31.85    2.04
   3  -4  12   27.32    2.98
   3   4  12   29.68    1.88
   3   4  12   28.30    1.80
   4  -4  12    0.05    0.36
   4   4  12    0.67    0.46
   5  -4  12    4.82    1.03
   5   4  12    5.18    1.07
   6  -4  12   15.44    1.89
   6   4  12   16.45    1.82
  13  -5 -12    0.84    0.54
 -13   5  12    0.41    0.48
  12  -5 -12    1.80    0.64
 -12   5  12    0.40    0.46
  11  -5 -12    0.04    0.34
 -11  -5  12   -0.13    0.31
 -11   5  12    0.18    0.44
  10  -5 -12   21.08    1.62
 -10  -5  12   18.92    1.50
 -10   5  12   21.31    1.94
 -10   5  12   19.15    1.48
  -9  -5  12    3.08    0.77
   9  -5 -12    3.84    0.84
  -9   5  12    2.94    0.72
  -9   5  12    4.25    0.86
  -8  -5  12   15.69    1.60
  -8   5  12   15.30    1.58
  -8   5  12   15.59    1.61
  -7  -5  12    6.36    1.02
  -7   5  12    3.47    0.72
  -7   5  12    7.52    1.09
  -6  -5  12    2.20    0.64
  -6   5  12    3.23    0.72
  -6   5  12    1.65    0.56
  -5  -5  12    0.53    0.40
  -5   5  12    0.32    0.37
  -5   5  12    0.16    0.33
  -4  -5  12    4.00    0.84
  -4  -5  12    2.16    0.64
  -4   5  12    2.29    0.66
  -4   5  12    2.81    0.74
  -3  -5  12   34.82    1.95
  -3  -5  12   32.29    1.90
  -3   5  12   32.34    1.82
  -3   5  12   32.08    1.89
  -2  -5  12    1.04    0.49
  -2  -5  12    0.47    0.42
  -2   5  12    0.39    0.35
  -2   5  12    0.88    0.44
  -1  -5  12    4.37    0.87
  -1  -5  12    2.32    0.68
  -1   5  12    2.69    0.75
  -1   5  12    2.10    0.61
   0  -5  12    1.86    0.62
   0  -5  12    1.84    0.65
   0   5  12    1.36    0.53
   0   5  12    2.64    0.74
   1  -5  12    1.25    0.55
   1  -5  12    1.97    0.65
   1   5  12    1.07    0.48
   1   5  12    1.49    0.58
   2  -5  12    1.32    0.56
   2  -5  12    1.16    0.65
   2   5  12    1.29    0.61
   2   5  12    1.33    0.57
   3  -5  12    0.85    0.48
   3   5  12    2.18    0.72
   3   5  12    2.03    0.67
   4  -5  12    0.71    0.55
   4   5  12    0.14    0.39
   4   5  12    0.39    0.59
   5  -5  12    2.39    0.88
   5   5  12    1.65    0.75
  12  -6 -12    5.12    1.10
 -12   6  12    6.65    1.27
  11  -6 -12    0.26    0.47
 -11  -6  12    0.12    0.44
 -11   6  12    0.55    0.55
  10  -6 -12    4.98    1.04
 -10  -6  12    3.44    0.85
 -10   6  12    4.93    0.98
 -10   6  12    5.29    1.10
  -9  -6  12    3.85    0.91
  -9   6  12    2.04    0.65
  -9   6  12    2.74    0.79
  -8  -6  12    0.53    0.41
  -8   6  12    0.44    0.46
  -8   6  12   -0.13    0.34
  -7  -6  12   35.70    2.07
  -7   6  12   33.79    2.05
  -7   6  12   32.23    1.97
  -6  -6  12    0.71    0.43
  -6   6  12    1.17    0.56
  -6   6  12    1.91    0.68
  -5  -6  12   -0.02    0.35
  -5   6  12    0.31    0.36
  -5   6  12   -0.05    0.30
  -4  -6  12   -0.09    0.30
  -4  -6  12    0.14    0.37
  -4   6  12   -0.07    0.34
  -4   6  12   -0.20    0.26
  -3  -6  12    5.38    0.99
  -3  -6  12    6.75    1.11
  -3   6  12    5.12    0.96
  -3   6  12    6.57    1.12
  -2  -6  12   -0.17    0.23
  -2  -6  12    0.12    0.30
  -2   6  12    0.14    0.32
  -2   6  12   -0.31    0.29
  -1  -6  12    4.64    0.91
  -1  -6  12    3.57    0.91
  -1   6  12    3.27    0.78
  -1   6  12    6.08    1.12
   0  -6  12   22.50    1.75
   0  -6  12   19.99    1.89
   0   6  12   20.17    1.62
   0   6  12   20.94    1.62
   1  -6  12    0.17    0.42
   1  -6  12   -0.13    0.30
   1   6  12    0.07    0.32
   1   6  12   -0.12    0.33
   2  -6  12    1.80    0.59
   2  -6  12    2.08    0.73
   2   6  12    1.92    0.65
   2   6  12    2.03    0.72
   3  -6  12    9.31    1.48
   3   6  12    6.10    1.12
   3   6  12    8.66    1.37
   4  -6  12   15.34    1.85
   4   6  12   18.88    2.15
   4   6  12   16.77    1.83
 -10  -7  12    9.55    1.41
 -10   7  12    5.91    1.13
 -10   7  12    9.85    1.47
  -9  -7  12    1.03    0.57
  -9   7  12    0.04    0.43
  -9   7  12    1.16    0.59
  -8  -7  12    0.34    0.46
  -8   7  12   -0.52    0.26
  -8   7  12    0.15    0.41
  -7  -7  12    8.42    1.33
  -7   7  12    6.37    1.19
  -7   7  12    6.55    1.17
  -6  -7  12    9.77    1.41
  -6   7  12   11.71    1.55
  -6   7  12   13.16    1.56
  -5  -7  12    3.56    0.90
  -5   7  12    5.29    1.10
  -5   7  12    4.25    0.95
  -4  -7  12    4.56    0.97
  -4   7  12    5.22    1.02
  -4   7  12    5.74    1.10
  -3  -7  12    1.65    0.60
  -3  -7  12    2.18    0.72
  -3   7  12    2.58    0.77
  -3   7  12    2.14    0.73
  -2  -7  12    7.68    1.24
  -2  -7  12    7.25    1.19
  -2   7  12    8.37    1.32
  -2   7  12    8.71    1.35
  -1  -7  12   11.61    1.53
  -1  -7  12   13.63    1.62
  -1   7  12   11.20    1.45
  -1   7  12   10.94    1.49
   0  -7  12   -0.75    0.33
   0  -7  12    0.42    0.46
   0   7  12   -0.06    0.38
   0   7  12    0.00    0.37
   1  -7  12   13.84    1.71
   1  -7  12   14.46    1.64
   1   7  12   14.17    1.66
   1   7  12   18.30    1.97
   2  -7  12   15.80    1.93
   2  -7  12   18.75    1.90
   2   7  12   18.18    2.02
   2   7  12   12.73    1.62
  -6  -8  12   -0.01    0.49
  -6   8  12   -0.25    0.38
  -6   8  12   -0.08    0.53
  -5  -8  12    0.22    0.48
  -5   8  12   -0.06    0.46
  -5   8  12    0.23    0.44
  -4  -8  12    1.10    0.58
  -4   8  12    1.57    0.70
  -4   8  12    0.96    0.61
  -3  -8  12   -0.16    0.38
  -3   8  12   -0.01    0.40
  -3   8  12    0.44    0.47
  -2  -8  12   17.55    1.98
  -2  -8  12   20.43    2.15
  -2   8  12   17.39    1.98
  -2   8  12   16.10    1.87
 -11   0  13    0.05    0.25
 -10   0  13   -0.15    0.28
  -9   0  13    0.07    0.28
  -8   0  13   -0.03    0.24
  -7   0  13   -0.08    0.27
  -6   0  13    0.20    0.24
  -5   0  13    0.17    0.26
  -5   0  13    0.04    0.21
  -4   0  13   -0.26    0.18
  -4   0  13   -0.30    0.18
  -3   0  13    0.07    0.30
  -3   0  13    0.10    0.23
  -3   0  13   -0.10    0.19
  -2   0  13    0.01    0.21
  -2   0  13    0.05    0.21
  -2   0  13   -0.17    0.16
  -1   0  13   -0.09    0.20
  -1   0  13    0.37    0.29
  -1   0  13    0.21    0.26
   0   0  13   -0.08    0.24
   0   0  13    0.11    0.24
   0   0  13   -0.10    0.21
   1   0  13   -0.33    0.20
   1   0  13    0.07    0.26
   1   0  13   -0.04    0.28
   2   0  13   -0.06    0.28
   2   0  13   -0.12    0.31
   2   0  13   -0.02    0.27
   3   0  13    0.25    0.36
   3   0  13    0.07    0.33
   3   0  13   -0.05    0.26
   4   0  13    0.06    0.31
   4   0  13    0.11    0.34
   5   0  13   -0.03    0.30
   5   0  13   -0.04    0.39
   6   0  13   -0.16    0.32
   6   0  13   -0.08    0.33
   7   0  13   -0.17    0.36
   7   0  13   -0.15    0.40
 -11  -1  13    4.64    0.80
 -11   1  13    5.17    0.86
 -10  -1  13    1.11    0.52
 -10   1  13    1.29    0.46
  -9  -1  13    0.43    0.36
  -9   1  13    1.67    0.53
  -8  -1  13    7.88    1.06
  -8   1  13    6.91    0.81
  -8   1  13    8.10    1.11
  -7  -1  13  124.22    3.43
  -7   1  13  117.68    3.38
  -7   1  13  120.71    2.85
  -6  -1  13   11.75    1.25
  -6   1  13   10.16    0.97
  -6   1  13   10.94    1.23
  -5  -1  13   82.82    2.58
  -5  -1  13   86.68    2.87
  -5   1  13   86.17    2.84
  -5   1  13   88.41    2.41
  -4  -1  13    3.72    0.72
  -4  -1  13    2.50    0.55
  -4   1  13    2.24    0.47
  -4   1  13    3.50    0.70
  -3  -1  13  174.95    4.23
  -3  -1  13  179.59    3.96
  -3   1  13  175.97    4.23
  -3   1  13  180.35    3.68
  -2  -1  13   18.00    1.23
  -2  -1  13   18.08    1.31
  -2   1  13   16.70    1.27
  -2   1  13   17.87    1.11
  -1  -1  13   -0.07    0.20
  -1  -1  13   -0.14    0.26
  -1   1  13    0.22    0.29
  -1   1  13    0.86    0.37
  -1   1  13    0.30    0.29
   0  -1  13    6.30    0.93
   0  -1  13    7.60    1.05
   0   1  13    8.37    0.98
   0   1  13    5.88    0.83
   0   1  13    6.36    0.99
   1  -1  13    3.59    0.77
   1  -1  13    4.13    0.83
   1   1  13    3.95    0.73
   1   1  13    2.74    0.68
   1   1  13    3.87    0.74
   2  -1  13   17.85    1.38
   2  -1  13   15.62    1.26
   2  -1  13   17.69    1.70
   2   1  13   19.18    1.34
   2   1  13   20.29    1.39
   2   1  13   16.48    1.31
   3  -1  13    0.19    0.30
   3  -1  13    0.92    0.51
   3   1  13    0.16    0.29
   3   1  13    0.46    0.40
   3   1  13    0.64    0.41
   4  -1  13    1.14    0.50
   4  -1  13    0.80    0.50
   4   1  13    0.74    0.46
   4   1  13    0.48    0.45
   5  -1  13   -0.04    0.36
   5  -1  13    0.22    0.43
   5   1  13   -0.03    0.32
   5   1  13    0.14    0.43
   6  -1  13    8.25    1.18
   6  -1  13    7.10    1.25
   6   1  13    8.72    1.28
   6   1  13   12.17    1.59
   7  -1  13    0.81    0.52
   7  -1  13   -0.12    0.45
   7   1  13    0.61    0.56
   7   1  13    1.02    0.60
  13  -2 -13    0.38    0.40
 -13   2  13    0.06    0.32
  12  -2 -13   53.07    2.26
 -12   2  13   55.11    2.29
 -11  -2  13    8.77    1.10
  11  -2 -13    9.41    1.13
 -11   2  13   11.87    1.30
 -11   2  13    8.75    1.06
  10  -2 -13   22.06    1.39
 -10  -2  13   22.56    1.50
 -10   2  13   23.51    1.52
 -10   2  13   25.43    1.47
  -9  -2  13    2.20    0.59
   9  -2 -13    2.86    0.63
  -9   2  13    2.25    0.57
  -9   2  13    2.05    0.54
  -8  -2  13   47.94    2.13
  -8   2  13   53.20    2.03
  -8   2  13   49.06    2.16
  -7  -2  13   46.26    2.09
  -7   2  13   45.03    1.83
  -7   2  13   45.23    2.08
  -6  -2  13   68.63    2.57
  -6   2  13   62.93    2.16
  -6   2  13   63.72    2.48
  -5  -2  13    1.09    0.48
  -5  -2  13    0.75    0.37
  -5   2  13    0.85    0.38
  -5   2  13    0.17    0.24
  -4  -2  13    3.24    0.71
  -4  -2  13    5.28    0.86
  -4   2  13    5.55    0.78
  -4   2  13    4.85    0.84
  -3  -2  13    0.11    0.23
  -3  -2  13   -0.10    0.22
  -3   2  13   -0.01    0.22
  -3   2  13    0.17    0.28
  -2  -2  13   22.07    1.46
  -2  -2  13   23.94    1.49
  -2   2  13   23.56    1.51
  -2   2  13   22.23    1.34
  -1  -2  13   12.10    1.33
  -1  -2  13   10.66    1.23
  -1   2  13   11.50    1.34
  -1   2  13   10.10    1.10
   0  -2  13   21.38    1.46
   0  -2  13   22.41    1.50
   0   2  13   24.66    1.59
   0   2  13   20.03    1.32
   1  -2  13    5.28    0.86
   1  -2  13    5.57    1.02
   1   2  13    4.33    0.81
   1   2  13    6.50    0.95
   2  -2  13   27.76    1.65
   2  -2  13   26.97    1.76
   2   2  13   27.22    1.67
   2   2  13   26.58    1.67
   3  -2  13   11.68    1.47
   3   2  13   12.22    1.41
   3   2  13   10.32    1.27
   4  -2  13    9.12    1.35
   4   2  13   12.62    1.49
   5  -2  13    3.07    0.86
   5   2  13    3.80    0.91
   6  -2  13    4.24    1.01
   6   2  13    4.89    0.99
  15  -3 -13    0.92    0.53
 -15   3  13    0.47    0.48
  14  -3 -13   -0.15    0.37
 -14   3  13    0.16    0.42
  13  -3 -13    1.22    0.55
 -13   3  13    0.93    0.51
  12  -3 -13    1.81    0.59
 -12   3  13    0.61    0.41
  11  -3 -13   28.39    1.72
 -11  -3  13   30.48    1.78
 -11   3  13   30.01    1.80
 -11   3  13   28.16    1.69
 -10  -3  13   14.92    1.49
  10  -3 -13   10.74    1.24
 -10   3  13   12.01    1.30
 -10   3  13   16.16    1.56
  -9  -3  13   20.43    1.44
   9  -3 -13   18.22    1.31
  -9   3  13   18.25    1.37
  -9   3  13   14.87    1.43
  -8  -3  13    7.22    1.06
  -8   3  13    5.20    0.92
  -8   3  13    6.27    0.92
  -7  -3  13    6.93    1.03
  -7   3  13    8.35    1.02
  -7   3  13    6.61    0.97
  -6  -3  13    4.77    0.85
  -6   3  13    5.14    0.88
  -6   3  13    4.66    0.75
  -5  -3  13    7.30    1.02
  -5  -3  13    7.66    1.04
  -5   3  13    8.59    1.08
  -5   3  13    7.25    1.06
  -4  -3  13    3.38    0.72
  -4  -3  13    4.04    0.75
  -4   3  13    3.58    0.70
  -4   3  13    4.42    0.81
  -3  -3  13    0.48    0.33
  -3  -3  13    0.91    0.40
  -3   3  13    0.51    0.33
  -3   3  13    0.71    0.40
  -2  -3  13    0.54    0.37
  -2  -3  13    0.49    0.35
  -2   3  13    0.55    0.36
  -2   3  13    0.68    0.36
  -1  -3  13   16.74    1.35
  -1  -3  13   16.73    1.59
  -1   3  13   17.62    1.32
  -1   3  13   16.83    1.63
   0  -3  13    8.33    1.17
   0  -3  13   10.35    1.26
   0   3  13    8.42    1.13
   0   3  13   10.14    1.28
   1  -3  13    8.29    1.21
   1  -3  13    8.31    1.09
   1   3  13    8.88    1.20
   1   3  13    8.93    1.17
   2  -3  13    1.70    0.56
   2  -3  13    0.34    0.36
   2   3  13    0.42    0.40
   2   3  13    0.98    0.48
   3  -3  13    1.20    0.59
   3   3  13    1.13    0.51
   3   3  13    1.03    0.46
   4  -3  13    2.76    0.81
   4   3  13    3.10    0.83
   5  -3  13    3.49    0.90
   5   3  13    2.91    0.80
   6  -3  13    0.73    0.57
   6   3  13    1.74    0.78
  14  -4 -13    8.63    1.33
 -14   4  13    5.67    1.10
  13  -4 -13    0.82    0.56
 -13   4  13    2.09    0.70
  12  -4 -13    0.35    0.46
 -12   4  13    0.83    0.49
 -11  -4  13    0.30    0.41
  11  -4 -13   -0.21    0.30
 -11   4  13    0.24    0.35
 -10  -4  13   40.21    2.10
  10  -4 -13   33.19    1.92
 -10   4  13   35.50    1.95
 -10   4  13   35.26    1.96
  -9  -4  13    0.12    0.37
  -9   4  13    1.03    0.54
  -9   4  13    0.27    0.36
  -8  -4  13    8.13    1.11
  -8   4  13   10.22    1.25
  -8   4  13    8.23    1.12
  -7  -4  13   40.88    2.09
  -7   4  13   38.88    2.05
  -7   4  13   40.16    1.98
  -6  -4  13    4.39    0.83
  -6   4  13    4.44    0.80
  -6   4  13    4.45    0.84
  -5  -4  13   -0.10    0.29
  -5  -4  13   -0.12    0.21
  -5   4  13    0.10    0.29
  -5   4  13    0.08    0.27
  -4  -4  13    0.30    0.36
  -4  -4  13    0.38    0.35
  -4   4  13    0.05    0.24
  -4   4  13   -0.10    0.25
  -3  -4  13    2.61    0.68
  -3  -4  13    1.79    0.58
  -3   4  13    1.47    0.51
  -3   4  13    1.38    0.46
  -2  -4  13    1.40    0.53
  -2  -4  13    1.84    0.59
  -2   4  13    2.56    0.68
  -2   4  13    3.80    0.79
  -1  -4  13    0.02    0.26
  -1  -4  13   -0.01    0.29
  -1   4  13    0.11    0.31
  -1   4  13    0.28    0.32
   0  -4  13    4.84    0.87
   0  -4  13    6.74    1.15
   0   4  13    5.95    0.98
   0   4  13    5.65    1.00
   1  -4  13   -0.35    0.32
   1  -4  13   -0.04    0.28
   1   4  13    0.46    0.37
   1   4  13   -0.04    0.25
   2  -4  13   10.89    1.34
   2  -4  13   11.81    1.50
   2   4  13   11.86    1.40
   2   4  13    9.50    1.33
   3  -4  13   -0.13    0.39
   3   4  13    0.95    0.53
   3   4  13    0.39    0.46
   4  -4  13    6.12    1.19
   4   4  13    5.77    1.10
   5  -4  13    0.41    0.59
   5   4  13   -0.38    0.34
  13  -5 -13   13.60    1.66
 -13   5  13   12.61    1.64
 -12  -5  13    1.66    0.98
  12  -5 -13    1.17    0.59
 -12   5  13    0.92    0.57
 -11  -5  13   14.57    1.63
  11  -5 -13    9.67    1.35
 -11   5  13   12.75    1.55
 -10  -5  13    1.16    0.54
  10  -5 -13    1.09    0.57
 -10   5  13    0.91    0.50
 -10   5  13    0.93    0.53
  -9  -5  13   13.11    1.60
  -9   5  13   14.77    1.60
  -9   5  13   12.98    1.48
  -8  -5  13    3.44    0.84
  -8   5  13    4.73    0.92
  -8   5  13    8.03    1.16
  -7  -5  13   14.25    1.55
  -7   5  13   14.00    1.53
  -7   5  13   14.08    1.49
  -6  -5  13   12.80    1.43
  -6   5  13   16.27    1.62
  -6   5  13   17.08    1.74
  -5  -5  13   10.14    1.31
  -5   5  13   10.14    1.34
  -5   5  13    6.54    1.01
  -4  -5  13    9.10    1.26
  -4  -5  13    7.10    1.09
  -4   5  13    6.51    1.00
  -4   5  13    8.55    1.25
  -3  -5  13   25.56    1.72
  -3  -5  13   24.18    1.71
  -3   5  13   24.05    1.74
  -3   5  13   23.65    1.61
  -2  -5  13    1.19    0.51
  -2  -5  13    2.43    0.71
  -2   5  13    2.52    0.69
  -2   5  13    1.78    0.60
  -1  -5  13    6.97    1.09
  -1  -5  13   10.04    1.41
  -1   5  13    6.28    1.05
  -1   5  13    7.82    1.19
   0  -5  13    2.58    0.77
   0  -5  13    2.15    0.68
   0   5  13    1.53    0.60
   0   5  13    2.69    0.72
   1  -5  13   55.34    2.78
   1  -5  13   56.62    2.61
   1   5  13   56.33    2.67
   1   5  13   51.52    2.56
   2  -5  13   -0.08    0.39
   2  -5  13    0.01    0.38
   2   5  13   -0.12    0.36
   2   5  13    0.01    0.31
   3  -5  13    8.92    1.46
   3   5  13    7.59    1.31
   3   5  13    8.64    1.30
   4  -5  13    8.50    1.45
   4   5  13   11.23    1.58
 -11  -6  13    1.05    0.59
  11  -6 -13    0.54    0.53
 -11   6  13    2.94    0.85
 -10  -6  13    2.39    0.69
 -10   6  13    1.31    0.64
 -10   6  13    2.47    0.77
  -9  -6  13    0.87    0.56
  -9   6  13    2.07    0.73
  -9   6  13    1.16    0.58
  -8  -6  13    7.02    1.18
  -8   6  13    9.59    1.42
  -8   6  13    7.02    1.17
  -7  -6  13    3.31    0.88
  -7   6  13    6.90    1.15
  -7   6  13    4.22    0.88
  -6  -6  13    1.81    0.64
  -6   6  13    2.23    0.72
  -6   6  13    1.41    0.58
  -5  -6  13    1.06    0.51
  -5   6  13    0.77    0.55
  -5   6  13    0.95    0.56
  -4  -6  13   60.16    2.85
  -4  -6  13   58.43    2.73
  -4   6  13   57.32    2.74
  -4   6  13   63.21    2.76
  -3  -6  13    0.20    0.41
  -3  -6  13    0.65    0.51
  -3   6  13    0.47    0.44
  -3   6  13    0.55    0.49
  -2  -6  13    5.57    1.07
  -2  -6  13    6.65    1.07
  -2   6  13    7.72    1.25
  -2   6  13    7.85    1.20
  -1  -6  13    2.75    0.81
  -1  -6  13    2.87    0.79
  -1   6  13    2.09    0.72
  -1   6  13    2.87    0.83
   0  -6  13   13.36    1.65
   0  -6  13   14.89    1.65
   0   6  13   17.82    1.88
   0   6  13   17.82    1.89
   1  -6  13    1.85    0.73
   1  -6  13    0.89    0.55
   1   6  13    0.26    0.46
   1   6  13    0.57    0.47
   2  -6  13    1.54    0.71
   2  -6  13    0.55    0.47
   2   6  13    1.35    0.64
   2   6  13    1.61    0.72
   3  -6  13    3.81    1.00
   3   6  13    2.65    0.89
   3   6  13    3.11    0.86
  -9  -7  13    0.85    0.57
  -9   7  13    1.38    0.59
  -9   7  13    0.42    0.54
  -8  -7  13    0.83    0.52
  -8   7  13    0.93    0.62
  -8   7  13    0.93    0.50
  -7  -7  13    3.49    0.89
  -7   7  13    5.38    1.09
  -7   7  13    5.62    1.09
  -6  -7  13   -0.27    0.36
  -6   7  13   -0.26    0.34
  -6   7  13    0.07    0.37
  -5  -7  13    9.80    1.47
  -5   7  13    7.16    1.17
  -5   7  13    9.83    1.46
  -4  -7  13    1.98    0.76
  -4   7  13    3.30    0.94
  -4   7  13    1.83    0.71
  -3  -7  13   -0.21    0.42
  -3  -7  13    0.42    0.46
  -3   7  13    0.02    0.35
  -3   7  13    0.12    0.38
  -2  -7  13    1.07    0.59
  -2  -7  13    1.66    0.65
  -2   7  13    2.63    0.82
  -2   7  13    1.02    0.68
  -1  -7  13   -0.04    0.36
  -1  -7  13    0.01    0.35
  -1   7  13   -0.05    0.40
  -1   7  13    0.31    0.48
   0  -7  13    5.37    1.08
   0  -7  13    4.88    1.11
   0   7  13    3.73    1.00
   0   7  13    5.41    1.18
 -11   0  14   -0.06    0.32
 -10   0  14   21.22    1.50
  -9   0  14    0.68    0.38
  -8   0  14    2.58    0.68
  -7   0  14   -0.02    0.28
  -6   0  14    0.65    0.40
  -5   0  14  236.99    4.54
  -5   0  14  238.98    5.18
  -4   0  14  137.74    3.34
  -4   0  14  143.20    3.89
  -3   0  14    1.11    0.46
  -3   0  14   -0.10    0.23
  -2   0  14  166.32    3.87
  -2   0  14  168.71    4.29
  -1   0  14   78.62    2.89
  -1   0  14   79.97    2.67
   0   0  14    6.20    1.00
   0   0  14    5.66    0.90
   0   0  14    6.12    0.83
   1   0  14    3.94    0.74
   1   0  14    3.52    0.74
   1   0  14    3.89    0.83
   2   0  14   15.23    1.53
   2   0  14   16.70    1.28
   2   0  14   16.02    1.57
   3   0  14    3.81    0.80
   3   0  14    4.68    0.95
   4   0  14    8.84    1.19
   4   0  14    7.26    1.19
   5   0  14    1.11    0.59
   5   0  14    0.47    0.50
   6   0  14   -0.25    0.35
   6   0  14   -0.22    0.33
 -11  -1  14    0.64    0.46
 -11   1  14    0.12    0.33
 -10  -1  14    5.67    0.98
 -10   1  14    5.93    0.96
  -9  -1  14    0.05    0.27
  -9   1  14    0.14    0.35
  -8  -1  14   24.02    1.57
  -8   1  14   25.95    1.62
  -7  -1  14   84.83    2.93
  -7   1  14   85.47    2.97
  -6  -1  14    0.34    0.30
  -6   1  14    0.92    0.42
  -5  -1  14   26.06    1.49
  -5  -1  14   26.68    1.65
  -5   1  14   25.56    1.33
  -5   1  14   24.51    1.61
  -4  -1  14    9.00    1.15
  -4  -1  14   10.82    1.14
  -4   1  14   15.41    1.04
  -4   1  14   11.34    1.27
  -3  -1  14    9.68    1.20
  -3  -1  14   10.49    1.15
  -3   1  14    7.88    1.09
  -3   1  14   11.43    1.07
  -2  -1  14   23.47    1.56
  -2  -1  14   22.06    1.43
  -2   1  14   21.99    1.54
  -2   1  14   20.63    1.26
  -1  -1  14    9.62    1.18
  -1  -1  14   10.98    1.28
  -1   1  14    9.02    1.18
  -1   1  14   12.38    1.22
   0  -1  14    2.09    0.58
   0  -1  14    1.77    0.54
   0   1  14    2.15    0.61
   0   1  14    2.76    0.65
   1  -1  14    0.82    0.45
   1  -1  14    0.62    0.42
   1   1  14    0.51    0.39
   1   1  14    0.69    0.40
   2  -1  14    0.28    0.32
   2  -1  14   -0.09    0.33
   2   1  14    0.08    0.37
   2   1  14    0.12    0.32
   2   1  14    0.30    0.36
   3  -1  14   12.67    1.56
   3   1  14   15.35    1.64
   3   1  14   13.64    1.46
   4  -1  14    0.11    0.46
   4   1  14    0.26    0.31
   4   1  14    0.02    0.35
   5  -1  14   -0.18    0.37
   5   1  14    0.22    0.45
   5   1  14    0.35    0.49
   6  -1  14    0.58    0.48
   6   1  14    1.08    0.54
   6   1  14    1.53    0.67
 -11  -2  14    8.41    1.12
 -11   2  14    8.36    1.13
 -11   2  14    9.50    1.62
 -10  -2  14   13.27    1.41
  10  -2 -14    7.59    0.96
 -10   2  14    9.13    1.19
 -10   2  14   13.15    1.29
  -9  -2  14    0.66    0.40
  -9   2  14    1.11    0.45
  -9   2  14    0.21    0.30
  -8  -2  14    0.10    0.27
  -8   2  14    1.26    0.43
  -8   2  14    1.23    0.49
  -7  -2  14   -0.23    0.31
  -7   2  14    0.34    0.36
  -7   2  14    0.11    0.27
  -6  -2  14    0.13    0.29
  -6   2  14    0.08    0.27
  -6   2  14    0.02    0.25
  -5  -2  14    9.33    1.15
  -5  -2  14    7.30    1.04
  -5   2  14    7.84    0.97
  -5   2  14    8.32    1.18
  -4  -2  14    1.77    0.54
  -4  -2  14    1.30    0.55
  -4   2  14    3.59    0.66
  -4   2  14    0.97    0.44
  -3  -2  14    5.26    0.92
  -3  -2  14    6.61    0.99
  -3   2  14    4.38    0.75
  -3   2  14    6.06    0.99
  -2  -2  14   -0.07    0.26
  -2  -2  14    0.25    0.29
  -2   2  14    0.90    0.43
  -2   2  14    0.79    0.46
  -1  -2  14    7.36    1.08
  -1  -2  14    7.02    1.07
  -1   2  14    7.19    1.06
  -1   2  14    7.10    0.97
   0  -2  14   13.68    1.46
   0  -2  14   16.25    1.60
   0   2  14   13.98    1.47
   0   2  14   14.63    1.44
   1  -2  14   18.21    1.81
   1  -2  14   18.41    1.42
   1   2  14   21.32    1.57
   1   2  14   22.07    1.51
   2  -2  14    3.95    0.91
   2  -2  14    2.99    0.74
   2   2  14    4.96    0.90
   2   2  14    3.79    0.82
   3  -2  14    1.21    0.63
   3   2  14    0.99    0.50
   3   2  14    1.67    0.61
   4  -2  14    4.86    1.01
   4   2  14    7.78    1.24
   5  -2  14    1.15    0.65
   5   2  14    0.05    0.39
  14  -3 -14    6.75    1.19
 -14   3  14    6.28    1.11
  13  -3 -14    7.78    1.12
 -13   3  14    8.33    1.17
 -12  -3  14    7.37    1.13
  12  -3 -14    6.63    1.06
 -12   3  14    5.24    0.96
  11  -3 -14   19.73    1.47
 -11  -3  14   17.93    1.44
 -11   3  14   20.07    1.52
 -11   3  14   22.01    1.51
  10  -3 -14    6.27    0.95
 -10  -3  14    5.47    0.99
 -10   3  14    6.17    0.97
 -10   3  14    5.75    0.99
  -9  -3  14    5.95    0.99
  -9   3  14    7.94    1.07
  -9   3  14    5.91    1.00
  -8  -3  14   -0.13    0.25
  -8   3  14    0.40    0.34
  -8   3  14    0.11    0.29
  -7  -3  14    2.51    0.66
  -7   3  14    1.06    0.40
  -7   3  14    1.72    0.54
  -6  -3  14   61.25    2.58
  -6   3  14   59.71    2.35
  -6   3  14   64.39    2.63
  -5  -3  14   37.64    2.02
  -5  -3  14   35.41    1.92
  -5   3  14   40.60    2.08
  -5   3  14   36.41    1.81
  -4  -3  14    3.42    0.75
  -4  -3  14    4.09    0.87
  -4   3  14    3.69    0.82
  -4   3  14    3.82    0.73
  -3  -3  14    1.73    0.58
  -3  -3  14    1.39    0.52
  -3   3  14    1.35    0.43
  -3   3  14    3.27    0.78
  -2  -3  14    3.05    0.73
  -2  -3  14    4.46    0.85
  -2   3  14    5.02    0.84
  -2   3  14    4.10    0.83
  -1  -3  14   25.52    1.73
  -1  -3  14   29.10    1.79
  -1   3  14   29.00    1.70
  -1   3  14   27.83    1.79
   0  -3  14    0.02    0.33
   0  -3  14    0.07    0.37
   0   3  14    0.01    0.33
   0   3  14   -0.19    0.27
   1  -3  14   26.96    1.86
   1  -3  14   33.78    1.93
   1   3  14   32.77    1.97
   1   3  14   29.45    1.83
   2  -3  14    7.75    1.09
   2  -3  14    8.07    1.32
   2   3  14   10.69    1.38
   2   3  14    9.98    1.33
   3  -3  14   37.76    2.32
   3   3  14   40.94    2.25
   3   3  14   38.13    2.21
   4  -3  14    0.76    0.59
   4   3  14    1.39    0.63
   5  -3  14   13.38    1.76
   5   3  14   13.69    1.73
  14  -4 -14    2.21    0.79
 -14   4  14    0.85    0.53
  13  -4 -14    7.04    1.19
 -13   4  14    7.23    1.20
 -12  -4  14    1.62    0.64
  12  -4 -14    1.19    0.57
 -12   4  14    2.35    0.69
  11  -4 -14    7.33    1.20
 -11  -4  14    5.81    1.04
 -11   4  14    4.81    0.95
 -11   4  14    6.50    1.09
 -10  -4  14   12.00    1.47
 -10   4  14   13.83    1.48
 -10   4  14   11.25    1.39
  -9  -4  14   56.87    2.58
  -9   4  14   61.79    2.66
  -9   4  14   59.70    2.54
  -8  -4  14    7.95    1.19
  -8   4  14    7.45    1.07
  -8   4  14    9.51    1.27
  -7  -4  14   10.18    1.31
  -7   4  14   10.64    1.38
  -7   4  14    7.12    1.01
  -6  -4  14   34.18    1.98
  -6   4  14   34.04    1.87
  -6   4  14   36.18    2.04
  -5  -4  14    1.61    0.63
  -5  -4  14    2.35    0.68
  -5   4  14    2.95    0.73
  -5   4  14    1.55    0.60
  -4  -4  14    0.64    0.38
  -4  -4  14    0.17    0.32
  -4   4  14    0.61    0.39
  -4   4  14    0.29    0.29
  -3  -4  14    0.24    0.38
  -3  -4  14    0.25    0.31
  -3   4  14   -0.04    0.25
  -3   4  14    0.62    0.37
  -2  -4  14    1.52    0.62
  -2  -4  14    2.21    0.65
  -2   4  14    2.43    0.67
  -2   4  14    2.96    0.71
  -1  -4  14    1.20    0.56
  -1  -4  14    0.73    0.43
  -1   4  14    0.50    0.41
  -1   4  14    0.79    0.40
   0  -4  14    3.88    0.96
   0  -4  14    2.42    0.68
   0   4  14    1.88    0.65
   0   4  14    2.61    0.72
   1  -4  14    6.34    1.12
   1  -4  14    7.04    1.14
   1   4  14    6.97    1.19
   1   4  14    4.73    0.93
   2  -4  14   54.30    2.80
   2  -4  14   50.35    2.44
   2   4  14   55.23    2.66
   2   4  14   53.82    2.62
   3  -4  14    4.28    1.02
   3   4  14    4.18    0.98
   3   4  14    5.86    1.11
   4  -4  14    7.70    1.39
   4   4  14    6.02    1.19
 -12  -5  14    0.06    0.42
  12  -5 -14   -0.01    0.37
 -12   5  14   -0.01    0.38
  11  -5 -14    4.83    1.02
 -11  -5  14    5.11    1.02
 -11   5  14    4.12    0.90
 -11   5  14    4.86    1.02
 -10  -5  14    8.28    1.27
 -10   5  14   12.02    1.49
 -10   5  14    8.14    1.25
  -9  -5  14   -0.05    0.35
  -9   5  14   -0.14    0.27
  -9   5  14    0.06    0.34
  -8  -5  14    0.64    0.48
  -8   5  14    1.18    0.55
  -8   5  14    0.77    0.52
  -7  -5  14    3.44    0.84
  -7   5  14    3.33    0.80
  -7   5  14    2.05    0.68
  -6  -5  14    0.54    0.42
  -6   5  14    0.94    0.51
  -6   5  14    0.64    0.49
  -5  -5  14    4.12    0.89
  -5  -5  14    5.85    1.01
  -5   5  14    6.24    1.06
  -5   5  14    6.69    1.06
  -4  -5  14    3.78    0.88
  -4  -5  14    3.59    0.86
  -4   5  14    5.25    1.03
  -4   5  14    5.18    1.01
  -3  -5  14    3.68    0.85
  -3  -5  14    3.21    0.79
  -3   5  14    2.21    0.69
  -3   5  14    2.98    0.75
  -2  -5  14    1.30    0.56
  -2  -5  14    0.75    0.46
  -2   5  14    1.74    0.64
  -2   5  14    2.11    0.72
  -1  -5  14    0.53    0.48
  -1  -5  14    0.54    0.44
  -1   5  14    0.19    0.40
  -1   5  14    0.21    0.35
   0  -5  14    0.06    0.43
   0  -5  14    0.59    0.46
   0   5  14   -0.14    0.31
   0   5  14   -0.48    0.29
   1  -5  14    2.27    0.72
   1  -5  14    2.11    0.68
   1   5  14    2.02    0.67
   1   5  14    4.36    1.02
   2  -5  14    5.05    1.07
   2  -5  14    5.93    1.22
   2   5  14    5.93    1.11
   2   5  14    6.84    1.24
   3  -5  14   10.41    1.56
   3   5  14   11.23    1.50
   3   5  14   11.16    1.53
 -11  -6  14    8.05    1.32
 -11   6  14    8.28    1.44
 -11   6  14    7.30    1.30
 -10  -6  14    3.41    0.97
 -10   6  14    2.49    0.75
 -10   6  14    2.72    0.85
  -9  -6  14    0.60    0.58
  -9   6  14    0.54    0.50
  -9   6  14    1.53    0.61
  -8  -6  14    2.49    0.79
  -8   6  14    2.46    0.76
  -8   6  14    1.27    0.60
  -7  -6  14    2.32    0.71
  -7   6  14    1.74    0.60
  -7   6  14    2.09    0.73
  -6  -6  14    0.23    0.38
  -6   6  14    0.03    0.43
  -6   6  14    0.12    0.33
  -5  -6  14    0.41    0.45
  -5   6  14    0.70    0.53
  -5   6  14    0.59    0.40
  -4  -6  14   29.77    2.02
  -4  -6  14   22.39    1.81
  -4   6  14   27.33    1.90
  -4   6  14   26.56    1.97
  -3  -6  14   11.32    1.50
  -3  -6  14   19.10    1.93
  -3   6  14   16.11    1.77
  -3   6  14   15.85    1.80
  -2  -6  14   -0.08    0.33
  -2  -6  14    0.27    0.41
  -2   6  14    0.47    0.45
  -2   6  14   -0.33    0.36
  -1  -6  14   19.50    2.02
  -1  -6  14   19.25    1.95
  -1   6  14   20.95    2.07
  -1   6  14   21.59    2.07
   0  -6  14   21.10    2.05
   0  -6  14   19.28    2.03
   0   6  14   18.60    1.98
   0   6  14   16.81    1.86
   1  -6  14   16.51    1.94
   1  -6  14   16.00    1.76
   1   6  14   20.62    2.11
   1   6  14   18.92    2.05
  -7  -7  14    1.07    0.58
  -7   7  14    0.56    0.53
  -7   7  14   -0.04    0.46
  -6  -7  14    1.89    0.68
  -6   7  14    4.97    1.08
  -6   7  14    4.38    1.02
  -5  -7  14    5.98    1.16
  -5   7  14    5.79    1.13
  -5   7  14    3.91    0.98
  -4  -7  14   14.63    1.74
  -4   7  14   18.78    2.06
  -4   7  14   17.16    1.87
  -3  -7  14   16.28    1.85
  -3  -7  14   14.64    1.81
  -3   7  14   16.23    1.84
  -3   7  14   16.47    1.96
  -2  -7  14    1.86    0.70
  -2  -7  14    3.36    1.00
  -2   7  14    2.51    0.84
  -2   7  14    2.94    0.84
 -12   0  15    0.43    0.39
 -11   0  15   -0.14    0.29
 -10   0  15    0.12    0.35
  -9   0  15   -0.07    0.29
  -8   0  15    0.06    0.27
  -7   0  15    0.25    0.34
  -6   0  15    0.12    0.32
  -5   0  15   -0.41    0.19
  -4   0  15    0.27    0.28
  -4   0  15    0.11    0.36
  -3   0  15   -0.03    0.30
  -3   0  15    0.08    0.28
  -2   0  15   -0.15    0.33
  -2   0  15   -0.08    0.27
  -1   0  15   -0.27    0.25
  -1   0  15    0.03    0.30
   0   0  15   -0.36    0.28
   0   0  15   -0.22    0.27
   1   0  15    0.21    0.33
   1   0  15    0.00    0.30
   2   0  15    0.01    0.43
   2   0  15   -0.02    0.35
   3   0  15   -0.02    0.26
   3   0  15   -0.34    0.34
   4   0  15   -0.06    0.45
   4   0  15    0.03    0.36
   5   0  15   -0.01    0.47
   5   0  15    0.27    0.48
 -12  -1  15   21.37    1.57
 -11  -1  15   16.74    1.68
 -11   1  15   17.77    1.74
 -10  -1  15   22.56    1.59
 -10   1  15   22.60    1.62
  -9  -1  15   10.01    1.27
  -9   1  15   11.48    1.40
  -8  -1  15    7.55    1.11
  -8   1  15    6.85    1.06
  -7  -1  15    5.24    0.92
  -7   1  15    4.68    0.88
  -6  -1  15    0.14    0.32
  -6   1  15    0.27    0.36
  -5  -1  15    2.26    0.56
  -5  -1  15    3.08    0.71
  -5   1  15    1.68    0.56
  -4  -1  15   42.01    1.96
  -4  -1  15   40.27    2.12
  -4   1  15   43.70    2.21
  -3  -1  15    1.47    0.52
  -3  -1  15    0.56    0.41
  -3   1  15    0.48    0.38
  -3   1  15    1.85    0.59
  -2  -1  15    5.54    0.96
  -2  -1  15    6.02    0.98
  -2   1  15    5.70    0.85
  -2   1  15    5.54    0.96
  -1  -1  15    1.05    0.50
  -1  -1  15    0.47    0.40
  -1   1  15    0.84    0.39
  -1   1  15    0.61    0.46
   0  -1  15   20.50    1.55
   0  -1  15   19.75    1.49
   0   1  15   22.27    1.46
   0   1  15   17.21    1.70
   1  -1  15   -0.19    0.27
   1  -1  15    0.08    0.33
   1   1  15    0.46    0.39
   1   1  15   -0.33    0.23
   2  -1  15    3.15    0.84
   2  -1  15    3.59    0.83
   2   1  15    2.82    0.72
   2   1  15    2.02    0.65
   3  -1  15    1.70    0.67
   3   1  15    3.05    0.77
   4  -1  15   10.37    1.43
   4   1  15   11.77    1.46
   5  -1  15    1.90    0.78
   5   1  15    2.54    0.82
 -12  -2  15    2.89    0.74
 -11  -2  15   43.66    2.25
 -11   2  15   42.53    2.22
 -10  -2  15    0.12    0.29
 -10   2  15    0.16    0.38
  -9  -2  15    8.25    1.18
  -9   2  15    7.86    1.16
  -8  -2  15   26.32    1.74
  -8   2  15   26.66    1.73
  -8   2  15   22.87    1.42
  -7  -2  15   31.64    1.88
  -7   2  15   33.55    1.95
  -7   2  15   33.15    1.67
  -6  -2  15    2.80    0.78
  -6   2  15    2.71    0.59
  -6   2  15    2.84    0.73
  -5  -2  15    3.17    0.74
  -5  -2  15    4.51    0.93
  -5   2  15    4.72    0.78
  -5   2  15    3.74    0.81
  -4  -2  15    3.56    0.80
  -4  -2  15    4.29    0.82
  -4   2  15    4.81    0.93
  -4   2  15    4.19    0.75
  -3  -2  15   14.72    1.57
  -3  -2  15   14.68    1.53
  -3   2  15   13.74    1.33
  -3   2  15   14.10    1.54
  -2  -2  15    7.55    1.14
  -2  -2  15    8.02    1.17
  -2   2  15    8.04    1.05
  -2   2  15    8.20    1.23
  -1  -2  15    5.19    0.96
  -1  -2  15    6.24    1.01
  -1   2  15    6.29    1.03
  -1   2  15    5.00    0.84
   0  -2  15    3.19    0.83
   0  -2  15    2.18    0.64
   0   2  15    2.03    0.64
   0   2  15    1.64    0.60
   1  -2  15   12.55    1.48
   1  -2  15   15.48    1.62
   1   2  15   10.58    1.33
   1   2  15   13.20    1.45
   2  -2  15    5.39    0.97
   2  -2  15    5.11    1.06
   2   2  15    4.44    0.92
   2   2  15    6.89    1.14
   3  -2  15   11.67    1.59
   3   2  15    8.12    1.23
   4  -2  15    7.02    1.35
   4   2  15    6.60    1.16
  12  -3 -15    2.53    0.73
 -12  -3  15    1.39    0.60
 -12   3  15    1.53    0.60
 -11  -3  15    8.48    1.23
 -11   3  15   11.63    1.44
 -11   3  15    8.67    1.18
 -10  -3  15    9.48    1.32
 -10   3  15    9.95    1.37
 -10   3  15    7.87    1.09
  -9  -3  15    0.64    0.40
  -9   3  15    0.86    0.44
  -9   3  15    1.58    0.58
  -8  -3  15   22.47    1.63
  -8   3  15   22.47    1.64
  -8   3  15   21.21    1.44
  -7  -3  15    3.23    0.79
  -7   3  15    3.27    0.79
  -7   3  15    5.76    0.92
  -6  -3  15    1.43    0.56
  -6   3  15    1.34    0.49
  -6   3  15    2.26    0.62
  -5  -3  15   21.85    1.58
  -5  -3  15   16.17    1.64
  -5   3  15   21.45    1.60
  -5   3  15   20.62    1.42
  -4  -3  15    2.55    0.71
  -4  -3  15    2.03    0.69
  -4   3  15    2.64    0.74
  -4   3  15    2.12    0.58
  -3  -3  15    6.77    1.11
  -3  -3  15    6.90    1.09
  -3   3  15    6.72    1.02
  -3   3  15    3.58    0.77
  -2  -3  15   -0.04    0.38
  -2  -3  15   -0.18    0.32
  -2   3  15    0.25    0.34
  -2   3  15    0.32    0.33
  -1  -3  15    0.91    0.52
  -1  -3  15    0.56    0.42
  -1   3  15    1.47    0.57
  -1   3  15    0.53    0.44
   0  -3  15    2.05    0.67
   0  -3  15    0.91    0.48
   0   3  15    1.89    0.64
   0   3  15    2.01    0.71
   1  -3  15    0.37    0.35
   1  -3  15    0.18    0.37
   1   3  15    0.82    0.42
   1   3  15    0.18    0.37
   2  -3  15    0.25    0.43
   2  -3  15   -0.07    0.39
   2   3  15    0.29    0.47
   2   3  15    0.48    0.44
   3  -3  15    5.97    1.19
   3   3  15    5.70    1.09
   4  -3  15    7.02    1.33
   4   3  15   10.29    1.54
  13  -4 -15    1.31    0.67
 -13   4  15    1.92    0.71
  12  -4 -15    4.52    0.96
 -12  -4  15    4.13    0.92
 -12   4  15    5.20    1.05
 -11  -4  15   22.94    1.75
 -11   4  15   26.17    1.82
 -11   4  15   21.12    1.69
 -10  -4  15    2.71    0.74
 -10   4  15    2.71    0.75
 -10   4  15    1.81    0.64
  -9  -4  15    8.39    1.28
  -9   4  15   10.82    1.33
  -9   4  15   10.60    1.38
  -8  -4  15   12.40    1.48
  -8   4  15    9.30    1.20
  -8   4  15   14.45    1.65
  -7  -4  15    3.32    0.81
  -7   4  15    2.59    0.72
  -7   4  15    0.81    0.50
  -6  -4  15    4.38    0.97
  -6   4  15    4.89    0.97
  -6   4  15    7.50    1.08
  -5  -4  15    0.27    0.41
  -5  -4  15   -0.12    0.31
  -5   4  15   -0.08    0.35
  -5   4  15    0.08    0.31
  -4  -4  15   -0.21    0.28
  -4  -4  15    0.24    0.33
  -4   4  15   -0.06    0.31
  -4   4  15   -0.03    0.36
  -3  -4  15    0.48    0.44
  -3  -4  15    2.14    0.69
  -3   4  15    1.51    0.60
  -3   4  15    1.35    0.57
  -2  -4  15    0.13    0.40
  -2  -4  15    0.38    0.41
  -2   4  15   -0.27    0.31
  -2   4  15    0.28    0.38
  -1  -4  15    6.11    1.14
  -1  -4  15    5.61    1.01
  -1   4  15    7.13    1.15
  -1   4  15    4.00    0.93
   0  -4  15   -0.04    0.40
   0  -4  15    0.44    0.47
   0   4  15   -0.09    0.40
   0   4  15    0.09    0.40
   1  -4  15   22.97    1.76
   1  -4  15   27.67    2.05
   1   4  15   31.68    2.07
   1   4  15   25.82    1.88
   2  -4  15    3.56    1.02
   2  -4  15    4.20    1.00
   2   4  15    5.26    1.05
   2   4  15    2.26    0.75
   3  -4  15    2.60    0.83
   3   4  15    4.36    0.99
 -12  -5  15    4.89    0.99
 -11  -5  15    0.28    0.42
 -11   5  15   -0.11    0.38
 -11   5  15   -0.16    0.41
 -10  -5  15   -0.39    0.32
 -10   5  15   -0.21    0.39
 -10   5  15    0.61    0.53
  -9  -5  15    2.06    0.71
  -9   5  15    2.25    0.71
  -9   5  15    3.68    0.87
  -8  -5  15   22.18    1.74
  -8   5  15   16.17    1.66
  -8   5  15   18.04    1.86
  -7  -5  15    0.05    0.35
  -7   5  15    0.22    0.36
  -7   5  15    0.35    0.41
  -6  -5  15   27.32    1.93
  -6   5  15   30.95    2.04
  -6   5  15   29.08    1.90
  -5  -5  15    2.37    0.74
  -5  -5  15    2.04    0.73
  -5   5  15    2.78    0.77
  -5   5  15    0.47    0.45
  -4  -5  15   16.10    1.82
  -4  -5  15   13.98    1.65
  -4   5  15   11.83    1.58
  -4   5  15   12.47    1.49
  -3  -5  15    1.43    0.66
  -3  -5  15    1.41    0.63
  -3   5  15    0.55    0.49
  -3   5  15    0.70    0.48
  -2  -5  15   13.40    1.60
  -2  -5  15   17.87    2.00
  -2   5  15   14.50    1.64
  -2   5  15   13.24    1.62
  -1  -5  15    0.24    0.39
  -1  -5  15    0.38    0.43
  -1   5  15    0.42    0.47
  -1   5  15    0.50    0.49
   0  -5  15   10.76    1.46
   0  -5  15   10.02    1.53
   0   5  15   10.94    1.55
   0   5  15   11.65    1.54
   1  -5  15    0.17    0.48
   1  -5  15   -0.08    0.40
   1   5  15   -0.01    0.36
   1   5  15    0.00    0.42
  -9  -6  15    9.64    1.46
  -9   6  15    6.82    1.19
  -9   6  15    7.52    1.30
  -8  -6  15   18.00    2.00
  -8   6  15   19.47    2.12
  -8   6  15   15.94    1.78
  -7  -6  15    2.17    0.69
  -7   6  15    5.17    1.05
  -7   6  15    2.40    0.76
  -6  -6  15    0.33    0.42
  -6   6  15    0.24    0.47
  -6   6  15    0.11    0.45
  -5  -6  15   36.63    2.28
  -5   6  15   37.12    2.36
  -5   6  15   40.35    2.35
  -4  -6  15   -0.11    0.43
  -4  -6  15    0.89    0.53
  -4   6  15   -0.35    0.38
  -4   6  15    0.07    0.44
  -3  -6  15    1.54    0.62
  -3  -6  15    2.84    0.89
  -3   6  15    3.39    0.87
  -3   6  15    3.14    0.85
  -2  -6  15    3.57    0.94
  -2  -6  15    2.51    0.71
  -2   6  15    3.50    0.97
  -2   6  15    3.50    0.91
  -1  -6  15   12.62    1.72
  -1  -6  15   16.88    1.87
  -1   6  15   14.40    1.75
  -1   6  15   13.72    1.70
 -12   0  16   12.87    1.57
 -11   0  16    0.33    0.42
 -10   0  16   29.29    1.90
  -9   0  16  221.52    5.41
  -8   0  16    2.26    0.67
  -7   0  16   28.46    1.88
  -6   0  16    1.66    0.60
  -5   0  16  109.66    3.71
  -4   0  16    0.70    0.42
  -3   0  16   17.84    1.76
  -2   0  16   31.35    2.00
  -1   0  16    1.68    0.64
   0   0  16    0.11    0.38
   0   0  16   -0.10    0.27
   1   0  16    0.27    0.43
   1   0  16    0.89    0.49
   2   0  16   16.78    1.72
   2   0  16   14.84    1.70
   3   0  16    3.54    0.92
 -12  -1  16   30.93    1.95
 -12   1  16   33.71    2.06
 -11  -1  16    6.76    1.11
 -11   1  16    5.57    1.05
 -10  -1  16   15.54    1.64
 -10   1  16   14.24    1.59
  -9  -1  16    0.66    0.48
  -9   1  16    0.84    0.46
  -8  -1  16    0.03    0.31
  -8   1  16    0.01    0.31
  -7  -1  16    5.88    1.02
  -7   1  16    6.08    1.02
  -6  -1  16   18.63    1.82
  -6   1  16   18.98    1.86
  -5  -1  16   -0.12    0.28
  -5  -1  16    0.18    0.34
  -5   1  16   -0.22    0.26
  -4  -1  16    8.63    1.10
  -4  -1  16   10.54    1.39
  -4   1  16   11.48    1.44
  -3  -1  16    5.86    1.02
  -3  -1  16    6.71    0.98
  -3   1  16    7.29    1.14
  -2  -1  16    0.13    0.34
  -2  -1  16    0.08    0.31
  -2   1  16   -0.11    0.31
  -1  -1  16   -0.04    0.36
  -1  -1  16    0.25    0.37
  -1   1  16    0.33    0.37
   0  -1  16    0.52    0.47
   0  -1  16    0.13    0.35
   0   1  16   -0.03    0.30
   0   1  16    0.07    0.34
   1  -1  16    5.01    0.99
   1  -1  16    7.06    1.13
   1   1  16    5.10    0.98
   1   1  16    6.82    1.02
   2  -1  16   12.07    1.56
   2  -1  16   11.70    1.50
   2   1  16   13.96    1.56
   2   1  16   12.33    1.57
   3  -1  16    0.18    0.47
   3   1  16    0.23    0.44
 -12  -2  16    4.25    0.97
 -12   2  16    4.29    0.97
 -11  -2  16    2.13    0.68
 -11   2  16    2.65    0.78
 -10  -2  16    0.41    0.40
 -10   2  16   -0.08    0.37
  -9  -2  16    4.04    0.88
  -9   2  16    2.59    0.74
  -8  -2  16    0.02    0.34
  -8   2  16   -0.59    0.32
  -7  -2  16   -0.06    0.36
  -7   2  16    0.93    0.51
  -6  -2  16    3.15    0.79
  -6   2  16    1.60    0.56
  -5  -2  16    5.49    0.99
  -5  -2  16    6.94    1.10
  -5   2  16    6.77    0.96
  -5   2  16    5.25    0.96
  -4  -2  16    0.36    0.35
  -4  -2  16    0.19    0.36
  -4   2  16    0.48    0.42
  -4   2  16    0.09    0.29
  -3  -2  16    6.22    1.02
  -3  -2  16    5.91    1.07
  -3   2  16    8.72    1.30
  -3   2  16    6.54    0.97
  -2  -2  16    1.99    0.64
  -2  -2  16    1.75    0.61
  -2   2  16    0.93    0.47
  -2   2  16    1.55    0.63
  -1  -2  16    4.03    0.93
  -1  -2  16    3.97    0.90
  -1   2  16    4.72    0.88
  -1   2  16    3.11    0.83
   0  -2  16    0.62    0.48
   0  -2  16    3.28    0.82
   0   2  16    1.65    0.70
   0   2  16    1.30    0.50
   1  -2  16   -0.15    0.41
   1  -2  16   -0.02    0.38
   1   2  16    0.49    0.42
   1   2  16   -0.09    0.38
   2  -2  16    0.30    0.50
   2   2  16    0.44    0.56
   2   2  16    0.46    0.48
   3  -2  16    3.64    0.96
   3   2  16    3.96    0.93
 -12  -3  16    4.14    0.93
 -12   3  16    6.04    1.26
 -11  -3  16   13.80    1.59
 -11   3  16   17.95    1.84
 -10  -3  16   13.99    1.62
 -10   3  16   14.05    1.46
 -10   3  16   15.28    1.70
  -9  -3  16    5.25    1.01
  -9   3  16    4.49    0.94
  -9   3  16    5.79    0.96
  -8  -3  16    3.11    0.81
  -8   3  16    1.96    0.68
  -8   3  16    2.83    0.68
  -7  -3  16   20.11    1.60
  -7   3  16   20.88    1.47
  -7   3  16   18.62    1.85
  -6  -3  16   11.22    1.44
  -6   3  16   10.90    1.26
  -6   3  16   12.22    1.53
  -5  -3  16    1.04    0.50
  -5  -3  16    0.36    0.39
  -5   3  16    0.29    0.46
  -5   3  16    0.31    0.34
  -4  -3  16    0.10    0.32
  -4  -3  16    0.09    0.38
  -4   3  16   -0.36    0.29
  -4   3  16    0.44    0.43
  -3  -3  16    1.45    0.58
  -3  -3  16    0.61    0.47
  -3   3  16    0.45    0.44
  -3   3  16    1.59    0.64
  -2  -3  16    8.70    1.27
  -2  -3  16   11.52    1.45
  -2   3  16   10.16    1.31
  -2   3  16   15.21    1.74
  -1  -3  16    2.62    0.71
  -1  -3  16    2.55    0.77
  -1   3  16    2.63    0.75
  -1   3  16    3.56    0.79
   0  -3  16   14.46    1.73
   0  -3  16   14.20    1.60
   0   3  16   15.60    1.72
   0   3  16   18.69    1.94
   1  -3  16   15.36    1.85
   1  -3  16   14.90    1.63
   1   3  16   13.41    1.55
   1   3  16   14.13    1.65
   2  -3  16   24.86    1.99
   2   3  16   21.99    2.14
   2   3  16   22.38    2.08
 -12  -4  16    6.67    1.26
 -12   4  16    4.64    0.97
 -11  -4  16    7.37    1.27
 -11   4  16    7.03    1.16
 -11   4  16    5.90    1.14
 -10  -4  16    0.64    0.44
 -10   4  16    1.36    0.58
 -10   4  16    0.66    0.49
  -9  -4  16   -0.11    0.34
  -9   4  16    0.05    0.33
  -9   4  16   -0.14    0.31
  -8  -4  16   10.78    1.47
  -8   4  16    9.09    1.27
  -8   4  16    8.96    1.36
  -7  -4  16    3.10    0.79
  -7   4  16    3.35    0.87
  -7   4  16    2.02    0.63
  -6  -4  16    9.36    1.34
  -6   4  16   12.89    1.60
  -6   4  16   10.96    1.32
  -5  -4  16    1.76    0.70
  -5  -4  16    1.03    0.52
  -5   4  16    3.46    0.83
  -5   4  16    1.61    0.65
  -4  -4  16    3.90    0.94
  -4  -4  16    3.58    0.84
  -4   4  16    3.40    0.78
  -4   4  16    3.60    0.87
  -3  -4  16   16.95    1.81
  -3  -4  16   15.82    1.77
  -3   4  16   14.86    1.71
  -3   4  16   16.93    1.70
  -2  -4  16    1.26    0.61
  -2  -4  16    1.47    0.64
  -2   4  16    1.36    0.60
  -2   4  16    0.46    0.44
  -1  -4  16   15.25    1.67
  -1  -4  16   13.96    1.74
  -1   4  16   17.64    1.81
  -1   4  16   15.38    1.79
   0  -4  16    4.15    0.97
   0  -4  16    3.24    0.99
   0   4  16    3.77    0.91
   0   4  16    4.52    1.05
   1  -4  16    4.49    1.01
   1  -4  16    4.30    1.02
   1   4  16    8.37    1.39
   1   4  16    6.44    1.21
 -10  -5  16   -0.07    0.40
 -10   5  16   -0.18    0.36
 -10   5  16    0.04    0.41
  -9  -5  16    2.55    0.82
  -9   5  16    4.18    1.02
  -9   5  16    2.85    0.77
  -8  -5  16    4.04    0.91
  -8   5  16    3.66    0.89
  -8   5  16    3.60    0.90
  -7  -5  16    0.69    0.55
  -7   5  16    1.01    0.53
  -7   5  16    0.30    0.51
  -6  -5  16    0.04    0.47
  -6   5  16   -0.05    0.34
  -6   5  16    0.00    0.41
  -5  -5  16    0.13    0.43
  -5  -5  16    0.34    0.49
  -5   5  16   -0.36    0.33
  -5   5  16   -0.16    0.32
  -4  -5  16    5.26    1.13
  -4  -5  16    2.13    0.78
  -4   5  16    3.69    0.95
  -4   5  16    4.83    0.96
  -3  -5  16    2.54    0.85
  -3  -5  16    3.08    0.84
  -3   5  16    2.86    0.83
  -3   5  16    2.36    0.77
  -2  -5  16   -0.34    0.40
  -2  -5  16   -0.23    0.39
  -2   5  16    0.01    0.40
  -2   5  16    0.36    0.52
  -1  -5  16    2.45    0.77
  -1  -5  16    1.05    0.62
  -1   5  16    2.02    0.81
  -1   5  16    1.79    0.79
  -7  -6  16    9.03    1.40
  -7   6  16    7.65    1.28
  -7   6  16   10.85    1.52
  -6  -6  16   17.45    1.95
  -6   6  16   21.23    2.14
  -6   6  16   14.46    1.81
  -5  -6  16   44.11    2.60
  -5   6  16   42.15    2.61
  -5   6  16   45.60    2.55
  -4  -6  16    0.57    0.62
  -4  -6  16    0.68    0.53
  -4   6  16    0.35    0.50
  -4   6  16    0.15    0.42
 -12   0  17   -0.17    0.37
 -11   0  17   -0.28    0.31
 -10   0  17    0.25    0.41
  -9   0  17   -0.19    0.33
  -8   0  17   -0.52    0.26
  -7   0  17   -0.11    0.32
  -6   0  17   -0.12    0.36
  -5   0  17   -0.17    0.33
  -4   0  17    0.33    0.47
  -3   0  17    0.07    0.41
  -2   0  17    0.10    0.38
  -1   0  17    0.01    0.35
   0   0  17   -0.20    0.37
   1   0  17    0.42    0.50
 -12  -1  17   -0.06    0.45
 -12   1  17    0.29    0.48
 -11  -1  17   10.08    1.45
 -11   1  17   11.91    1.56
 -10  -1  17    4.84    1.03
 -10   1  17    5.38    1.03
  -9  -1  17   14.16    1.67
  -9   1  17   12.61    1.60
  -8  -1  17    7.22    1.18
  -8   1  17    8.08    1.26
  -7  -1  17   16.82    1.80
  -7   1  17   13.75    1.60
  -6  -1  17    4.81    1.02
  -6   1  17    5.42    1.03
  -5  -1  17    8.37    1.12
  -5  -1  17   10.22    1.36
  -5   1  17   11.57    1.51
  -4  -1  17    9.72    1.18
  -4  -1  17   13.08    1.60
  -4   1  17   16.48    1.80
  -3  -1  17    6.13    1.03
  -3  -1  17    8.79    1.36
  -3   1  17    5.26    0.98
  -2  -1  17    2.14    0.65
  -2  -1  17    1.55    0.63
  -2   1  17    1.63    0.67
  -1  -1  17    8.72    1.25
  -1  -1  17    7.70    1.30
  -1   1  17    6.38    1.11
   0  -1  17    3.33    0.87
   0  -1  17    3.44    0.85
   0   1  17    5.74    1.13
   1  -1  17    4.57    1.00
   1  -1  17    4.75    1.01
   1   1  17    6.59    1.19
   2  -1  17    4.52    1.04
 -12  -2  17   47.85    2.54
 -12   2  17   48.01    2.57
 -11  -2  17    3.80    0.96
 -11   2  17    4.88    1.03
 -10  -2  17    3.00    0.82
 -10   2  17    3.44    0.89
  -9  -2  17    2.66    0.75
  -9   2  17    2.56    0.83
  -8  -2  17    9.41    1.33
  -8   2  17    8.25    1.27
  -7  -2  17    6.36    1.11
  -7   2  17    4.87    0.99
  -6  -2  17    6.72    1.14
  -6   2  17    5.22    1.05
  -5  -2  17    5.53    0.96
  -5  -2  17    7.03    1.22
  -5   2  17    6.25    1.16
  -4  -2  17    2.51    0.70
  -4  -2  17    2.58    0.81
  -4   2  17    3.32    0.88
  -3  -2  17    8.64    1.28
  -3  -2  17    6.99    1.17
  -3   2  17    5.80    1.11
  -2  -2  17    0.06    0.41
  -2  -2  17   -0.02    0.37
  -2   2  17    0.26    0.37
  -2   2  17   -0.26    0.35
  -1  -2  17    0.14    0.46
  -1  -2  17   -0.38    0.37
  -1   2  17    0.28    0.43
  -1   2  17    0.49    0.41
   0  -2  17    3.18    0.85
   0  -2  17    3.18    0.85
   0   2  17    2.60    0.82
   0   2  17    3.13    0.76
   1  -2  17    0.92    0.56
   1  -2  17    1.53    0.59
   1   2  17    1.46    0.70
   1   2  17    0.50    0.48
 -12  -3  17    6.51    1.17
 -12   3  17   10.50    1.47
 -11  -3  17   12.19    1.61
 -11   3  17    9.85    1.42
 -10  -3  17    0.05    0.39
 -10   3  17    0.19    0.36
  -9  -3  17    0.43    0.47
  -9   3  17   -0.10    0.37
  -8  -3  17    1.51    0.64
  -8   3  17    2.35    0.74
  -7  -3  17    0.33    0.44
  -7   3  17   -0.11    0.33
  -7   3  17    0.14    0.36
  -6  -3  17   -0.40    0.29
  -6   3  17   -0.55    0.30
  -6   3  17   -0.19    0.32
  -5  -3  17    0.76    0.50
  -5  -3  17    0.84    0.56
  -5   3  17    1.08    0.54
  -5   3  17    0.86    0.48
  -4  -3  17    0.11    0.33
  -4  -3  17   -0.09    0.47
  -4   3  17    0.05    0.34
  -4   3  17    0.08    0.40
  -3  -3  17    2.31    0.71
  -3  -3  17    2.70    0.79
  -3   3  17    3.76    0.92
  -3   3  17    2.19    0.69
  -2  -3  17    0.17    0.43
  -2  -3  17    0.32    0.46
  -2   3  17   -0.33    0.37
  -2   3  17    0.01    0.37
  -1  -3  17    2.40    0.74
  -1  -3  17    1.02    0.49
  -1   3  17    1.75    0.70
  -1   3  17    1.73    0.69
   0  -3  17    1.24    0.60
   0  -3  17    1.93    0.78
   0   3  17    1.21    0.59
   0   3  17    1.62    0.62
 -11  -4  17    0.71    0.54
 -11   4  17    0.42    0.52
 -11   4  17    1.05    0.68
 -10  -4  17   -0.04    0.50
 -10   4  17    0.15    0.43
 -10   4  17    0.12    0.42
  -9  -4  17    1.16    0.57
  -9   4  17    1.58    0.62
  -9   4  17    1.33    0.63
  -8  -4  17    4.91    1.05
  -8   4  17    4.23    0.97
  -8   4  17    5.79    1.09
  -7  -4  17   -0.15    0.35
  -7   4  17    0.37    0.48
  -7   4  17    0.03    0.33
  -6  -4  17    2.03    0.70
  -6   4  17    1.68    0.67
  -6   4  17    0.52    0.46
  -5  -4  17    0.09    0.37
  -5  -4  17    0.03    0.35
  -5   4  17    1.02    0.53
  -5   4  17    0.30    0.42
  -4  -4  17    9.30    1.35
  -4  -4  17   10.13    1.41
  -4   4  17   11.17    1.44
  -4   4  17   11.35    1.52
  -3  -4  17   16.92    1.90
  -3  -4  17   14.66    1.74
  -3   4  17   15.63    1.85
  -3   4  17   15.21    1.66
  -2  -4  17   -0.11    0.38
  -2  -4  17    0.16    0.40
  -2   4  17   -0.08    0.35
  -2   4  17    0.27    0.40
  -1  -4  17    2.97    0.84
  -1  -4  17    3.81    0.91
  -1   4  17    4.56    1.08
  -1   4  17    3.76    0.86
  -8  -5  17    2.75    0.79
  -8   5  17    3.11    0.88
  -8   5  17    2.70    0.79
  -7  -5  17   24.96    1.98
  -7   5  17   21.64    2.17
  -7   5  17   27.11    1.94
  -6  -5  17    0.32    0.45
  -6   5  17    0.23    0.43
  -6   5  17   -0.38    0.28
  -5  -5  17   23.71    1.90
  -5  -5  17   25.20    2.03
  -5   5  17   24.46    2.23
  -5   5  17   23.52    2.26
  -4  -5  17    4.91    1.11
  -4  -5  17    5.01    1.08
  -4   5  17    7.41    1.32
  -4   5  17    4.49    1.00
  -3  -5  17    6.64    1.27
  -3  -5  17    8.71    1.37
  -3   5  17    9.52    1.46
  -3   5  17    7.03    1.23
 -12   0  18    4.75    1.07
 -11   0  18    0.24    0.42
 -10   0  18   24.37    2.31
  -9   0  18    0.06    0.39
  -8   0  18    0.17    0.41
  -7   0  18    2.91    0.87
  -6   0  18   63.96    3.05
  -5   0  18   60.93    2.97
  -4   0  18    1.53    0.71
  -3   0  18    7.17    1.26
  -2   0  18    1.26    0.66
  -1   0  18   29.82    2.15
   0   0  18    8.69    1.36
 -12  -1  18    4.59    1.00
 -12   1  18    3.72    1.03
 -11  -1  18   11.81    1.63
 -11   1  18   10.17    1.56
 -10  -1  18    1.21    0.59
 -10   1  18    1.04    0.64
  -9  -1  18    1.19    0.60
  -9   1  18    1.06    0.60
  -8  -1  18    2.33    0.78
  -8   1  18    2.89    0.81
  -7  -1  18    8.88    1.33
  -7   1  18    8.21    1.35
  -6  -1  18    2.37    0.79
  -6   1  18    1.54    0.65
  -5  -1  18    2.65    0.78
  -5   1  18    1.82    0.65
  -4  -1  18    8.56    1.30
  -4   1  18   11.14    1.53
  -3  -1  18    1.14    0.57
  -3   1  18    0.82    0.56
  -2  -1  18    5.06    1.05
  -2   1  18    4.53    1.04
  -1  -1  18    0.95    0.61
  -1  -1  18    1.38    0.65
  -1   1  18    1.73    0.75
   0  -1  18    0.75    0.58
   0  -1  18    2.46    0.81
   0   1  18    1.30    0.61
 -12  -2  18    0.66    0.58
 -12   2  18    1.32    0.66
 -11  -2  18    4.43    1.00
 -11   2  18    6.20    1.18
 -10  -2  18    0.38    0.46
 -10   2  18    0.67    0.55
  -9  -2  18    0.29    0.44
  -9   2  18   -0.18    0.40
  -8  -2  18    1.67    0.68
  -8   2  18    1.30    0.66
  -7  -2  18    1.97    0.71
  -7   2  18    1.10    0.57
  -6  -2  18    6.29    1.12
  -6   2  18    5.13    1.06
  -5  -2  18   -0.25    0.29
  -5  -2  18    0.59    0.48
  -5   2  18   -0.10    0.40
  -4  -2  18    3.19    0.84
  -4  -2  18    2.91    0.82
  -4   2  18    2.29    0.75
  -3  -2  18    1.96    0.72
  -3  -2  18    1.95    0.70
  -3   2  18    1.37    0.67
  -2  -2  18    1.29    0.68
  -2  -2  18    2.40    0.78
  -2   2  18    3.31    0.91
  -1  -2  18   -0.36    0.36
  -1  -2  18    0.01    0.37
  -1   2  18    0.20    0.45
 -11  -3  18    7.38    1.24
 -11   3  18    6.28    1.20
 -10  -3  18    2.78    0.82
 -10   3  18    3.04    0.84
  -9  -3  18   -0.16    0.38
  -9   3  18    0.49    0.52
  -8  -3  18   22.83    2.24
  -8   3  18   23.69    1.90
  -7  -3  18   -0.38    0.39
  -7   3  18    0.17    0.44
  -6  -3  18    6.09    1.17
  -6   3  18    6.33    1.18
  -5  -3  18   24.59    1.87
  -5  -3  18   21.04    2.11
  -5   3  18   24.51    1.94
  -4  -3  18    0.38    0.49
  -4  -3  18   -0.15    0.43
  -4   3  18    0.21    0.39
  -4   3  18    0.01    0.40
  -3  -3  18   32.94    2.19
  -3  -3  18   37.39    2.38
  -3   3  18   34.47    2.31
  -3   3  18   38.45    2.17
  -2  -3  18    0.57    0.53
  -2  -3  18    0.03    0.38
  -2   3  18    0.06    0.40
  -2   3  18    0.33    0.48
  -9  -4  18    7.33    1.30
  -9   4  18    8.94    1.45
  -9   4  18    9.11    1.46
  -8  -4  18    3.31    0.93
  -8   4  18    1.71    0.65
  -8   4  18    1.91    0.72
  -7  -4  18    0.33    0.42
  -7   4  18    0.97    0.54
  -7   4  18    1.00    0.57
  -6  -4  18    2.56    0.83
  -6   4  18    3.78    0.99
  -6   4  18    5.14    1.05
  -5  -4  18   -0.04    0.47
  -5  -4  18   -0.08    0.46
  -5   4  18   -0.10    0.46
  -5   4  18    0.03    0.44
  -4  -4  18   14.69    1.79
  -4  -4  18   10.36    1.54
  -4   4  18   14.48    1.65
  -4   4  18   10.43    1.55
 -11   0  19    0.09    0.45
 -10   0  19   -0.20    0.44
  -9   0  19    0.18    0.40
  -8   0  19   -0.11    0.46
  -7   0  19   -0.14    0.43
  -6   0  19   -0.04    0.41
  -5   0  19   -0.63    0.39
  -4   0  19    0.31    0.49
  -3   0  19    0.16    0.53
  -2   0  19   -0.44    0.37
 -11  -1  19    1.25    0.71
 -11   1  19    1.46    0.69
 -10  -1  19    3.66    0.93
 -10   1  19    3.07    0.89
  -9  -1  19    0.27    0.49
  -9   1  19    1.10    0.63
  -8  -1  19    0.04    0.39
  -8   1  19    1.91    0.72
  -7  -1  19    0.47    0.54
  -7   1  19    0.65    0.51
  -6  -1  19    3.33    0.93
  -6   1  19    5.72    1.18
  -5  -1  19   12.05    1.62
  -5   1  19    8.84    1.45
  -4  -1  19    7.41    1.33
  -4   1  19    6.54    1.22
  -3  -1  19   -0.69    0.39
  -3   1  19    0.25    0.49
  -2  -1  19    0.50    0.46
  -2   1  19    0.41    0.50
 -10  -2  19    1.73    0.71
 -10   2  19    0.36    0.52
  -9  -2  19   -0.13    0.39
  -9   2  19    0.01    0.40
  -8  -2  19    0.17    0.50
  -8   2  19    0.58    0.53
  -7  -2  19    2.49    0.86
  -7   2  19    5.22    1.10
  -6  -2  19    3.91    0.98
  -6   2  19    2.87    0.90
  -5  -2  19   13.14    1.58
  -5  -2  19   13.58    1.73
  -5   2  19   14.14    1.77
  -4  -2  19    0.89    0.52
  -4  -2  19    1.31    0.64
  -4   2  19    2.00    0.81
  -3  -2  19   11.07    1.56
  -3  -2  19   12.31    1.66
  -3   2  19   16.47    1.97
  -8  -3  19    0.92    0.58
  -8   3  19    2.79    0.91
  -7  -3  19    0.22    0.40
  -7   3  19   -0.26    0.44
  -6  -3  19    0.07    0.49
  -6   3  19   -0.20    0.36
  -5  -3  19    0.82    0.59
  -5  -3  19    0.72    0.54
  -5   3  19    2.40    0.91
  -7   0  20    6.76    1.34
  -6   0  20   33.40    2.39
   0   0   0    0.00    0.00
;
loop_
_symmetry_equiv_pos_as_xyz
'x, y, z'
'-x, y+1/2, -z+1/2'
'-x, -y, -z'
'x, -y-1/2, z-1/2'
loop_
_atom_site_label
_atom_site_type_symbol
_atom_site_fract_x
_atom_site_fract_y
_atom_site_fract_z
_atom_site_U_iso_or_equiv
_atom_site_adp_type
_atom_site_occupancy
_atom_site_calc_flag
S1 S 0.24366(3) 0.39348(5) 0.36327(3) 0.01929(12) Uani 1 d
O3 O 0.30732(10) 0.55501(15) 0.38376(9) 0.0267(3) Uani 1 d
O1 O 0.00093(10) 0.55719(14) 0.22320(7) 0.0227(2) Uani 1 d
O2 O 0.20785(10) 0.31776(15) 0.26800(8) 0.0256(3) Uani 1 d
N1 N 0.04693(11) 0.71460(17) 0.36454(9) 0.0214(3) Uani 1 d
H6 H 0.0195 0.8144 0.3395 0.026 Uiso 1 calc
C6 C 0.16555(15) 0.7282(2) 0.63548(12) 0.0292(4) Uani 1 d
H4 H 0.1774 0.8014 0.688 0.035 Uiso 1 calc
C5 C 0.20126(15) 0.5560(2) 0.65230(12) 0.0290(4) Uani 1 d
H3 H 0.2346 0.5144 0.7158 0.035 Uiso 1 calc
C4 C 0.18798(14) 0.4439(2) 0.57529(12) 0.0242(3) Uani 1 d
H2 H 0.2122 0.3282 0.5867 0.029 Uiso 1 calc
C3 C 0.13791(13) 0.5092(2) 0.48147(11) 0.0192(3) Uani 1 d
C2 C 0.11391(13) 0.42776(19) 0.38417(11) 0.0184(3) Uani 1 d
H1 H 0.0689 0.32 0.3746 0.022 Uiso 1 calc
C9 C 0.32081(13) 0.23746(19) 0.45093(11) 0.0191(3) Uani 1 d
C14 C 0.41777(14) 0.2869(2) 0.53246(11) 0.0239(3) Uani 1 d
H10 H 0.4436 0.402 0.5402 0.029 Uiso 1 calc
C13 C 0.47505(14) 0.1621(2) 0.60180(11) 0.0268(4) Uani 1 d
H9 H 0.5407 0.1937 0.6559 0.032 Uiso 1 calc
C12 C 0.43631(14) -0.0093(2) 0.59208(12) 0.0260(4) Uani 1 d
C15 C 0.49335(18) -0.1417(3) 0.67112(15) 0.0413(5) Uani 1 d
H12 H 0.5755 -0.1348 0.6922 0.062 Uiso 1 calc
H11 H 0.4675 -0.2568 0.6464 0.062 Uiso 1 calc
H13 H 0.4734 -0.1182 0.7251 0.062 Uiso 1 calc
C1 C 0.04549(13) 0.57121(19) 0.31213(11) 0.0199(3) Uani 1 d
C8 C 0.09886(13) 0.6816(2) 0.46542(11) 0.0202(3) Uani 1 d
C7 C 0.11197(14) 0.7943(2) 0.54082(12) 0.0264(3) Uani 1 d
H5 H 0.0863 0.9092 0.5292 0.032 Uiso 1 calc
C10 C 0.28267(13) 0.0650(2) 0.43739(12) 0.0226(3) Uani 1 d
H7 H 0.2189 0.0326 0.3819 0.027 Uiso 1 calc
C11 C 0.34121(14) -0.0572(2) 0.50798(12) 0.0261(3) Uani 1 d
H8 H 0.3169 -0.173 0.4993 0.031 Uiso 1 calc
loop_
_atom_site_aniso_label
_atom_site_aniso_U_11
_atom_site_aniso_U_22
_atom_site_aniso_U_33
_atom_site_aniso_U_23
_atom_site_aniso_U_13
_atom_site_aniso_U_12
S1 0.01793(19) 0.01811(19) 0.0205(2) 0.00004(13) 0.00640(14) -0.00033(13)
O3 0.0243(6) 0.0212(6) 0.0343(6) 0.0008(5) 0.0115(5) -0.0048(5)
O1 0.0218(6) 0.0213(5) 0.0199(5) 0.0008(4) 0.0033(4) 0.0010(4)
O2 0.0272(6) 0.0288(6) 0.0196(5) -0.0009(4) 0.0082(5) 0.0026(5)
N1 0.0219(7) 0.0160(6) 0.0223(6) 0.0008(5) 0.0050(5) 0.0023(5)
C6 0.0246(8) 0.0394(10) 0.0256(8) -0.0084(7) 0.0123(7) -0.0022(7)
C5 0.0256(8) 0.0407(10) 0.0219(8) 0.0012(7) 0.0109(7) -0.0003(7)
C4 0.0220(8) 0.0263(8) 0.0247(8) 0.0042(6) 0.0098(6) 0.0014(6)
C3 0.0165(7) 0.0206(7) 0.0215(7) -0.0009(6) 0.0087(6) -0.0020(6)
C2 0.0158(7) 0.0166(7) 0.0201(7) 0.0013(5) 0.0046(6) -0.0010(5)
C9 0.0169(7) 0.0197(7) 0.0204(7) -0.0006(5) 0.0070(6) 0.0016(6)
C14 0.0220(8) 0.0246(8) 0.0230(7) -0.0062(6) 0.0068(6) -0.0020(6)
C13 0.0209(8) 0.0363(9) 0.0195(7) -0.0031(6) 0.0044(6) 0.0040(7)
C12 0.0225(8) 0.0337(9) 0.0242(8) 0.0071(6) 0.0119(6) 0.0076(7)
C15 0.0356(11) 0.0526(12) 0.0364(10) 0.0213(9) 0.0154(8) 0.0141(9)
C1 0.0152(7) 0.0184(7) 0.0237(7) 0.0020(6) 0.0054(6) -0.0009(5)
C8 0.0158(7) 0.0220(7) 0.0222(7) -0.0001(6) 0.0070(6) -0.0007(6)
C7 0.0231(8) 0.0255(8) 0.0312(8) -0.0048(7) 0.0117(7) 0.0012(6)
C10 0.0177(7) 0.0224(8) 0.0246(7) -0.0025(6) 0.0055(6) -0.0012(6)
C11 0.0219(8) 0.0235(8) 0.0343(9) 0.0036(6) 0.0129(7) 0.0009(6)
loop_
_atom_type_symbol
_atom_type_description
_atom_type_scat_dispersion_real
_atom_type_scat_dispersion_imag
_atom_type_scat_source
C C 0.0033 0.0016 'International Tables Vol C Tables 4.2.6.8 and 6.1.1.4'
H H 0 0 'International Tables Vol C Tables 4.2.6.8 and 6.1.1.4'
N N 0.0061 0.0033 'International Tables Vol C Tables 4.2.6.8 and 6.1.1.4'
O O 0.0106 0.006 'International Tables Vol C Tables 4.2.6.8 and 6.1.1.4'
S S 0.1246 0.1234 'International Tables Vol C Tables 4.2.6.8 and 6.1.1.4'
loop_
_geom_angle_atom_site_label_1
_geom_angle_atom_site_label_2
_geom_angle_atom_site_label_3
_geom_angle
O2 S1 O3 118.83(7)
O2 S1 C9 109.20(7)
O3 S1 C9 109.28(7)
O2 S1 C2 106.78(7)
O3 S1 C2 107.96(7)
C9 S1 C2 103.71(7)
C1 N1 C8 111.89(12)
C1 N1 H6 124.1
C8 N1 H6 124.1
C5 C6 C7 121.21(16)
C5 C6 H4 119.4
C7 C6 H4 119.4
C6 C5 C4 120.93(16)
C6 C5 H3 119.5
C4 C5 H3 119.5
C3 C4 C5 118.33(15)
C3 C4 H2 120.8
C5 C4 H2 120.8
C4 C3 C8 120.09(14)
C4 C3 C2 132.08(14)
C8 C3 C2 107.83(13)
C3 C2 C1 102.88(12)
C3 C2 S1 112.87(10)
C1 C2 S1 105.86(10)
C3 C2 H1 111.6
C1 C2 H1 111.6
S1 C2 H1 111.6
C14 C9 C10 121.17(14)
C14 C9 S1 120.09(12)
C10 C9 S1 118.74(11)
C13 C14 C9 118.85(15)
C13 C14 H10 120.6
C9 C14 H10 120.6
C14 C13 C12 121.21(15)
C14 C13 H9 119.4
C12 C13 H9 119.4
C13 C12 C11 118.86(15)
C13 C12 C15 121.14(16)
C11 C12 C15 119.98(17)
C12 C15 H12 109.5
C12 C15 H11 109.5
H12 C15 H11 109.5
C12 C15 H13 109.5
H12 C15 H13 109.5
H11 C15 H13 109.5
O1 C1 N1 126.85(14)
O1 C1 C2 125.69(14)
N1 C1 C2 107.43(12)
C7 C8 C3 122.21(15)
C7 C8 N1 128.30(14)
C3 C8 N1 109.49(13)
C8 C7 C6 117.17(16)
C8 C7 H5 121.4
C6 C7 H5 121.4
C11 C10 C9 118.85(14)
C11 C10 H7 120.6
C9 C10 H7 120.6
C10 C11 C12 120.96(16)
C10 C11 H8 119.5
C12 C11 H8 119.5
loop_
_geom_bond_atom_site_label_1
_geom_bond_atom_site_label_2
_geom_bond_distance
S1 O2 1.4373(11)
S1 O3 1.4400(12)
S1 C9 1.7531(15)
S1 C2 1.8167(16)
O1 C1 1.2269(18)
N1 C1 1.3468(19)
N1 C8 1.4097(19)
N1 H6 0.86
C6 C5 1.383(3)
C6 C7 1.399(2)
C6 H4 0.93
C5 C4 1.395(2)
C5 H3 0.93
C4 C3 1.384(2)
C4 H2 0.93
C3 C8 1.395(2)
C3 C2 1.503(2)
C2 C1 1.539(2)
C2 H1 0.98
C9 C14 1.391(2)
C9 C10 1.392(2)
C14 C13 1.383(2)
C14 H10 0.93
C13 C12 1.388(3)
C13 H9 0.93
C12 C11 1.397(2)
C12 C15 1.505(2)
C15 H12 0.96
C15 H11 0.96
C15 H13 0.96
C8 C7 1.380(2)
C7 H5 0.93
C10 C11 1.383(2)
C10 H7 0.93
C11 H8 0.93
loop_
_geom_hbond_atom_site_label_D
_geom_hbond_atom_site_label_H
_geom_hbond_atom_site_label_A
_geom_hbond_distance_DH
_geom_hbond_distance_HA
_geom_hbond_distance_DA
_geom_hbond_angle_DHA
_geom_hbond_site_symmetry_A
C10 H7 O1 0.93 2.6 3.4253(19) 148.8 2_545
C2 H1 O1 0.98 2.44 3.2957(18) 146.2 2_545
N1 H6 O1 0.86 2.05 2.8865(17) 163.4 2
C10 H7 O1 0.93 2.6 3.4253(19) 148.8 2_545
C2 H1 O1 0.98 2.44 3.2957(18) 146.2 2_545
N1 H6 O1 0.86 2.05 2.8865(17) 163.4 2
C10 H7 O1 0.93 2.6 3.4253(19) 148.8 2_545
C2 H1 O1 0.98 2.44 3.2957(18) 146.2 2_545
N1 H6 O1 0.86 2.05 2.8865(17) 163.4 2
C10 H7 O1 0.93 2.6 3.4253(19) 148.8 2_545
C2 H1 O1 0.98 2.44 3.2957(18) 146.2 2_545
N1 H6 O1 0.86 2.05 2.8865(17) 163.4 2
N1 H6 O2 0.86 2.67 3.1336(17) 114.8 2
N1 H6 O1 0.86 2.05 2.8865(17) 163.4 2
C2 H1 O1 0.98 2.44 3.2957(18) 146.2 2_545
C10 H7 O1 0.93 2.6 3.4253(19) 148.8 2_545
N1 H6 O1 0.86 2.05 2.8865(17) 163.4 2
C2 H1 O1 0.98 2.44 3.2957(18) 146.2 2_545
C10 H7 O1 0.93 2.6 3.4253(19) 148.8 2_545
N1 H6 O1 0.86 2.05 2.8865(17) 163.4 2
C2 H1 O1 0.98 2.44 3.2957(18) 146.2 2_545
C10 H7 O1 0.93 2.6 3.4253(19) 148.8 2_545
N1 H6 O1 0.86 2.05 2.8865(17) 163.4 2
C2 H1 O1 0.98 2.44 3.2957(18) 146.2 2_545
C10 H7 O1 0.93 2.6 3.4253(19) 148.8 2_545
loop_
_geom_torsion_atom_site_label_1
_geom_torsion_atom_site_label_2
_geom_torsion_atom_site_label_3
_geom_torsion_atom_site_label_4
_geom_torsion
C7 C6 C5 C4 1.9(3)
C6 C5 C4 C3 -0.1(3)
C5 C4 C3 C8 -2.0(2)
C5 C4 C3 C2 178.18(16)
C4 C3 C2 C1 174.23(16)
C8 C3 C2 C1 -5.63(16)
C4 C3 C2 S1 -72.2(2)
C8 C3 C2 S1 107.99(12)
O2 S1 C2 C3 -179.29(10)
O3 S1 C2 C3 -50.45(12)
C9 S1 C2 C3 65.43(12)
O2 S1 C2 C1 -67.49(11)
O3 S1 C2 C1 61.35(11)
C9 S1 C2 C1 177.22(10)
O2 S1 C9 C14 140.63(13)
O3 S1 C9 C14 9.12(16)
C2 S1 C9 C14 -105.82(14)
O2 S1 C9 C10 -39.76(15)
O3 S1 C9 C10 -171.27(13)
C2 S1 C9 C10 73.79(14)
C10 C9 C14 C13 -1.4(2)
S1 C9 C14 C13 178.18(12)
C9 C14 C13 C12 -1.1(3)
C14 C13 C12 C11 3.4(3)
C14 C13 C12 C15 -175.34(16)
C8 N1 C1 O1 175.95(15)
C8 N1 C1 C2 -5.89(17)
C3 C2 C1 O1 -174.86(15)
S1 C2 C1 O1 66.50(17)
C3 C2 C1 N1 6.96(16)
S1 C2 C1 N1 -111.69(12)
C4 C3 C8 C7 2.4(2)
C2 C3 C8 C7 -177.69(14)
C4 C3 C8 N1 -177.34(14)
C2 C3 C8 N1 2.54(17)
C1 N1 C8 C7 -177.50(16)
C1 N1 C8 C3 2.25(18)
C3 C8 C7 C6 -0.7(2)
N1 C8 C7 C6 179.05(16)
C5 C6 C7 C8 -1.5(3)
C14 C9 C10 C11 1.7(2)
S1 C9 C10 C11 -177.95(12)
C9 C10 C11 C12 0.7(3)
C13 C12 C11 C10 -3.1(3)
C15 C12 C11 C10 175.60(16)
