#------------------------------------------------------------------------------
#$Date: 2017-06-05 03:43:45 +0300 (Mon, 05 Jun 2017) $
#$Revision: 197481 $
#$URL: file:///home/coder/svn-repositories/cod/cif/1/54/59/1545991.cif $
#------------------------------------------------------------------------------
#
# This file is available in the Crystallography Open Database (COD),
# http://www.crystallography.net/
#
# All data on this site have been placed in the public domain by the
# contributors.
#
data_1545991
loop_
_publ_author_name
'Hu, Ting'
'Connor, Alan L.'
'Miller, Daniel P.'
'Wang, Xiao'
'Pei, Qiang'
'Liu, Rui'
'He, Lan'
'Zheng, Chong'
'Zurek, Eva'
'Lu, Zhong-Lin'
'Gong, Bing'
_publ_section_title
;
 Helical Folding of Meta-Connected Aromatic Oligoureas.
;
_journal_issue                   10
_journal_name_full               'Organic letters'
_journal_page_first              2666
_journal_page_last               2669
_journal_paper_doi               10.1021/acs.orglett.7b01005
_journal_volume                  19
_journal_year                    2017
_chemical_formula_moiety         'C29 H42 N4 O9, C2 H6 O S'
_chemical_formula_sum            'C31 H48 N4 O10 S'
_chemical_formula_weight         668.79
_space_group_crystal_system      monoclinic
_space_group_IT_number           14
_space_group_name_Hall           '-P 2ybc'
_space_group_name_H-M_alt        'P 1 21/c 1'
_symmetry_space_group_name_Hall  '-P 2ybc'
_symmetry_space_group_name_H-M   'P 1 21/c 1'
_atom_sites_solution_hydrogens   geom
_audit_creation_date             2016-03-12
_audit_creation_method
;
Olex2 1.2
(compiled 2015.09.30 svn.r3233 for OlexSys, GUI svn.r5103)
;
_cell_angle_alpha                90
_cell_angle_beta                 96.6779(7)
_cell_angle_gamma                90
_cell_formula_units_Z            4
_cell_length_a                   15.96905(13)
_cell_length_b                   20.99152(16)
_cell_length_c                   10.22172(8)
_cell_measurement_reflns_used    10018
_cell_measurement_temperature    100.00(10)
_cell_measurement_theta_max      75.4560
_cell_measurement_theta_min      4.8300
_cell_volume                     3403.22(5)
_computing_cell_refinement       'CrysAlisPro 1.171.38.41k (Rigaku OD, 2015)'
_computing_data_collection       'CrysAlisPro 1.171.38.41k (Rigaku OD, 2015)'
_computing_data_reduction        'CrysAlisPro 1.171.38.41k (Rigaku OD, 2015)'
_computing_molecular_graphics    'Olex2 (Dolomanov et al., 2009)'
_computing_publication_material  'Olex2 (Dolomanov et al., 2009)'
_computing_structure_refinement  'ShelXL (Sheldrick, 2015)'
_computing_structure_solution    'ShelXT (Sheldrick, 2015)'
_diffrn_ambient_environment      N~2~
_diffrn_ambient_temperature      100.00(10)
_diffrn_detector                 'CCD plate'
_diffrn_detector_area_resol_mean 5.3127
_diffrn_detector_type            AtlasS2
_diffrn_measured_fraction_theta_full 0.999
_diffrn_measured_fraction_theta_max 0.975
_diffrn_measurement_details
;
List of Runs (angles in degrees, time in seconds):

  # Type    Start    End  Width  t~exp~   \w     \q     \k     \f   Frames
--------------------------------------------------------------------------
  1  \w    -32.00  32.00   1.00    1.00    --  -41.49  57.00 -90.00   64
  2  \w     -4.00  27.00   1.00    1.00    --  -41.49  77.00  30.00   31
  3  \w    -70.00 -36.00   1.00    1.00    --  -41.49  57.00 -90.00   34
  4  \w     66.00  91.00   1.00    1.00    --   41.49-125.00  30.00   25
  5  \w     42.00 144.00   1.00    1.00    --  112.00 -77.00 -60.00  102
  6  \w    114.00 140.00   1.00    1.00    --  112.00 -30.00-120.00   26
  7  \w     99.00 173.00   1.00    1.00    --  112.00  45.00 -30.00   74
  8  \w     95.00 168.00   1.00    1.00    --  112.00 125.00 -90.00   73
  9  \w     84.00 163.00   1.00    1.00    --  112.00  61.00  60.00   79
 10  \w     56.00  99.00   1.00    1.00    --  112.00 -94.00-120.00   43
 11  \w     37.00  64.00   1.00    1.00    --  112.00 -30.00-120.00   27
 12  \w     34.00  88.00   1.00    1.00    --  112.00 -94.00-150.00   54
 13  \w   -116.00 -29.00   1.00    1.00    --  -41.49 -37.00 120.00   87
;
_diffrn_measurement_device       'four-circle diffractometer'
_diffrn_measurement_device_type  'SuperNova, Dual, Cu at zero, AtlasS2'
_diffrn_measurement_method       '\w scans'
_diffrn_orient_matrix_type
'CrysAlisPro convention (1999,Acta A55,543-557)'
_diffrn_orient_matrix_UB_11      -0.0663434000
_diffrn_orient_matrix_UB_12      0.0513404000
_diffrn_orient_matrix_UB_13      -0.0440098000
_diffrn_orient_matrix_UB_21      0.0466541000
_diffrn_orient_matrix_UB_22      0.0475801000
_diffrn_orient_matrix_UB_23      0.0975335000
_diffrn_orient_matrix_UB_31      0.0534365000
_diffrn_orient_matrix_UB_32      0.0221321000
_diffrn_orient_matrix_UB_33      -0.1075514000
_diffrn_radiation_monochromator  mirror
_diffrn_radiation_probe          x-ray
_diffrn_radiation_type           CuK\a
_diffrn_radiation_wavelength     1.54184
_diffrn_reflns_av_R_equivalents  0.0147
_diffrn_reflns_av_unetI/netI     0.0194
_diffrn_reflns_Laue_measured_fraction_full 0.999
_diffrn_reflns_Laue_measured_fraction_max 0.975
_diffrn_reflns_limit_h_max       20
_diffrn_reflns_limit_h_min       -13
_diffrn_reflns_limit_k_max       24
_diffrn_reflns_limit_k_min       -26
_diffrn_reflns_limit_l_max       11
_diffrn_reflns_limit_l_min       -12
_diffrn_reflns_number            14213
_diffrn_reflns_point_group_measured_fraction_full 0.999
_diffrn_reflns_point_group_measured_fraction_max 0.975
_diffrn_reflns_theta_full        67.684
_diffrn_reflns_theta_max         75.458
_diffrn_reflns_theta_min         3.493
_diffrn_source                   'micro-focus sealed X-ray tube'
_diffrn_source_type              'SuperNova (Cu) X-ray Source'
_exptl_absorpt_coefficient_mu    1.354
_exptl_absorpt_correction_T_max  1.00000
_exptl_absorpt_correction_T_min  0.88597
_exptl_absorpt_correction_type   multi-scan
_exptl_absorpt_process_details
;
CrysAlisPro 1.171.38.41k (Rigaku Oxford Diffraction, 2015)
Empirical absorption correction using spherical harmonics,
 implemented in SCALE3 ABSPACK scaling algorithm.
;
_exptl_crystal_colour            yellow
_exptl_crystal_density_diffrn    1.305
_exptl_crystal_density_method    'not measured'
_exptl_crystal_description       plate
_exptl_crystal_F_000             1432
_exptl_crystal_size_max          0.4
_exptl_crystal_size_mid          0.3
_exptl_crystal_size_min          0.25
_refine_diff_density_max         0.610
_refine_diff_density_min         -0.495
_refine_diff_density_rms         0.061
_refine_ls_extinction_method     none
_refine_ls_goodness_of_fit_ref   1.062
_refine_ls_hydrogen_treatment    constr
_refine_ls_matrix_type           full
_refine_ls_number_parameters     425
_refine_ls_number_reflns         6879
_refine_ls_number_restraints     0
_refine_ls_restrained_S_all      1.062
_refine_ls_R_factor_all          0.0373
_refine_ls_R_factor_gt           0.0350
_refine_ls_shift/su_max          0.001
_refine_ls_shift/su_mean         0.000
_refine_ls_structure_factor_coef Fsqd
_refine_ls_weighting_details
'w=1/[\s^2^(Fo^2^)+(0.0393P)^2^+1.8172P] where P=(Fo^2^+2Fc^2^)/3'
_refine_ls_weighting_scheme      calc
_refine_ls_wR_factor_gt          0.0854
_refine_ls_wR_factor_ref         0.0872
_reflns_Friedel_coverage         0.000
_reflns_number_gt                6462
_reflns_number_total             6879
_reflns_threshold_expression     'I > 2\s(I)'
_cod_data_source_file            ol7b01005_si_002.cif
_cod_data_source_block           20160307a
_cod_depositor_comments
'Adding full bibliography for 1545991--1545992.cif.'
_cod_database_code               1545991
_chemical_oxdiff_formula         C1H1N1O1
_shelx_space_group_comment
;
The symmetry employed for this shelxl refinement is uniquely defined
by the following loop, which should always be used as a source of
symmetry information in preference to the above space-group names.
They are only intended as comments.
;
_shelx_estimated_absorpt_t_max   0.728
_shelx_estimated_absorpt_t_min   0.613
_reflns_odcompleteness_completeness 99.90
_reflns_odcompleteness_iscentric 1
_reflns_odcompleteness_theta     66.97
_olex2_refinement_description
;
1. Fixed Uiso
 At 1.2 times of:
  All C(H) groups, All C(H,H) groups, All N(H) groups
 At 1.5 times of:
  All C(H,H,H) groups
2.a Ternary CH refined with riding coordinates:
 C8(H8), C12(H12), C23(H23), C27(H27)
2.b Secondary CH2 refined with riding coordinates:
 C7(H7A,H7B), C11(H11A,H11B), C22(H22A,H22B), C26(H26A,H26B)
2.c Aromatic/amide H refined with riding coordinates:
 C3(H3), C6(H6), C17(H17), C20(H20), N2(H2), N3(H3A)
2.d Idealised Me refined as rotating group:
 C9(H9A,H9B,H9C), C10(H10A,H10B,H10C), C13(H13A,H13B,H13C), C14(H14A,H14B,
 H14C), C24(H24A,H24B,H24C), C25(H25A,H25B,H25C), C28(H28A,H28B,H28C), C29(H29A,
 H29B,H29C), C30(H30A,H30B,H30C), C31(H31A,H31B,H31C)
;
_shelx_res_file
;
    20160307a.res created by SHELXL-2014/7

TITL 20160307a_a.res in P2(1)/c
REM Old TITL 20160307a in P21/c #14
REM SHELXT solution in P2(1)/c
REM R1 0.115, Rweak 0.008, Alpha 0.025, Orientation as input
REM Formula found by SHELXT: C21 C26 O9 Cl
CELL 1.54184 15.96905 20.991523 10.221722 90 96.6779 90
ZERR 4 0.000126 0.000162 0.000077 0 0.0007 0
LATT 1
SYMM -X,0.5+Y,0.5-Z
SFAC C H N O S
UNIT 124 192 16 40 4

L.S. 4
PLAN  5
SIZE 0.4 0.3 0.25
BOND $H
LIST 4
MORE -1
CONF
fmap 2
acta
REM <olex2.extras>
REM <HklSrc "%.\\20160307a.hkl">
REM </olex2.extras>

WGHT    0.039300    1.817200
FVAR       0.32166
C1    1    0.137067    0.566891    0.406091    11.00000    0.01268    0.01160 =
         0.01237    0.00104    0.00087   -0.00027
C2    1    0.071622    0.571472    0.487106    11.00000    0.01024    0.00906 =
         0.01610   -0.00123    0.00024    0.00054
C3    1    0.086035    0.544804    0.613150    11.00000    0.01074    0.01256 =
         0.01439   -0.00064    0.00306   -0.00005
AFIX  43
H3    2    0.044293    0.547260    0.669264    11.00000   -1.20000
AFIX   0
C4    1    0.161611    0.514783    0.655581    11.00000    0.01351    0.01115 =
         0.01179    0.00014    0.00125   -0.00098
C5    1    0.227670    0.511720    0.574776    11.00000    0.01004    0.01202 =
         0.01389   -0.00085    0.00107    0.00094
C6    1    0.214214    0.537915    0.450574    11.00000    0.01125    0.01341 =
         0.01358   -0.00006    0.00254    0.00037
AFIX  43
H6    2    0.256721    0.536361    0.395708    11.00000   -1.20000
AFIX   0
C7    1   -0.061635    0.613117    0.533651    11.00000    0.01249    0.01662 =
         0.01845   -0.00266    0.00270    0.00292
AFIX  23
H7A   2   -0.036051    0.638590    0.606803    11.00000   -1.20000
H7B   2   -0.080525    0.573232    0.568127    11.00000   -1.20000
AFIX   0
C8    1   -0.135675    0.648521    0.460365    11.00000    0.01336    0.01689 =
         0.02638   -0.00368   -0.00160    0.00404
AFIX  13
H8    2   -0.160326    0.621510    0.387683    11.00000   -1.20000
AFIX   0
C9    1   -0.108502    0.711157    0.402473    11.00000    0.02259    0.01724 =
         0.03959    0.00140   -0.00344    0.00582
AFIX 137
H9A   2   -0.084795    0.738567    0.472346    11.00000   -1.50000
H9B   2   -0.156573    0.731505    0.354872    11.00000   -1.50000
H9C   2   -0.067037    0.702819    0.343767    11.00000   -1.50000
AFIX   0
C10   1   -0.202291    0.659139    0.554050    11.00000    0.01757    0.03165 =
         0.03949   -0.00763    0.00486    0.00803
AFIX 137
H10A  2   -0.216873    0.619045    0.590506    11.00000   -1.50000
H10B  2   -0.251625    0.677870    0.506604    11.00000   -1.50000
H10C  2   -0.180224    0.687170    0.623894    11.00000   -1.50000
AFIX   0
C11   1    0.114069    0.481107    0.860208    11.00000    0.01274    0.01797 =
         0.01510    0.00179    0.00553   -0.00020
AFIX  23
H11A  2    0.063013    0.463971    0.812324    11.00000   -1.20000
H11B  2    0.101408    0.522680    0.894386    11.00000   -1.20000
AFIX   0
C12   1    0.146355    0.436800    0.972426    11.00000    0.01425    0.02268 =
         0.01572    0.00491    0.00130   -0.00273
AFIX  13
H12   2    0.201073    0.452756    1.012523    11.00000   -1.20000
AFIX   0
C13   1    0.085098    0.438075    1.076679    11.00000    0.03370    0.03731 =
         0.02252    0.00953    0.01280    0.00228
AFIX 137
H13A  2    0.079867    0.480909    1.107613    11.00000   -1.50000
H13B  2    0.106051    0.411151    1.149090    11.00000   -1.50000
H13C  2    0.030898    0.422964    1.038822    11.00000   -1.50000
AFIX   0
C14   1    0.158464    0.369470    0.923480    11.00000    0.02991    0.02310 =
         0.03082    0.00988    0.00600    0.00593
AFIX 137
H14A  2    0.105397    0.353048    0.883791    11.00000   -1.50000
H14B  2    0.179698    0.342854    0.996240    11.00000   -1.50000
H14C  2    0.197950    0.369958    0.859480    11.00000   -1.50000
AFIX   0
C15   1    0.364667    0.458117    0.563119    11.00000    0.01111    0.01151 =
         0.01323    0.00088    0.00151    0.00016
C16   1    0.498569    0.398599    0.609282    11.00000    0.00989    0.01118 =
         0.01254   -0.00090    0.00116    0.00099
C17   1    0.525786    0.402078    0.485960    11.00000    0.01193    0.01141 =
         0.01181    0.00108    0.00044    0.00124
AFIX  43
H17   2    0.497080    0.427618    0.421222    11.00000   -1.20000
AFIX   0
C18   1    0.596137    0.367432    0.458245    11.00000    0.01191    0.01206 =
         0.01019   -0.00028    0.00230   -0.00037
C19   1    0.641490    0.327907    0.552265    11.00000    0.01018    0.01078 =
         0.01414   -0.00086    0.00113    0.00099
C20   1    0.613953    0.324567    0.676948    11.00000    0.01309    0.01271 =
         0.01226    0.00173    0.00004    0.00209
AFIX  43
H20   2    0.642864    0.299170    0.741741    11.00000   -1.20000
AFIX   0
C21   1    0.543616    0.358920    0.705062    11.00000    0.01261    0.01221 =
         0.00987   -0.00020    0.00145   -0.00112
C22   1    0.753864    0.252353    0.609302    11.00000    0.01445    0.01429 =
         0.01418    0.00322    0.00189    0.00481
AFIX  23
H22A  2    0.717081    0.222068    0.645974    11.00000   -1.20000
H22B  2    0.782967    0.277189    0.680654    11.00000   -1.20000
AFIX   0
C23   1    0.816868    0.217869    0.533650    11.00000    0.01314    0.01219 =
         0.01564   -0.00049    0.00168    0.00169
AFIX  13
H23   2    0.785190    0.193459    0.462604    11.00000   -1.20000
AFIX   0
C24   1    0.873814    0.264602    0.471774    11.00000    0.01683    0.01907 =
         0.02600    0.00262    0.00748    0.00161
AFIX 137
H24A  2    0.839814    0.294275    0.417389    11.00000   -1.50000
H24B  2    0.909594    0.241661    0.418956    11.00000   -1.50000
H24C  2    0.907903    0.287307    0.540006    11.00000   -1.50000
AFIX   0
C25   1    0.868980    0.171127    0.624028    11.00000    0.01801    0.01863 =
         0.02400    0.00362    0.00389    0.00778
AFIX 137
H25A  2    0.904536    0.194341    0.689684    11.00000   -1.50000
H25B  2    0.903244    0.145734    0.573031    11.00000   -1.50000
H25C  2    0.831936    0.143911    0.666212    11.00000   -1.50000
AFIX   0
C26   1    0.529207    0.308857    0.918573    11.00000    0.01828    0.02368 =
         0.01357    0.00846    0.00259    0.00489
AFIX  23
H26A  2    0.549072    0.326107    1.004645    11.00000   -1.20000
H26B  2    0.572496    0.280825    0.892095    11.00000   -1.20000
AFIX   0
C27   1    0.448849    0.271371    0.926461    11.00000    0.02277    0.01670 =
         0.01800    0.00401    0.00472    0.00251
AFIX  13
H27   2    0.461340    0.238227    0.993409    11.00000   -1.20000
AFIX   0
C28   1    0.419933    0.238169    0.796354    11.00000    0.04345    0.02757 =
         0.02863   -0.00323   -0.00126   -0.00549
AFIX 137
H28A  2    0.403162    0.269526    0.730090    11.00000   -1.50000
H28B  2    0.373004    0.210872    0.807209    11.00000   -1.50000
H28C  2    0.465426    0.213205    0.769846    11.00000   -1.50000
AFIX   0
C29   1    0.379396    0.313183    0.970103    11.00000    0.02314    0.02445 =
         0.03729    0.01067    0.01431    0.00546
AFIX 137
H29A  2    0.399380    0.333657    1.051780    11.00000   -1.50000
H29B  2    0.331231    0.287364    0.981938    11.00000   -1.50000
H29C  2    0.363752    0.344913    0.904131    11.00000   -1.50000
AFIX   0
N1    3    0.129999    0.594299    0.274869    11.00000    0.01403    0.01568 =
         0.01508    0.00207    0.00197    0.00139
N2    3    0.303007    0.483409    0.630798    11.00000    0.01162    0.01891 =
         0.00992    0.00110    0.00112    0.00454
AFIX  43
H2    2    0.311381    0.481726    0.715373    11.00000   -1.20000
AFIX   0
N3    3    0.429711    0.432466    0.647495    11.00000    0.01264    0.01800 =
         0.00904    0.00048    0.00178    0.00531
AFIX  43
H3A   2    0.427867    0.437691    0.730558    11.00000   -1.20000
AFIX   0
N4    3    0.619754    0.373112    0.325943    11.00000    0.01522    0.01218 =
         0.01234    0.00076    0.00287    0.00184
O1    4    0.062876    0.615070    0.224006    11.00000    0.01679    0.06384 =
         0.02622    0.02333    0.00239    0.01218
O2    4    0.193628    0.596847    0.218578    11.00000    0.02513    0.07450 =
         0.02888    0.02782    0.01561    0.02177
O3    4   -0.001284    0.601084    0.441812    11.00000    0.01038    0.01592 =
         0.01703    0.00167    0.00141    0.00362
O4    4    0.179226    0.486397    0.774383    11.00000    0.01139    0.02106 =
         0.01266    0.00459    0.00322    0.00229
O5    4    0.362101    0.458042    0.443183    11.00000    0.01465    0.02450 =
         0.01071    0.00113    0.00165    0.00609
O6    4    0.564775    0.388964    0.236807    11.00000    0.01822    0.03869 =
         0.01245    0.00629    0.00056    0.00749
O7    4    0.693084    0.362417    0.306159    11.00000    0.01543    0.02361 =
         0.01868    0.00356    0.00792    0.00677
O8    4    0.705966    0.293362    0.515402    11.00000    0.01551    0.01801 =
         0.01452    0.00395    0.00432    0.00899
O9    4    0.514218    0.360447    0.824265    11.00000    0.01758    0.01908 =
         0.01090    0.00391    0.00444    0.00575

C30   1    0.393152    0.480705    1.153350    11.00000    0.02167    0.02105 =
         0.01174    0.00266    0.00015    0.00250
AFIX 137
H30A  2    0.400896    0.511666    1.222827    11.00000   -1.50000
H30B  2    0.435934    0.448525    1.167938    11.00000   -1.50000
H30C  2    0.338581    0.461393    1.152234    11.00000   -1.50000
AFIX   0
C31   1    0.314548    0.573061    1.003433    11.00000    0.01527    0.01567 =
         0.01625    0.00083    0.00324    0.00263
AFIX 137
H31A  2    0.263976    0.549516    1.012272    11.00000   -1.50000
H31B  2    0.307213    0.597372    0.923370    11.00000   -1.50000
H31C  2    0.326226    0.601340    1.077106    11.00000   -1.50000
AFIX   0
O10   4    0.371608    0.469878    0.895282    11.00000    0.02123    0.02092 =
         0.01167   -0.00331   -0.00029    0.00593
S1    5    0.400687    0.518942    0.998871    11.00000    0.01258    0.01657 =
         0.01046    0.00079    0.00169    0.00301
HKLF 4

REM  20160307a_a.res in P2(1)/c
REM R1 =  0.0350 for    6462 Fo > 4sig(Fo)  and  0.0373 for all    6879 data
REM    425 parameters refined using      0 restraints

END

WGHT      0.0393      1.8172

REM Highest difference peak  0.610,  deepest hole -0.495,  1-sigma level  0.061
Q1    1   0.1674  0.5605  0.1941  11.00000  0.05    0.61
Q2    1   0.0897  0.6431  0.2630  11.00000  0.05    0.27
Q3    1   0.7881  0.2370  0.5693  11.00000  0.05    0.24
Q4    1   0.5243  0.3837  0.6597  11.00000  0.05    0.22
Q5    1   0.4850  0.2891  0.9182  11.00000  0.05    0.21
;
_shelx_res_checksum              29808
_shelx_hkl_file
;
   2   0   0  291.77    1.93
  -2   0   0  292.45    1.89
  -3   0   0 1414.07    5.13
  -4   0   0 5759.78   12.03
  -5   0   0  235.98    2.78
  -6   0   0    7.76    0.57
  -7   0   0    5.10    0.52
  -8   0   0   27.89    1.29
  -9   0   0  345.49    4.91
 -10   0   0  552.06    6.78
 -11   0   0   12.13    1.11
  12   0   0  143.57    4.12
 -12   0   0  141.36    3.97
 -13   0   0  391.54    7.02
  13   0   0  377.38    7.07
  14   0   0   54.47    2.78
  15   0   0   28.55    2.07
  16   0   0  270.96    6.03
  17   0   0   70.50    2.93
  18   0   0   33.84    1.84
  19   0   0   21.01    1.24
   1  -1   0 1386.76    3.20
  -2  -1   0  146.78    1.34
   2  -1   0  145.90    1.41
  -2   1   0  148.88    0.77
  -3   1   0   40.75    0.89
   3   1   0   43.21    0.45
  -3  -1   0   39.46    0.86
   3  -1   0   41.92    0.92
   4  -1   0   57.06    1.22
  -4   1   0   55.51    1.21
  -4  -1   0   55.87    1.19
  -5  -1   0   80.77    1.63
  -5   1   0   77.28    1.60
  -6  -1   0  312.79    3.56
  -6   1   0  320.51    3.59
  -7  -1   0   64.86    1.80
  -7   1   0   65.31    1.79
  -8  -1   0    8.09    0.71
  -8   1   0   11.80    0.86
  -9   1   0    0.55    0.26
  -9  -1   0    0.72    0.30
 -10   1   0   54.52    2.13
 -10  -1   0   53.81    2.12
 -11  -1   0  193.10    4.34
 -11   1   0  190.51    4.31
  12   1   0  187.61    4.74
 -12  -1   0  192.33    4.66
 -12   1   0  194.87    4.65
  12  -1   0  192.33    4.75
 -13   1   0    5.38    0.92
  13  -1   0    4.73    0.86
 -13  -1   0    3.95    0.76
  13   1   0    3.29    0.77
  14   1   0   18.91    1.68
  14  -1   0   20.85    1.74
  15  -1   0   11.87    1.34
  15   1   0   11.64    1.39
  16   1   0    1.74    0.67
  16  -1   0    1.50    0.57
  17   1   0   54.15    2.58
  17  -1   0   55.04    2.56
  18  -1   0   85.97    2.89
  18   1   0   90.52    2.99
  19   1   0    2.23    0.47
  19  -1   0    2.54    0.49
   0  -2   0 2810.68    4.36
   1   2   0   68.77    0.73
   1  -2   0   69.58    0.82
  -1  -2   0   71.40    0.84
  -2  -2   0    8.82    0.36
   2  -2   0    8.70    0.37
  -3   2   0  253.77    1.43
   3  -2   0  248.73    2.28
  -3  -2   0  254.34    2.23
   3   2   0  251.95    1.55
   4  -2   0 1052.87    5.36
  -4   2   0 1066.12    2.77
  -4  -2   0 1055.42    5.24
  -5   2   0  619.94    4.61
  -5  -2   0  623.10    4.58
   5  -2   0  627.77    4.63
  -6  -2   0    2.28    0.33
  -6   2   0    2.31    0.34
  -7  -2   0  192.28    3.13
  -7   2   0  196.38    3.14
  -8   2   0    0.16    0.22
  -8  -2   0    0.79    0.28
  -9   2   0  177.43    3.57
  -9  -2   0  179.06    3.61
 -10   2   0  139.02    3.39
 -10  -2   0  134.43    3.41
 -11  -2   0   38.93    1.97
 -11   2   0   38.83    1.95
 -12   2   0   85.47    3.09
  12   2   0   76.81    3.06
 -12  -2   0   82.97    3.08
  12  -2   0   82.23    3.11
 -13  -2   0   98.14    3.53
  13   2   0   92.14    3.51
 -13   2   0   93.97    3.44
  13  -2   0   92.49    3.45
  14  -2   0   17.97    1.60
  14   2   0   15.83    1.54
  15  -2   0    0.68    0.49
  15   2   0    0.47    0.55
  16   2   0   27.52    1.95
  16  -2   0   25.60    1.89
  17   2   0   -0.12    0.46
  17  -2   0    0.17    0.42
  18   2   0    2.21    0.57
  18  -2   0    2.40    0.55
  19   2   0    1.19    0.35
  19  -2   0    1.31    0.37
   0  -3   0    0.32    0.08
   1  -3   0    8.49    0.33
  -1  -3   0    8.57    0.35
   2   3   0  125.16    1.29
  -2  -3   0  126.29    1.46
   2  -3   0  126.34    1.46
  -3   3   0  644.26    2.88
   3   3   0  643.06    3.08
  -4   3   0  188.26    1.52
  -4  -3   0  189.50    2.32
   4  -3   0  188.67    2.34
   4   3   0  184.66    1.64
   5   3   0  561.10    2.78
  -5  -3   0  559.30    4.45
   5  -3   0  551.62    4.47
  -6   3   0  115.48    2.24
   6  -3   0  113.07    2.23
  -6  -3   0  111.35    2.20
  -7  -3   0   60.15    1.80
  -7   3   0   59.38    1.77
  -8   3   0   41.64    1.60
  -8  -3   0   41.04    1.61
  -9   3   0  225.70    4.06
  -9  -3   0  216.08    4.02
 -10  -3   0   31.47    1.68
 -10   3   0   31.63    1.65
 -11   3   0   40.24    2.01
 -11  -3   0   40.55    2.04
  12   3   0  189.68    4.83
 -12  -3   0  184.33    4.60
 -12   3   0  195.90    4.69
  12  -3   0  183.17    4.62
 -13  -3   0   26.35    1.85
  13   3   0   24.88    1.86
 -13   3   0   27.01    1.87
  13  -3   0   23.15    1.73
  14   3   0   50.00    2.68
  14  -3   0   50.39    2.61
  15   3   0    5.11    0.98
  15  -3   0    5.65    0.96
  16   3   0  118.88    3.99
  16  -3   0  119.10    3.93
  17   3   0   12.14    1.24
  17  -3   0   13.85    1.28
  18   3   0    0.24    0.33
  18  -3   0    0.46    0.42
  19  -3   0    1.64    0.39
  19   3   0    1.79    0.41
   0  -4   0    2.31    0.20
   1  -4   0   59.24    0.97
   2   4   0 2108.06    5.60
  -2  -4   0 2101.42    6.55
   3  -4   0  130.24    1.78
   3   4   0  126.76    1.58
  -3   4   0  123.72    1.49
  -3  -4   0  125.87    1.78
  -4   4   0  868.67    3.90
   4  -4   0  875.58    5.21
   4   4   0  863.00    4.10
  -4  -4   0  862.04    5.18
  -5   4   0  445.03    2.70
  -5  -4   0  435.67    4.08
   5   4   0  437.22    2.93
   5  -4   0  431.98    4.05
  -6   4   0  767.48    5.94
  -6  -4   0  754.31    5.94
  -7   4   0   11.71    0.82
  -7  -4   0   12.19    0.83
  -8  -4   0   45.48    1.75
  -8   4   0   43.20    1.67
  -9  -4   0    1.74    0.45
  -9   4   0    0.37    0.28
 -10  -4   0   52.54    2.19
 -10   4   0   50.25    2.10
 -11   4   0   18.88    1.40
 -11  -4   0   18.18    1.39
  12  -4   0    2.58    0.64
  12   4   0    2.22    0.62
 -12  -4   0    2.14    0.59
  12  -4   0    2.70    0.67
 -12   4   0    3.05    0.67
 -13  -4   0    2.49    0.62
  13  -4   0    1.28    0.56
  13   4   0    0.83    0.52
  13  -4   0    1.89    0.64
 -13   4   0    1.93    0.59
  14  -4   0  287.24    6.18
  14   4   0  289.20    6.40
  15   4   0  105.79    3.85
  15  -4   0  102.89    3.70
  16  -4   0  163.04    4.50
  16   4   0  160.43    4.56
  17   4   0   70.12    2.82
  17  -4   0   69.83    2.76
  18  -4   0    0.83    0.39
  18   4   0    1.92    0.53
  19  -4   0   39.72    1.53
  19   4   0   37.22    1.51
   0  -5   0    0.26    0.14
   1  -5   0   64.70    1.09
  -1  -5   0   64.00    1.07
   2   5   0 4940.49    9.06
  -2  -5   0 4842.79   11.18
   3   5   0 2576.59    7.35
  -3  -5   0 2551.30    8.55
   3  -5   0 2567.13    8.36
  -3   5   0 2572.24    7.66
  -4  -5   0    0.46    0.18
   4   5   0    0.80    0.18
  -4   5   0    0.47    0.15
   4  -5   0    0.74    0.21
  -5   5   0   11.23    0.51
   5   5   0   10.99    0.53
   5  -5   0   12.22    0.71
   6  -5   0   34.71    1.29
  -6  -5   0   34.62    1.31
   6   5   0   36.27    0.95
  -7   5   0   57.99    1.84
  -7  -5   0   57.78    1.84
   7  -5   0   56.00    1.77
  -8  -5   0   88.83    2.47
  -8   5   0   86.94    2.42
  -9   5   0   96.90    2.76
  -9  -5   0   92.17    2.73
 -10   5   0  181.54    4.02
 -10  -5   0  170.04    3.99
 -11   5   0   16.82    1.34
 -11  -5   0   18.44    1.42
 -12  -5   0  126.97    3.91
  12  -5   0  128.32    3.85
  12  -5   0  124.39    3.91
  12   5   0  124.69    4.00
 -12   5   0  129.68    3.90
  13   5   0   74.66    3.20
 -13   5   0   76.43    3.15
  13  -5   0   75.27    3.11
  13  -5   0   73.37    3.04
  14  -5   0  112.14    3.74
  14   5   0  113.73    3.99
  14  -5   0  110.83    3.80
  15  -5   0    8.63    1.05
  15  -5   0    9.15    1.13
  15   5   0    9.95    1.24
  16   5   0  128.90    4.04
  16  -5   0  137.70    4.05
  17   5   0   35.40    1.97
  17  -5   0   35.76    1.93
  18  -5   0   38.53    1.75
  18   5   0   37.56    1.77
  19  -5   0    1.99    0.36
  19   5   0    1.93    0.39
   0  -6   0   42.35    0.93
   1  -6   0  886.65    4.37
  -1  -6   0  886.58    4.37
  -2   6   0  870.85    5.05
   2   6   0  885.98    4.08
   2   6   0  884.47    5.15
  -3   6   0  109.21    1.76
   3   6   0  104.83    1.53
   3   6   0  105.00    1.78
   3  -6   0  112.13    1.82
  -3  -6   0  101.70    1.85
   4   6   0  761.41    4.79
  -4   6   0  759.02    4.60
   4  -6   0  752.65    5.17
   5  -6   0  585.93    4.99
   5   6   0  578.34    4.22
  -5  -6   0  576.43    5.09
   6  -6   0   34.46    1.32
  -6  -6   0   36.39    1.39
   6   6   0   35.11    1.03
  -6   6   0   37.24    1.02
  -7  -6   0  112.48    2.64
   7  -6   0  112.19    2.55
  -7   6   0  110.59    2.59
  -8  -6   0  189.08    3.69
  -8   6   0  185.77    3.64
  -9   6   0  408.58    5.76
  -9  -6   0  401.26    5.81
 -10  -6   0  218.44    4.58
 -10   6   0  220.78    4.53
 -11  -6   0    4.15    0.72
 -11   6   0    2.97    0.62
  12  -6   0  178.51    4.79
 -12   6   0  183.65    4.68
  12  -6   0  187.66    4.65
  12   6   0  180.78    4.82
  13  -6   0   65.86    2.95
  13  -6   0   63.34    2.81
  13   6   0   66.53    3.01
  14  -6   0  272.47    5.90
  14  -6   0  273.26    5.87
  14   6   0  271.06    6.12
  15  -6   0    3.05    0.67
  15   6   0    3.54    0.76
  15  -6   0    3.26    0.73
  16   6   0  189.69    4.78
  16  -6   0  193.47    4.65
  16  -6   0  189.00    4.28
  17  -6   0   14.18    1.20
  17   6   0   12.25    1.15
  18   6   0   22.33    1.30
  18  -6   0   24.39    1.32
  19   6   0    6.81    0.56
   0  -7   0    0.10    0.11
   0   7   0    1.08    0.23
   1  -7   0  746.22    4.28
  -1  -7   0  736.89    4.29
   1   7   0  743.26    5.13
  -1   7   0  733.44    5.09
  -2  -7   0   91.36    1.58
   2   7   0   88.02    1.35
  -2   7   0   86.11    1.73
   3   7   0   34.78    0.91
  -3   7   0   34.07    1.09
   3   7   0   33.64    1.10
   3  -7   0   33.94    1.06
  -4   7   0   20.75    0.85
   4   7   0   21.24    0.89
   4  -7   0   20.67    0.90
  -5  -7   0  285.11    3.68
  -5   7   0  288.47    3.13
   5  -7   0  285.25    3.60
   5   7   0  288.99    3.26
  -6  -7   0   22.57    1.15
   6   7   0   20.10    0.85
   6  -7   0   21.35    1.07
  -6   7   0   22.88    0.88
  -7   7   0   13.97    0.97
  -7  -7   0   14.35    1.00
   7  -7   0   14.89    0.98
  -8   7   0   75.22    2.38
  -8  -7   0   67.37    2.28
  -9  -7   0   66.02    2.42
  -9   7   0   67.51    2.41
 -10   7   0   44.50    2.10
 -10  -7   0   43.42    2.09
  11  -7   0   29.01    1.75
 -11   7   0   25.35    1.69
  11  -7   0   25.57    1.84
  12   7   0  130.48    4.10
 -12   7   0  133.98    4.05
  12  -7   0  130.77    4.21
  12  -7   0  138.70    4.00
  13   7   0  126.09    4.10
  13  -7   0  129.95    3.96
  13  -7   0  127.25    4.15
  14   7   0    2.20    0.66
  14  -7   0    1.90    0.63
  14  -7   0    1.40    0.61
  15   7   0  183.60    4.82
  15  -7   0  185.71    4.66
  15  -7   0  184.76    4.70
  16   7   0   39.92    2.14
  16  -7   0   41.66    2.04
  16  -7   0   43.10    2.13
  17   7   0  327.08    5.42
  17  -7   0  325.87    5.23
  18  -7   0   25.24    1.23
  18   7   0   25.26    1.28
   0  -8   0  836.53    4.74
   0   8   0  828.54    5.83
   1   8   0  120.89    2.23
  -1   8   0  115.97    2.18
  -1  -8   0  119.94    1.83
   1  -8   0  121.41    1.83
  -2  -8   0   31.12    0.99
  -2   8   0   30.18    1.11
   2   8   0   30.56    0.84
   2   8   0   29.25    1.12
   3   8   0  152.79    1.96
  -3   8   0  157.17    2.50
   3  -8   0  150.63    2.32
   3   8   0  158.51    2.57
   4   8   0  181.93    2.79
   4  -8   0  182.87    2.75
  -4   8   0  180.58    2.71
  -5   8   0  307.76    3.52
   5  -8   0  299.06    3.83
   5   8   0  308.03    3.66
  -5  -8   0  314.98    4.14
   6   8   0   12.96    0.75
  -6   8   0   12.29    0.71
  -6  -8   0   11.43    0.85
   6  -8   0   12.99    0.88
  -7  -8   0   93.16    2.53
   7  -8   0   97.38    2.51
  -7   8   0   94.35    2.57
  -8  -8   0   36.89    1.74
  -8   8   0   36.93    1.72
  -9  -8   0  107.27    3.13
  -9   8   0  112.01    3.19
 -10   8   0   94.51    3.09
  11  -8   0  178.99    4.90
 -11   8   0  180.63    4.52
  11   8   0  180.45    4.63
  12   8   0   58.50    2.75
 -12   8   0   59.11    2.71
  12  -8   0   58.88    2.87
  13  -8   0   17.00    1.59
  13  -8   0   16.79    1.45
  13   8   0   15.35    1.43
  14  -8   0  166.47    4.73
  14   8   0  174.36    4.72
  14  -8   0  172.89    4.48
  15   8   0    9.07    1.09
  15  -8   0    9.29    1.13
  15  -8   0    9.96    1.07
  16  -8   0    4.50    0.74
  16   8   0    3.96    0.69
  16  -8   0    5.08    0.77
  17   8   0   75.29    2.43
  17  -8   0   77.64    2.33
  17  -8   0   73.30    2.30
  18   8   0  131.16    2.54
   0   9   0    0.16    0.18
   0  -9   0    0.13    0.12
  -1  -9   0  204.10    2.55
   1   9   0  199.64    3.08
   1  -9   0  200.43    2.49
  -1   9   0  199.99    3.05
   2   9   0   99.19    1.56
  -2  -9   0   97.69    1.85
  -2   9   0   97.11    2.12
   2   9   0   98.19    2.18
  -3   9   0    8.69    0.66
  -3  -9   0   11.20    0.67
   3   9   0    9.01    0.50
   3  -9   0    9.31    0.62
   3   9   0    9.43    0.70
   4   9   0   68.92    1.86
  -4   9   0   71.05    1.83
   4  -9   0   71.96    1.78
   5   9   0  696.73    5.93
  -5   9   0  696.32    5.71
   5  -9   0  713.57    5.99
  -6   9   0   36.23    1.31
  -6  -9   0   31.97    1.48
   6   9   0   32.27    1.27
   6  -9   0   31.06    1.37
   7  -9   0  353.73    4.86
  -7  -9   0  356.71    5.22
  -8  -9   0   10.26    0.97
  -8   9   0   12.63    1.05
  -9   9   0   61.30    2.43
  10  -9   0   64.47    2.93
 -10   9   0   65.91    2.65
 -11   9   0    3.90    0.69
  11  -9   0    3.64    0.81
  12  -9   0  138.61    4.49
  13   9   0  298.02    6.13
  13  -9   0  300.22    6.55
  14  -9   0    0.18    0.44
  14   9   0    0.57    0.45
  15  -9   0   12.94    1.30
  15   9   0   11.03    1.13
  16   9   0   25.23    1.53
  16  -9   0   24.61    1.57
  17   9   0  159.77    3.18
  17  -9   0  157.36    3.27
   0  10   0   18.08    1.01
   0 -10   0   19.51    0.80
  -1  10   0   38.28    1.45
   1  10   0   33.99    1.37
  -1 -10   0   35.61    1.11
   1 -10   0   37.25    1.12
  -2  10   0   45.69    1.57
   2  10   0   43.49    1.56
  -2 -10   0   43.48    1.27
   2 -10   0   44.80    1.29
   3  10   0    1.32    0.30
  -3  10   0    1.91    0.37
  -3 -10   0    1.35    0.27
   3 -10   0    1.03    0.25
  -4 -10   0  253.32    3.51
  -4  10   0  257.12    3.76
   4  10   0  258.92    3.84
   5  10   0   34.68    1.42
   5 -10   0   33.85    1.35
  -5  10   0   33.81    1.36
   6  10   0   65.98    1.96
  -6  10   0   73.21    2.00
   6 -10   0   68.56    2.06
   7 -10   0   65.76    2.15
   7  10   0   69.31    2.02
  -8  10   0   42.29    1.95
  -9  10   0   62.97    2.50
  10  10   0  295.25    5.40
  10 -10   0  293.20    6.41
 -10  10   0  308.11    5.81
  11  10   0    0.96    0.45
 -11  10   0    0.20    0.36
  11 -10   0    0.17    0.48
  12 -10   0    4.61    0.92
  13 -10   0    0.75    0.43
  14 -10   0   67.60    3.03
  15 -10   0   18.48    1.51
  16 -10   0    6.88    0.84
  17 -10   0  128.78    2.87
   0  11   0    0.15    0.24
  -1  11   0   17.33    1.05
   1  11   0   15.51    1.00
  -2  11   0   94.45    2.42
   2 -11   0   98.14    1.95
   2  11   0   98.50    2.50
   3  11   0   53.47    1.87
   3 -11   0   54.44    1.55
  -3  11   0   54.48    1.85
  -4  11   0  833.95    7.18
   4  11   0  837.43    7.39
   4 -11   0  851.67    6.48
   5  11   0  400.01    5.12
   5 -11   0  395.29    4.77
  -5  11   0  403.00    4.95
   6  11   0    5.38    0.63
  -6  11   0    5.49    0.61
   7  11   0    1.43    0.38
  -7  11   0    0.38    0.30
  -8  11   0  131.86    3.52
   9 -11   0  290.42    6.32
  -9  11   0  276.67    5.36
   9  11   0  284.17    5.30
  10  11   0   39.85    2.04
  10 -11   0   39.53    2.44
 -10  11   0   39.19    2.13
  11  11   0    0.37    0.34
  11 -11   0    0.16    0.45
  12  11   0   16.74    1.32
  12 -11   0   18.93    1.75
  13 -11   0    6.39    1.08
  14 -11   0   30.70    2.04
  15 -11   0  195.63    4.68
  16 -11   0   26.60    1.55
  17 -11   0   95.96    2.37
   0  12   0  151.25    3.28
  -1  12   0   73.66    2.29
   1  12   0   71.78    2.26
   2  12   0   14.68    1.05
  -2  12   0   14.90    1.04
   3  12   0  206.25    3.90
  -3  12   0  208.19    3.84
  -4  12   0   13.86    1.00
   4  12   0   12.98    1.00
   5  12   0   23.95    1.34
  -5  12   0   28.81    1.43
  -6  12   0    7.16    0.75
   6  12   0    8.67    0.84
  -7  12   0  150.53    3.66
  -8  12   0   28.37    1.69
   8 -12   0   28.17    1.98
   8  12   0   28.19    1.69
  -9  12   0   50.14    2.34
   9 -12   0   51.61    2.74
   9  12   0   52.76    2.38
  10 -12   0    1.62    0.62
  10  12   0    1.86    0.52
 -10  12   0    1.39    0.48
  11 -12   0  149.07    4.80
  11  12   0  150.15    4.02
  12  12   0   40.48    2.05
  12 -12   0   38.37    2.44
  13 -12   0   12.48    1.37
  14 -12   0   22.57    1.74
  15 -12   0   89.51    3.09
  16 -12   0   17.36    1.21
  17 -12   0    0.50    0.28
   0  13   0    0.30    0.26
   1  13   0   12.72    1.04
  -1  13   0   12.79    1.02
  -2  13   0   90.19    2.68
   2  13   0   90.33    2.72
   3  13   0  175.05    3.79
  -3  13   0  174.53    3.70
  -4  13   0  315.22    4.96
   4  13   0  318.86    5.14
   5  13   0   14.59    1.12
  -5  13   0   14.01    1.08
  -6  13   0   18.91    1.23
   6  13   0   18.87    1.30
  -7  13   0  264.48    4.98
   7  13   0  261.32    5.15
   7 -13   0  259.85    5.91
  -8  13   0    0.63    0.42
  -8 -13   0    0.84    0.32
   8 -13   0    1.20    0.62
   8  13   0    0.52    0.43
   9  13   0  228.40    4.99
   9 -13   0  218.40    5.71
  -9  13   0  221.76    4.96
  10  13   0  138.02    3.93
  10 -13   0  144.62    4.76
  11 -13   0  113.18    4.18
  11  13   0  115.65    3.56
  12 -13   0    8.66    1.21
  12  13   0    7.18    0.91
  13 -13   0    1.30    0.62
  14 -13   0   51.01    2.48
  15 -13   0   48.69    2.20
  16 -13   0   14.15    1.04
  17 -13   0   40.45    1.31
  17 -13   0   39.89    1.32
   0  14   0   12.06    1.06
   1  14   0   29.57    1.65
  -1  14   0   29.85    1.64
   2  14   0   68.12    2.49
  -2  14   0   67.18    2.44
   3  14   0  227.38    4.55
  -3  14   0  228.29    4.49
   4  14   0    3.94    0.63
  -4  14   0    3.41    0.59
   5  14   0  370.30    5.93
  -5  14   0  359.94    5.68
   6  14   0   34.50    1.83
   6 -14   0   31.45    2.05
   6  14   0   31.83    1.82
  -7  14   0  344.67    5.82
   7 -14   0  325.95    6.74
   7  14   0  344.74    6.06
  -8  14   0  377.03    6.35
   8  14   0  379.76    6.46
   8 -14   0  369.40    7.36
  -8 -14   0  389.11    6.17
   9 -14   0    0.48    0.50
   9  14   0    0.74    0.43
  -9 -14   0    0.25    0.33
  10 -14   0   27.25    2.10
  10  14   0   27.01    1.78
  11  14   0   72.86    2.83
  11 -14   0   70.66    3.29
  12  14   0   17.11    1.33
  12 -14   0   17.42    1.62
  13 -14   0   15.54    1.46
  14 -14   0   44.26    2.23
  15 -14   0    2.54    0.55
  16 -14   0   27.34    1.32
   0  15   0    0.07    0.28
  -1  15   0    5.89    0.81
   1  15   0    4.14    0.71
   2  15   0  116.83    3.42
  -2  15   0  115.99    3.38
   3  15   0    0.86    0.39
  -3  15   0    0.88    0.41
   4  15   0   17.41    1.37
   4  15   0   16.36    1.29
  -4  15   0   15.19    1.24
  -5  15   0   14.57    1.22
   5  15   0   13.23    1.21
   5 -15   0   13.38    1.37
   5  15   0   14.01    1.23
  -6  15   0   44.03    2.06
   6 -15   0   45.14    2.52
   6  15   0   44.15    2.19
   6  15   0   42.35    2.11
   7  15   0    9.62    1.08
   7 -15   0    9.15    1.24
  -7  15   0    8.95    1.02
  -8 -15   0   68.39    2.67
   8 -15   0   71.66    3.30
   8  15   0   69.37    2.82
   9  15   0   12.95    1.27
  -9 -15   0   13.37    1.19
   9 -15   0   13.69    1.54
 -10  15   0   12.59    1.29
  10 -15   0   13.95    1.53
  10  15   0   14.88    1.34
 -11  15   0    4.10    0.75
  11  15   0    5.19    0.82
  11 -15   0    4.96    0.96
  12  15   0  100.10    3.09
  12 -15   0   96.71    3.63
  13 -15   0   28.50    1.90
  14 -15   0    4.25    0.72
  15 -15   0   30.02    1.54
  16 -15   0    1.71    0.36
   0  16   0   17.96    1.41
   0  16   0   15.59    1.40
  -1  16   0    0.52    0.37
   1  16   0    0.55    0.36
   1  16   0    0.43    0.32
  -1  16   0    0.77    0.49
   1  16   0    0.06    0.35
  -2  16   0    0.60    0.40
   2  16   0    1.17    0.42
  -2  16   0    0.74    0.47
   2  16   0    0.26    0.45
   2  16   0    1.13    0.47
  -3  16   0    2.23    0.57
   3  16   0    2.78    0.64
   3  16   0    1.80    0.55
   3  16   0    3.49    0.72
  -3  16   0    1.50    0.57
   4  16   0    4.26    0.74
   4  16   0    4.76    0.76
  -4  16   0    4.58    0.90
  -4  16   0    3.86    0.71
   5 -16   0    9.60    1.21
   5  16   0   10.16    1.11
   5  16   0    7.69    0.97
   6 -16   0  115.02    4.00
   6  16   0  109.30    3.53
   7  16   0   13.96    1.31
   7 -16   0   14.90    1.53
  -7 -16   0   14.21    1.28
  -7  16   0   15.59    1.52
   8  16   0   32.17    1.96
   8 -16   0   33.57    2.28
  -8  16   0   33.95    2.16
   9 -16   0   39.77    2.49
   9  16   0   41.23    2.19
  -9 -16   0   42.08    2.05
  -9  16   0   41.93    2.34
 -10  16   0  119.40    3.75
  10 -16   0  129.42    4.36
  10  16   0  129.26    3.79
  11 -16   0   21.03    1.75
  11  16   0   20.47    1.49
 -11  16   0   20.00    1.45
  12 -16   0   42.27    2.34
  12  16   0   41.41    1.92
  13 -16   0   91.69    3.16
  14 -16   0    2.06    0.49
  15 -16   0    5.17    0.62
   0  17   0    0.75    0.43
   0  17   0    0.11    0.43
  -1  17   0   28.32    1.97
   1  17   0   29.31    1.73
  -1  17   0   29.16    1.91
   1  17   0   30.52    1.99
   1  17   0   28.93    1.92
   2  17   0  317.23    6.25
  -2  17   0  314.81    6.13
   2  17   0  307.12    5.60
  -2  17   0  312.44    6.53
   2  17   0  305.27    6.15
   3  17   0   38.20    2.17
  -3  17   0   40.97    2.23
   3  17   0   36.58    1.98
   3  17   0   39.92    2.24
  -3  17   0   37.11    2.31
  -4  17   0    4.69    0.91
   4  17   0    4.36    0.74
   4  17   0    5.57    0.86
  -4  17   0    4.44    0.78
   5 -17   0   12.80    1.35
  -5  17   0   12.39    1.43
   5  17   0   12.23    1.23
  -6  17   0   34.10    2.24
   6  17   0   36.87    2.08
   6 -17   0   36.80    2.27
   7  17   0   62.01    2.71
  -7  17   0   62.55    2.98
   7 -17   0   64.97    3.06
  -7 -17   0   64.29    2.65
   8 -17   0    0.77    0.54
  -8 -17   0    0.42    0.35
   8  17   0    0.49    0.43
  -8  17   0    1.43    0.63
   9 -17   0   36.21    2.30
  -9 -17   0   37.17    1.89
  -9  17   0   35.84    2.14
   9  17   0   34.30    1.98
  10 -17   0    6.37    1.04
  10  17   0    7.53    0.95
 -10 -17   0    6.54    0.77
 -10  17   0    6.05    0.90
 -11  17   0    7.70    0.89
  11  17   0    6.81    0.85
  11 -17   0    6.24    0.95
  12 -17   0  170.96    4.36
  13 -17   0   22.33    1.47
  14 -17   0   -0.03    0.30
  15 -17   0    0.31    0.23
   0  18   0   66.97    3.03
   0  18   0   67.01    2.97
  -1  18   0  211.42    5.22
   1  18   0  214.77    5.33
  -1  18   0  213.33    5.44
   1  18   0  216.96    5.32
   1  18   0  222.01    4.72
   2  18   0    7.24    1.04
  -2  18   0    7.02    1.00
   2  18   0    6.47    0.88
  -2  18   0    6.95    1.06
  -3  18   0   12.28    1.36
   3  18   0   14.68    1.30
   4  18   0    4.19    0.80
  -4  18   0    3.22    0.84
   5  18   0    0.94    0.55
  -5  18   0    0.56    0.43
   6 -18   0    3.07    0.77
   6  18   0    3.01    0.70
  -6 -18   0    3.17    0.70
  -6  18   0    3.80    0.86
   7 -18   0    9.78    1.21
  -7 -18   0    8.56    1.01
   7  18   0    9.26    1.10
  -7  18   0   10.79    1.27
   8  18   0   58.08    2.58
   8 -18   0   57.58    2.82
  -8 -18   0   57.93    2.42
  -8  18   0   57.33    2.75
   9 -18   0   43.61    2.42
  -9 -18   0   41.04    1.94
   9  18   0   43.97    2.18
  -9  18   0   42.47    2.25
  10 -18   0   61.31    2.78
 -10  18   0   56.96    2.42
  10  18   0   61.21    2.47
 -10 -18   0   62.60    2.19
  11 -18   0   49.18    2.35
 -11  18   0   49.25    2.04
  11  18   0   48.87    2.06
  12 -18   0    3.78    0.70
  13 -18   0   50.24    1.98
  14 -18   0  103.46    2.43
   0  19   0    0.89    0.47
  -1  19   0    5.90    0.98
   1  19   0    4.62    0.86
   1  19   0    5.87    0.85
  -2  19   0  100.64    3.81
   2  19   0  105.45    3.69
   2  19   0  102.19    3.29
   3  19   0   81.30    2.98
  -3  19   0   75.61    3.29
   4  19   0    1.37    0.55
  -4  19   0    1.18    0.60
  -5  19   0  257.82    6.02
   5  19   0  276.53    5.59
  -6 -19   0  317.62    5.86
  -6  19   0  301.69    6.44
   6 -19   0  315.85    6.20
   6  19   0  308.62    5.89
  -7 -19   0  168.92    4.16
  -7  19   0  163.38    4.62
   7 -19   0  171.45    4.59
   7  19   0  168.39    4.32
   8 -19   0   73.45    3.00
   8  19   0   72.92    2.80
  -8  19   0   67.53    2.87
  -8 -19   0   74.01    2.64
  -9 -19   0   50.41    2.05
   9 -19   0   48.60    2.39
   9  19   0   50.94    2.28
  -9  19   0   50.73    2.35
  10  19   0    0.65    0.38
 -10 -19   0    0.89    0.33
  10 -19   0    1.44    0.57
 -10  19   0    1.38    0.48
 -11  19   0    3.14    0.54
  11 -19   0    3.59    0.66
  12 -19   0    6.43    0.75
  13 -19   0   24.64    1.23
   0  20   0   75.24    3.21
   1  20   0   56.58    2.76
   1  20   0   55.70    2.35
  -1  20   0   52.96    2.73
   2  20   0    2.90    0.61
  -2  20   0    2.36    0.72
   3  20   0   43.64    2.17
  -3  20   0   42.92    2.48
  -4  20   0  431.37    7.72
   4  20   0  443.59    6.94
  -5 -20   0  138.96    3.88
  -5  20   0  134.62    4.30
   5  20   0  136.27    3.85
  -6  20   0   82.48    3.28
   6  20   0   81.42    2.97
  -6 -20   0   82.74    2.92
   7  20   0   14.56    1.28
  -7 -20   0   14.48    1.20
  -7  20   0   14.73    1.38
   7 -20   0   14.07    1.27
   8 -20   0   16.67    1.36
  -8  20   0   15.42    1.34
  -8 -20   0   18.80    1.29
   8  20   0   17.41    1.35
  -9 -20   0   91.79    2.60
   9 -20   0   95.80    3.05
  -9  20   0   95.16    3.03
   9  20   0   95.27    2.93
 -10  20   0    7.85    0.82
  10 -20   0    7.55    0.85
  10  20   0    7.25    0.78
 -10 -20   0    7.25    0.67
  11 -20   0   15.47    1.11
   0  21   0   -0.20    0.45
   1  21   0    5.62    0.77
  -1  21   0    5.65    0.96
  -2  21   0   55.10    2.74
   2  21   0   56.78    2.34
  -3  21   0    8.14    1.13
   3  21   0    9.10    1.01
  -3 -21   0    9.74    1.09
  -4 -21   0   10.64    1.11
   4  21   0   10.07    1.07
  -4  21   0   10.35    1.24
  -5 -21   0   12.28    1.17
  -5  21   0   11.29    1.28
   5  21   0   14.35    1.25
  -6 -21   0    6.72    0.84
   6  21   0    4.89    0.77
  -6  21   0    5.18    0.87
  -7 -21   0    2.87    0.56
   7  21   0    4.49    0.72
  -7  21   0    2.84    0.69
  -8 -21   0    8.49    0.82
   8  21   0    8.59    0.91
  -8  21   0    8.54    0.98
  -9 -21   0   42.24    1.61
   9  21   0   43.68    1.84
  -9  21   0   42.47    1.88
 -10 -21   0    1.93    0.35
   0 -22   0   41.04    2.04
  -1 -22   0   31.75    1.81
   1  22   0   29.90    1.57
   1 -22   0   32.24    1.76
  -2 -22   0   12.39    1.18
   2  22   0   10.05    0.97
   2 -22   0   10.88    1.01
  -2  22   0   11.49    1.23
   3 -22   0    8.27    0.86
  -3  22   0    8.51    1.06
   3  22   0    8.38    0.91
  -3 -22   0    8.87    1.00
  -4 -22   0   16.59    1.30
  -4  22   0   13.40    1.34
   4  22   0   16.65    1.24
   5  22   0    4.96    0.73
  -5 -22   0    7.48    0.86
  -5  22   0    5.56    0.86
  -6 -22   0  109.84    3.00
  -6  22   0  107.24    3.37
   6  22   0  109.30    3.06
  -7 -22   0   50.29    1.92
  -7  22   0   47.21    2.13
   7  22   0   50.73    2.03
  -8  22   0   32.44    1.64
  -8 -22   0   34.69    1.47
   8  22   0   35.05    1.61
  -9 -22   0   24.47    1.09
   0 -23   0    0.11    0.29
  -1 -23   0    0.10    0.32
   1 -23   0    0.40    0.32
  -2 -23   0    3.63    0.65
   2  23   0    2.77    0.50
   2 -23   0    2.80    0.53
  -3 -23   0   34.15    1.73
   3  23   0   32.40    1.57
   3 -23   0   33.52    1.48
  -4 -23   0   43.81    1.91
   4  23   0   39.90    1.75
   5  23   0   -0.04    0.30
  -5 -23   0    0.85    0.35
  -6 -23   0    1.19    0.36
   6  23   0    0.57    0.31
  -7 -23   0    1.33    0.35
  -8 -23   0   11.50    0.75
   0 -24   0  187.35    3.62
  -1 -24   0   36.91    1.65
   1 -24   0   37.44    1.58
   2 -24   0  158.95    3.01
  -2 -24   0  162.35    3.45
  -3 -24   0   76.84    2.34
  -4 -24   0    0.07    0.27
  -5 -24   0    2.25    0.45
  -6 -24   0    0.38    0.27
  -7 -24   0  113.82    2.21
   0 -25   0    0.31    0.28
   1 -25   0   60.96    1.70
  -1 -25   0   61.06    1.86
  -2 -25   0   56.68    1.80
   2 -25   0   50.34    1.38
  -3 -25   0   21.65    1.11
  -4 -25   0   10.34    0.75
  -5 -25   0    0.25    0.22
  -6 -25   0   18.93    0.83
  -1 -26   0   21.22    0.88
  -2 -26   0    0.25    0.16
  -3 -26   0    6.76    0.51
  20   0  -1    0.03    0.17
  19   0  -1   -0.32    0.32
  18   0  -1    0.75    0.45
  17   0  -1   -0.16    0.47
  16   0  -1    0.08    0.47
  15   0  -1    0.10    0.52
  14   0  -1    1.30    0.65
  13   0  -1    0.10    0.40
 -13   0   1    0.37    0.39
  12   0  -1    0.30    0.37
 -12   0   1    0.58    0.33
 -11   0   1    0.02    0.26
 -10   0   1    0.12    0.24
  -9   0   1    0.55    0.26
  -8   0   1    0.46    0.22
  -7   0   1    0.96    0.25
  -6   0   1    0.33    0.17
   6   0  -1    0.17    0.15
  -5   0   1    0.77    0.18
   5   0  -1    0.46    0.19
   4   0  -1    0.16    0.13
   3   0  -1    0.46    0.17
   2   0  -1    0.10    0.09
   1   0  -1    0.57    0.09
   0   0  -1    0.28    0.07
  -1   0  -1    0.32    0.08
  -2   0  -1    0.64    0.13
  -3   0  -1    0.54    0.18
  -4   0  -1    0.29    0.16
  -5   0  -1    1.53    0.27
  -6   0  -1    0.15    0.19
  -7   0  -1    0.19    0.23
  -8   0  -1    0.44    0.28
  -9   0  -1    1.45    0.41
 -10   0  -1    0.07    0.26
 -11   0  -1    0.40    0.28
  12   0   1    1.21    0.48
 -12   0  -1    0.07    0.34
  13   0   1   -0.32    0.37
 -13   0  -1   -0.08    0.40
  14   0   1    0.16    0.41
  15   0   1   -0.05    0.42
  16   0   1    0.69    0.58
  17   0   1    0.47    0.46
  18   0   1   -0.01    0.34
  19   0   1   -0.10    0.26
  20   1  -1   13.16    0.77
  19  -1  -1   76.93    2.38
  19   1  -1   79.86    2.45
  18   1  -1   72.59    2.73
  18  -1  -1   67.07    2.61
  17  -1  -1   30.57    1.96
  17   1  -1   26.56    1.86
  16   1  -1   12.61    1.36
  16  -1  -1   13.29    1.40
  15  -1  -1  127.22    4.30
  15   1  -1  129.69    4.36
  14   1  -1 1520.11   14.80
  14  -1  -1 1496.91   14.63
 -13  -1   1   24.34    1.71
  13   1  -1   23.86    1.84
 -13   1   1   25.34    1.76
  13  -1  -1   23.79    1.82
  12  -1  -1    6.96    0.96
 -12   1   1    5.72    0.81
  12   1  -1    6.05    0.92
 -12  -1   1    6.84    0.89
 -11   1   1   10.83    1.02
 -11  -1   1   11.25    1.02
 -10  -1   1   19.51    1.24
 -10   1   1   18.51    1.23
  -9  -1   1   10.34    0.84
  -9   1   1   10.20    0.84
  -8  -1   1  202.05    3.30
  -8   1   1  201.32    3.36
   7  -1  -1  117.23    2.40
  -7  -1   1  115.65    2.30
  -7   1   1  119.18    2.36
  -6   1   1   11.53    0.68
  -6  -1   1   11.49    0.65
   6  -1  -1   11.78    0.71
  -5  -1   1  444.48    3.55
   5  -1  -1  439.22    3.88
   5   1  -1  443.02    3.73
   4  -1  -1  567.50    3.99
   4   1  -1  573.47    3.77
  -4  -1   1  570.69    3.52
  -3  -1   1   23.88    0.60
   3   1  -1   23.86    0.67
   3  -1  -1   23.25    0.73
   2  -1  -1   83.95    1.08
   2   1  -1   83.65    1.03
   2  -1  -1   84.91    1.22
   1  -1  -1 1254.47    4.23
   1   1  -1 1273.01    3.08
   0   1  -1  780.98    2.07
   0  -1  -1  782.08    3.28
  -1   1  -1   62.21    0.82
  -1  -1  -1   64.74    0.99
  -2  -1  -1   67.23    1.15
  -2   1  -1   67.83    1.06
  -3  -1  -1   17.90    0.69
  -3   1  -1   20.59    0.70
  -4  -1  -1  996.30    5.66
  -4   1  -1  993.67    5.44
  -5  -1  -1   19.28    0.88
  -5   1  -1   18.37    0.84
  -6  -1  -1  435.69    4.59
  -6   1  -1  502.96    4.77
  -7  -1  -1  315.18    4.25
  -7   1  -1  316.99    4.18
  -8  -1  -1  108.89    2.73
  -8   1  -1  109.10    2.68
  -9  -1  -1  531.95    6.53
  -9   1  -1  529.57    6.41
 -10  -1  -1  159.89    3.86
 -10   1  -1  157.35    3.80
 -11   1  -1  153.01    4.03
 -11  -1  -1  154.05    4.11
 -12  -1  -1  155.61    4.40
  12  -1   1  149.25    4.19
  12   1   1  150.51    4.20
 -12   1  -1  153.70    4.31
 -13   1  -1    0.32    0.34
  13   1   1    0.50    0.40
 -13  -1  -1    0.20    0.37
  13  -1   1   -0.03    0.41
  14  -1   1   63.00    2.93
  14   1   1   61.84    2.91
  15   1   1   29.04    2.02
  15  -1   1   30.86    2.05
  16   1   1  299.27    6.21
  16  -1   1  301.79    6.17
  17  -1   1    4.85    0.83
  17   1   1    6.64    0.94
  18   1   1    0.26    0.35
  18  -1   1    0.56    0.42
  19   1   1    5.04    0.60
  19  -1   1    5.17    0.61
  19  -2  -1    4.12    0.60
  19   2  -1    3.27    0.55
  18   2  -1    4.21    0.70
  18  -2  -1    4.63    0.74
  17   2  -1    2.35    0.62
  17  -2  -1    2.36    0.64
  16  -2  -1   40.16    2.36
  16   2  -1   42.45    2.45
  15   2  -1  138.15    4.51
  15  -2  -1  139.24    4.46
  14   2  -1  230.55    5.83
  14  -2  -1  231.15    5.72
 -13  -2   1   15.12    1.38
  13  -2  -1   15.36    1.49
 -13   2   1   14.89    1.36
  13   2  -1   14.58    1.48
  12   2  -1   46.01    2.43
 -12   2   1   41.72    2.11
 -12  -2   1   41.96    2.09
  12  -2  -1   42.09    2.30
 -11  -2   1    5.96    0.75
 -11   2   1    5.36    0.73
 -10  -2   1  159.87    3.52
 -10   2   1  155.80    3.51
  -9   2   1    4.12    0.56
  -9  -2   1    3.87    0.55
  -8  -2   1  211.42    3.39
  -8   2   1  216.48    3.54
   7  -2  -1  506.46    5.09
  -7  -2   1  499.09    4.70
   6  -2  -1  284.71    3.51
  -6  -2   1  273.01    3.13
   5  -2  -1  134.42    2.22
  -5  -2   1  138.18    1.97
  -4  -2   1   72.45    1.23
   4  -2  -1   72.66    1.48
  -3  -2   1  281.05    2.01
   3   2  -1  286.77    2.21
   2   2  -1  104.84    1.06
  -2  -2   1  101.72    0.90
   2  -2  -1  103.75    1.45
   1  -2  -1  238.08    2.05
   1   2  -1  235.51    1.07
   0  -2  -1 1197.71    4.43
   0   2  -1 1186.51    2.26
  -1  -2  -1   38.06    0.86
  -1   2  -1   39.95    0.65
  -2   2  -1  579.65    3.12
  -2  -2  -1  585.16    3.64
  -3  -2  -1 1617.56    6.73
  -3   2  -1 1652.69    6.13
  -4  -2  -1   45.77    1.26
  -4   2  -1   46.02    1.18
  -5   2  -1   43.53    1.28
  -5  -2  -1   42.41    1.34
  -6   2  -1  216.27    3.14
  -6  -2  -1  212.13    3.25
  -7   2  -1    2.08    0.39
  -7  -2  -1    1.80    0.38
  -8   2  -1   23.76    1.27
  -8  -2  -1   23.52    1.30
  -9   2  -1   86.31    2.60
  -9  -2  -1   88.78    2.73
 -10   2  -1   56.25    2.25
 -10  -2  -1   47.73    2.16
 -11  -2  -1    2.12    0.56
 -11   2  -1    2.20    0.55
  12  -2   1   10.85    1.18
 -12  -2  -1   10.59    1.18
  12   2   1   10.38    1.16
 -12   2  -1   10.20    1.16
 -13   2  -1   10.87    1.25
  13  -2   1   10.39    1.20
  13   2   1   10.48    1.21
 -13  -2  -1   10.76    1.26
  14   2   1   44.18    2.47
  14  -2   1   46.76    2.51
  15   2   1    9.35    1.20
  15  -2   1    6.66    1.02
  16   2   1    1.57    0.64
  16  -2   1    0.25    0.47
  17   2   1   69.89    2.80
  17  -2   1   65.22    2.68
  18  -2   1    1.64    0.49
  18   2   1    1.63    0.49
  19  -2   1   -0.06    0.27
  19   2   1    0.36    0.27
  19   3  -1   61.68    2.09
  19  -3  -1   64.50    2.07
  18  -3  -1    0.66    0.38
  18   3  -1    0.89    0.45
  17  -3  -1    8.40    1.05
  17   3  -1    9.60    1.15
  16  -3  -1   13.74    1.42
  16   3  -1   10.60    1.27
  15  -3  -1  188.50    5.13
  15   3  -1  193.08    5.33
  14   3  -1   50.72    2.76
  14  -3  -1   53.51    2.73
 -13  -3   1   22.60    1.64
 -13   3   1   22.22    1.66
  13   3  -1   22.29    1.81
  13  -3  -1   19.81    1.66
  12  -3  -1    5.36    0.84
 -12   3   1    5.31    0.81
  12   3  -1    4.58    0.80
 -12  -3   1    5.71    0.82
 -11  -3   1  118.40    3.29
 -11   3   1  118.12    3.36
 -10   3   1 1211.02    9.94
 -10  -3   1 1217.06    9.75
  -9  -3   1  181.80    3.48
  -9   3   1  182.01    3.59
   8  -3  -1  369.36    4.79
  -8  -3   1  369.31    4.51
  -8   3   1  367.33    4.73
  -7  -3   1    4.47    0.48
   7  -3  -1    4.73    0.53
  -7   3   1    4.25    0.50
  -6   3   1  604.81    2.68
   6  -3  -1  606.23    5.27
  -6  -3   1  603.64    4.68
  -5  -3   1    9.45    0.53
   5  -3  -1    9.71    0.63
   4  -3  -1  233.30    2.75
  -4  -3   1  231.43    2.22
   4   3  -1  232.88    2.59
   3   3  -1  401.17    3.19
  -3  -3   1  412.04    2.46
  -2  -3   1    3.24    0.17
   2  -3  -1    3.06    0.30
   1  -3  -1  484.58    3.19
   1   3  -1  497.18    2.97
   0  -3  -1  597.46    3.48
   0   3  -1  608.51    3.25
  -1  -3  -1   73.36    1.33
  -2  -3  -1  334.39    2.99
  -2   3  -1  339.93    2.45
  -3  -3  -1  555.21    4.16
  -3   3  -1  564.49    3.70
  -4  -3  -1 1078.48    6.33
  -4   3  -1 1077.29    5.79
  -5  -3  -1  372.90    4.05
  -5   3  -1  367.10    3.74
  -6  -3  -1   77.10    2.02
   6   3   1   79.56    1.08
  -6   3  -1   74.73    1.87
  -7   3  -1  830.81    6.80
  -7  -3  -1  827.37    7.22
  -8   3  -1    0.30    0.25
  -8  -3  -1    0.31    0.28
  -9  -3  -1  103.35    2.99
  -9   3  -1  100.68    2.80
 -10   3  -1   37.21    1.85
 -10  -3  -1   37.94    1.96
 -11   3  -1   56.60    2.46
 -11  -3  -1   54.54    2.49
 -12  -3  -1    0.75    0.46
  12  -3   1    0.19    0.37
  12   3   1    0.86    0.43
 -12   3  -1    0.25    0.38
  12  -3   1    0.21    0.39
  13  -3   1    0.07    0.44
  13  -3   1    0.79    0.50
  13   3   1    1.04    0.45
 -13   3  -1    1.19    0.51
 -13  -3  -1    1.46    0.63
  14  -3   1   79.13    3.23
  14   3   1   77.17    3.26
  15   3   1  176.71    4.87
  15  -3   1  175.43    4.81
  16   3   1   63.82    2.85
  16  -3   1   60.95    2.77
  17  -3   1   15.62    1.33
  17   3   1   17.94    1.43
  18   3   1   20.02    1.33
  18  -3   1   21.32    1.36
  19  -3   1   14.11    0.91
  19   3   1   16.81    1.00
  19  -4  -1    4.66    0.59
  19   4  -1    4.44    0.60
  18  -4  -1   31.54    1.68
  18   4  -1   32.54    1.76
  17  -4  -1   15.55    1.36
  17   4  -1   18.86    1.53
  16  -4  -1  303.69    6.21
  16   4  -1  320.66    6.59
  15  -4  -1   77.28    3.25
  15   4  -1   76.41    3.35
  14  -4  -1    2.27    0.71
  14   4  -1    2.31    0.70
  13  -4  -1   28.22    1.94
 -13   4   1   27.65    1.86
  13   4  -1   27.43    2.00
 -12   4   1   57.63    2.54
  12  -4  -1   55.74    2.59
  12   4  -1   53.89    2.65
 -11  -4   1   75.45    2.64
 -11   4   1   77.00    2.75
 -10  -4   1    7.34    0.79
 -10   4   1    9.48    0.92
  -9  -4   1   59.52    2.02
  -9   4   1   61.93    2.15
  -8   4   1  475.76    5.50
   8  -4  -1  475.83    5.55
  -8  -4   1  467.07    5.16
   7  -4  -1  271.12    3.91
  -7  -4   1  270.08    3.55
  -6  -4   1    1.02    0.24
   6  -4  -1    0.48    0.24
  -6   4   1    0.53    0.13
   5  -4  -1  292.02    3.47
  -5  -4   1  288.71    2.96
   4   4  -1  428.82    3.61
   4  -4  -1  430.68    3.88
  -4  -4   1  436.29    3.16
   3   4  -1   32.17    0.94
  -3  -4   1   32.94    0.74
   3   4  -1   34.20    0.88
   3  -4  -1   33.91    1.02
  -2  -4   1 3832.13    6.44
   2  -4  -1 3804.62   10.02
   1   4  -1  284.44    2.49
   1  -4  -1  274.43    2.63
   0   4  -1  137.89    1.73
   0  -4  -1  136.09    1.81
  -1   4  -1  199.98    2.08
  -2   4  -1 7812.67   13.11
  -2  -4  -1 7985.74   15.41
  -3  -4  -1  237.54    2.88
  -3   4  -1  242.05    2.49
  -4  -4  -1  211.35    2.94
  -4   4  -1  212.46    2.64
  -5   4  -1   12.02    0.71
  -5  -4  -1   11.24    0.75
   6   4   1  514.33    3.25
  -6   4  -1  506.40    4.91
  -7   4  -1  139.89    2.82
  -7  -4  -1  133.70    2.98
  -8  -4  -1  136.68    3.25
  -8   4  -1  140.47    3.09
  -9   4  -1   20.89    1.30
  -9  -4  -1   20.95    1.39
 -10  -4  -1    3.02    0.61
 -10   4  -1    2.87    0.55
 -11   4  -1   30.56    1.83
 -11  -4  -1   31.79    1.93
  12  -4   1    3.78    0.74
  12   4   1    4.28    0.81
 -12   4  -1    3.32    0.73
  12  -4   1    2.95    0.69
 -12  -4  -1    3.00    0.73
 -13  -4  -1   87.35    3.52
  13   4   1   88.08    3.40
  13  -4   1   87.18    3.30
 -13   4  -1   83.68    3.36
  13  -4   1   89.54    3.35
  14  -4   1  138.65    4.09
  14   4   1  136.42    4.32
  14  -4   1  141.76    4.26
  15   4   1   13.71    1.40
  15  -4   1   13.35    1.36
  15  -4   1   12.81    1.25
  16   4   1    1.45    0.55
  16  -4   1    0.72    0.52
  17  -4   1    0.61    0.40
  17   4   1    1.02    0.45
  18  -4   1    0.75    0.39
  18   4   1    0.78    0.36
  19   4   1    5.27    0.56
  19  -4   1    5.00    0.54
  19   5  -1   24.24    1.21
  19  -5  -1   25.21    1.15
  18  -5  -1    8.46    0.86
  18   5  -1    7.99    0.89
  17  -5  -1    1.69    0.51
  17   5  -1    0.63    0.44
  16   5  -1   32.45    2.10
  16  -5  -1   30.63    1.96
  15   5  -1  606.78    9.27
  15  -5  -1  627.33    9.05
  14  -5  -1    1.63    0.59
  14   5  -1    1.93    0.68
  14  -5  -1    2.50    0.69
 -13   5   1   16.97    1.50
  13  -5  -1   18.60    1.57
  13  -5  -1   17.86    1.56
  13   5  -1   17.71    1.62
 -12   5   1   41.17    2.17
  12  -5  -1   36.74    2.14
  12   5  -1   38.79    2.29
  12  -5  -1   37.99    2.15
 -11  -5   1   13.30    1.14
 -11   5   1   12.08    1.15
 -10   5   1  209.72    4.32
 -10  -5   1  210.25    4.15
  -9   5   1  129.19    3.18
  -9  -5   1  133.80    3.05
   8  -5  -1  398.66    5.19
  -8  -5   1  397.09    4.81
  -8   5   1  412.31    5.25
   7  -5  -1  113.05    2.59
  -7  -5   1  113.18    2.34
  -6  -5   1   22.31    0.95
   6  -5  -1   24.27    1.13
  -6   5   1   24.83    0.76
   5   5  -1 1498.65    7.48
  -5  -5   1 1488.73    6.81
   4   5  -1  236.71    2.77
   4   5  -1  242.85    2.61
  -4  -5   1  239.11    2.43
   4  -5  -1  242.12    3.03
   3   5  -1    2.67    0.29
  -3  -5   1    2.38    0.23
   3   5  -1    2.66    0.30
   3  -5  -1    3.02    0.35
   2  -5  -1   15.46    0.71
   2   5  -1   14.89    0.64
   1   5  -1 2029.11    7.21
   1  -5  -1 2068.76    7.57
   0  -5  -1  737.20    4.53
   0   5  -1  741.48    4.36
   1  -5   1    0.63    0.11
  -1   5  -1    0.26    0.15
  -1  -5  -1    0.36    0.17
  -2   5  -1 9942.49   16.18
  -2  -5  -1 9999.00   19.10
  -3   5  -1   79.01    1.43
  -3  -5  -1   72.94    1.70
  -4   5  -1   23.81    0.92
  -4  -5  -1   23.75    1.05
  -5  -5  -1  165.53    2.94
  -5   5  -1  167.12    2.66
  -6   5  -1  117.53    2.44
   6   5   1  120.95    1.79
  -6  -5  -1  119.58    2.68
  -7   5  -1   81.89    2.21
  -7  -5  -1   84.15    2.43
  -8  -5  -1   76.25    2.48
  -8   5  -1   75.91    2.30
  -9  -5  -1  128.45    3.49
  -9   5  -1  132.35    3.29
 -10   5  -1   23.95    1.53
 -10  -5  -1   25.22    1.65
 -11  -5  -1    1.15    0.48
  11  -5   1    1.44    0.55
 -11   5  -1    0.97    0.38
 -12   5  -1   38.54    2.19
 -12  -5  -1   37.39    2.25
  12   5   1   41.64    2.28
  12  -5   1   40.15    2.27
  12  -5   1   39.82    2.17
  13  -5   1    1.60    0.62
 -13  -5  -1    0.65    0.56
  13  -5   1    0.87    0.45
  13   5   1    1.46    0.52
  14  -5   1  180.77    4.74
  14  -5   1  185.30    4.85
  14   5   1  182.87    4.93
  15  -5   1  198.87    4.76
  15   5   1  190.44    4.96
  15  -5   1  195.42    4.92
  16  -5   1    1.25    0.42
  16  -5   1    0.98    0.52
  16   5   1    0.60    0.42
  17   5   1   40.24    2.01
  17  -5   1   40.31    1.99
  18  -5   1  124.59    3.02
  18   5   1  124.83    3.03
  19  -5   1   19.06    0.92
  19   5   1   18.85    0.90
  19   6  -1  104.41    2.27
  18  -6  -1   16.44    1.10
  18   6  -1   15.83    1.15
  17   6  -1    8.37    0.98
  17  -6  -1    8.09    0.92
  17  -6  -1    7.61    0.81
  16  -6  -1  137.93    3.97
  16   6  -1  129.40    4.05
  15  -6  -1   25.75    1.84
  15   6  -1   24.13    1.85
  15  -6  -1   24.52    1.70
  14  -6  -1    2.13    0.59
  14  -6  -1    1.70    0.63
  14   6  -1    1.78    0.62
 -13   6   1  222.42    5.33
  13  -6  -1  214.18    5.20
  13   6  -1  213.64    5.47
  13  -6  -1  217.30    5.31
  12  -6  -1  168.56    4.67
 -12   6   1  179.34    4.59
  12  -6  -1  177.98    4.59
  12   6  -1  171.46    4.79
 -11   6   1    8.50    0.97
 -10   6   1   29.18    1.67
  -9  -6   1   59.68    2.07
   9  -6  -1   61.18    2.23
  -9   6   1   57.19    2.17
   8  -6  -1  143.95    3.21
  -8  -6   1  140.63    2.93
  -7  -6   1  227.25    3.40
   7  -6  -1  216.55    3.68
  -6  -6   1  120.35    2.26
   6  -6  -1  124.20    2.60
  -6   6   1  127.01    1.91
  -5  -6   1  314.07    3.29
   5   6  -1  310.48    3.49
   4   6  -1   17.47    0.78
  -4  -6   1   15.81    0.66
   4   6  -1   18.62    0.80
   4  -6  -1   17.43    0.86
   3   6  -1  154.59    2.21
   3   6  -1  156.93    2.25
   3  -6  -1  157.29    2.41
   2  -6  -1  456.10    3.92
   2   6  -1  434.16    3.70
   1   6  -1  168.18    2.29
   1  -6  -1  171.80    2.34
  -1  -6   1  164.14    1.10
   0   6  -1   52.77    1.28
   0  -6   1   50.85    0.60
   0  -6  -1   53.03    1.30
   1  -6   1  676.84    2.84
  -1  -6  -1  675.51    4.75
  -1   6  -1  670.10    4.56
  -2   6  -1 2676.82    9.08
   2  -6   1 2647.47    7.03
  -3   6  -1  636.68    4.52
   3  -6   1  633.83    3.94
  -4  -6  -1  846.63    6.45
  -5   6  -1    0.77    0.25
  -5  -6  -1    0.65    0.29
  -6  -6  -1    5.64    0.65
  -6   6  -1    5.46    0.56
   6   6   1    6.73    0.48
  -7   6  -1  117.52    2.70
  -7  -6  -1  119.08    3.00
  -8  -6  -1   19.61    1.32
  -8   6  -1   21.26    1.25
  -9  -6  -1   15.45    1.25
  -9   6  -1   15.52    1.15
 -10  -6  -1    0.17    0.31
 -10   6  -1    0.17    0.25
  11   6   1   23.21    1.66
  11  -6   1   23.66    1.62
 -11   6  -1   24.19    1.67
 -11  -6  -1   21.72    1.67
  11  -6   1   23.30    1.73
 -12  -6  -1   36.40    2.26
  12  -6   1   40.44    2.34
 -12   6  -1   41.42    2.27
  12  -6   1   36.11    2.07
  12   6   1   39.39    2.22
  13   6   1  274.22    5.95
  13  -6   1  275.65    6.04
  13  -6   1  281.78    5.80
  14  -6   1   71.14    2.99
  14   6   1   76.29    3.17
  14  -6   1   72.81    3.07
  15  -6   1  167.62    4.43
  15  -6   1  167.93    4.45
  15   6   1  160.87    4.49
  16  -6   1    1.44    0.53
  16  -6   1    1.07    0.40
  16   6   1    0.54    0.36
  17  -6   1   15.00    1.18
  17   6   1   15.49    1.22
  18   6   1   10.91    0.88
  18  -6   1   10.20    0.84
  18  -7  -1    0.54    0.27
  18   7  -1    0.44    0.29
  17  -7  -1    6.36    0.78
  17  -7  -1    6.53    0.76
  17   7  -1    6.20    0.82
  16  -7  -1    1.63    0.48
  16   7  -1    0.33    0.43
  16  -7  -1    0.55    0.43
  15  -7  -1   51.16    2.47
  15  -7  -1   50.83    2.46
  15   7  -1   45.54    2.47
  14   7  -1    4.67    0.88
  14  -7  -1    6.32    0.98
  14  -7  -1    4.58    0.85
  13  -7  -1   19.51    1.66
  13   7  -1   17.77    1.60
  13  -7  -1   16.83    1.49
  12   7  -1   47.22    2.54
 -12   7   1   49.91    2.46
  12  -7  -1   48.92    2.58
  12  -7  -1   47.20    2.38
  11   7  -1   13.67    1.33
 -11   7   1   13.16    1.23
  11  -7  -1   15.51    1.45
 -10   7   1   40.85    2.01
  -9   7   1    9.57    0.94
   9  -7  -1    9.85    0.94
   8  -7  -1   21.99    1.30
  -8  -7   1   20.95    1.16
  -7  -7   1    0.02    0.18
   7  -7  -1    0.44    0.28
   6  -7  -1  127.71    2.71
  -6   7   1  135.74    2.16
  -6  -7   1  128.83    2.39
   5   7  -1  333.15    3.68
   5  -7  -1  339.68    4.16
  -5  -7   1  327.28    3.43
   5   7  -1  332.35    3.62
   4  -7  -1  207.54    3.04
   4   7  -1  209.34    2.92
   4   7  -1  208.42    2.75
   3  -7  -1  127.25    2.29
   3   7  -1  125.56    2.07
   3   7  -1  128.16    2.20
  -2  -7   1   83.15    1.11
   2   7  -1   83.95    1.77
   2  -7  -1   82.27    1.77
   1   7  -1  783.47    5.33
   1  -7  -1  794.52    5.33
   0  -7  -1   84.27    1.74
   0   7  -1   84.14    1.74
   0  -7   1   80.62    0.86
   1  -7   1  819.94    3.36
  -1  -7  -1  832.34    5.54
  -1   7  -1  839.30    5.50
   2  -7   1 1040.30    4.56
  -2  -7  -1 1048.56    6.45
  -2   7  -1 1057.62    6.16
   3  -7   1  121.12    1.80
  -3   7  -1  130.32    2.22
  -4   7  -1   95.60    1.89
  -4  -7  -1  100.77    2.36
  -5   7  -1  988.42    6.85
  -5  -7  -1  970.77    7.67
  -6  -7  -1  190.27    3.67
   6   7   1  201.59    2.78
  -6   7  -1  195.27    3.30
  -7   7  -1   32.50    1.47
  -7  -7  -1   30.19    1.58
  -8  -7  -1  530.36    6.95
  -8   7  -1  544.13    6.41
  -9  -7  -1  133.73    3.71
  -9   7  -1  137.48    3.47
 -10  -7  -1  115.63    3.66
 -10   7  -1  116.36    3.41
 -11   7  -1    3.23    0.66
  11  -7   1    3.06    0.67
  11  -7   1    3.85    0.78
  11   7   1    2.65    0.60
 -11  -7  -1    2.82    0.67
 -12  -7  -1    1.89    0.77
  12  -7   1    1.48    0.64
  12   7   1    0.93    0.47
  12  -7   1    0.60    0.40
 -12   7  -1    1.37    0.52
  13  -7   1   30.79    1.92
  13   7   1   33.73    2.09
  13  -7   1   33.76    2.18
  14   7   1   58.20    2.72
  14  -7   1   59.46    2.68
  14  -7   1   58.87    2.80
  15   7   1    0.19    0.39
  15  -7   1    0.82    0.44
  15  -7   1    0.55    0.40
  16  -7   1   26.98    1.67
  16   7   1   27.29    1.69
  16  -7   1   25.56    1.60
  17  -7   1   75.43    2.28
  17  -7   1   75.35    2.47
  17   7   1   76.38    2.49
  18  -7   1   33.28    1.36
  18   7   1   32.83    1.32
  18  -8  -1   36.06    1.31
  18   8  -1   41.74    1.55
  17  -8  -1    1.40    0.45
  17   8  -1    0.64    0.37
  16  -8  -1   17.86    1.31
  16   8  -1   18.66    1.44
  16  -8  -1   18.85    1.38
  15   8  -1  117.06    3.83
  15  -8  -1  121.80    3.81
  15  -8  -1  121.12    3.64
  14  -8  -1   27.55    1.94
  14   8  -1   29.37    2.00
  14  -8  -1   28.70    1.85
  13  -8  -1    6.32    0.99
  13   8  -1    6.59    0.99
  12  -8  -1   45.60    2.55
 -12   8   1   44.41    2.35
  12   8  -1   42.99    2.40
  11  -8  -1    1.23    0.55
 -11   8   1    1.76    0.52
  11   8  -1    0.56    0.41
 -10   8   1   30.56    1.79
  -9   8   1   93.03    2.93
   9  -8  -1   88.95    2.80
   8  -8  -1   95.76    2.74
   7  -8  -1    3.83    0.55
  -6   8   1  244.36    3.15
   6  -8  -1  238.02    3.81
  -6  -8   1  237.69    3.36
   5   8  -1    3.31    0.41
   5   8  -1    3.90    0.44
   5  -8  -1    3.10    0.46
  -5   8   1    3.70    0.41
   4  -8  -1   11.46    0.76
   4   8  -1   12.30    0.76
   4   8  -1   11.41    0.69
   3   8  -1   12.22    0.68
   3  -8  -1   12.98    0.78
   3   8  -1   11.27    0.72
   2  -8  -1  257.41    3.27
  -2  -8   1  260.41    2.03
   2   8  -1  259.02    3.35
   1  -8  -1  436.35    4.17
   1   8  -1  435.71    4.30
   0  -8   1   64.78    0.84
   0   8  -1   69.08    1.72
   0  -8  -1   70.38    1.69
  -1  -8  -1  505.40    4.55
   1  -8   1  502.16    2.77
  -1   8  -1  500.49    4.58
   2  -8   1   82.31    1.33
  -2   8  -1   82.25    1.87
  -2  -8  -1   81.32    1.91
   3  -8   1   66.50    1.38
  -3   8  -1   67.74    1.72
  -4   8  -1   31.65    1.20
   4  -8   1    2.02    0.29
  -5  -8  -1    1.19    0.36
   5   8   1    1.96    0.33
   6   8   1  302.38    3.66
  -6   8  -1  295.05    4.21
  -6  -8  -1  294.49    4.72
  -7  -8  -1    8.90    0.89
  -7   8  -1   10.93    0.88
  -8  -8  -1   62.67    2.43
  -8   8  -1   68.08    2.32
  -9  -8  -1   17.21    1.38
  -9   8  -1   18.57    1.31
  10  -8   1    6.34    0.93
 -10   8  -1    5.98    0.83
 -10  -8  -1    6.42    0.90
 -11   8  -1  182.27    4.60
  11  -8   1  183.63    4.98
  11  -8   1  187.97    4.44
  12   8   1   95.55    3.41
 -12   8  -1   94.33    3.46
  12  -8   1   97.53    3.31
  12  -8   1   96.57    3.70
  13  -8   1   17.38    1.45
  13  -8   1   18.20    1.65
  13   8   1   16.74    1.47
  14  -8   1   97.73    3.34
  14  -8   1   96.41    3.60
  14   8   1  100.30    3.49
  15   8   1    2.91    0.66
  15  -8   1    2.63    0.66
  15  -8   1    2.75    0.67
  16  -8   1    9.47    0.96
  16  -8   1    9.05    0.97
  16   8   1    9.93    0.98
  17  -8   1   16.39    1.09
  17  -8   1   16.20    1.07
  17   8   1   17.02    1.10
  18  -9  -1    7.55    0.61
  17   9  -1    0.45    0.29
  17  -9  -1   -0.08    0.28
  17  -9  -1    0.42    0.26
  16   9  -1   -0.10    0.30
  16  -9  -1   -0.15    0.36
  15  -9  -1   37.27    2.13
  15   9  -1   35.62    2.04
  14   9  -1  115.45    3.81
  14  -9  -1  104.69    3.75
  13   9  -1  143.91    4.35
  13  -9  -1  141.63    4.50
  12   9  -1   34.59    2.16
  12  -9  -1   36.11    2.32
 -11   9   1   27.00    1.81
  11   9  -1   21.89    1.70
  11  -9  -1   24.39    1.88
 -10   9   1    0.60    0.32
  10  -9  -1    0.06    0.51
  -9   9   1   11.42    1.08
   9  -9  -1   13.77    1.14
   8  -9  -1   64.69    2.31
   7  -9  -1  235.87    4.14
  -6   9   1   24.46    1.08
   6  -9  -1   26.36    1.33
  -5   9   1  916.01    6.64
   5   9  -1  897.72    6.96
   5  -9  -1  890.89    7.20
   4   9  -1   45.18    1.38
   4   9  -1   48.35    1.61
   4  -9  -1   44.21    1.52
   3   9  -1   11.91    0.79
   3   9  -1   10.82    0.66
   2  -9  -1    3.51    0.44
   2   9  -1    5.75    0.57
   1  -9  -1  612.29    5.20
   1   9  -1  598.86    5.42
   0  -9  -1    7.73    0.61
   0   9  -1    8.35    0.67
  -1  -9  -1    9.84    0.69
  -1   9  -1    9.50    0.70
  -2  -9  -1  185.12    3.00
   2  -9   1  177.15    2.02
  -2   9  -1  184.86    2.99
  -3   9  -1   11.45    0.78
  -3  -9  -1   11.88    0.83
   3  -9   1   12.14    0.61
  -4   9  -1  824.05    6.44
   5   9   1  192.54    3.15
  -5   9  -1  190.55    3.24
   6   9   1  116.85    2.45
  -6  -9  -1  115.16    3.10
  -6   9  -1  113.71    2.69
  -7  -9  -1   54.73    2.27
  -7   9  -1   57.00    2.04
  -8  -9  -1   36.20    1.93
  -8   9  -1   44.48    1.93
  -9  -9  -1    5.15    0.81
  -9   9  -1    4.67    0.69
  10  -9   1   80.08    3.29
 -10  -9  -1   79.98    3.15
 -10   9  -1   80.07    2.93
  10   9   1   83.32    2.92
  11   9   1  133.07    3.74
  11  -9   1  137.20    4.42
 -11   9  -1  131.36    3.95
  12  -9   1    7.79    1.13
  13  -9   1   15.79    1.34
  13  -9   1   12.58    1.39
  14  -9   1   57.46    2.80
  14  -9   1   59.67    2.53
  15  -9   1    1.40    0.44
  15  -9   1    1.09    0.49
  15   9   1    1.69    0.46
  16  -9   1   32.01    1.75
  16  -9   1   30.48    1.57
  17  -9   1   51.62    1.84
  18 -10  -1   29.06    1.08
  17 -10  -1   15.36    1.05
  17 -10  -1   14.37    0.98
  16 -10  -1    2.19    0.54
  15 -10  -1   11.49    1.19
  15  10  -1   11.28    1.11
  14  10  -1   30.68    1.89
  14 -10  -1   32.58    2.12
  13 -10  -1   54.41    2.82
  12 -10  -1   13.31    1.46
  11 -10  -1   47.92    2.67
 -11  10   1   47.45    2.41
 -10  10   1  144.02    4.03
  10  10  -1  143.19    3.69
  10 -10  -1  142.44    4.46
   9 -10  -1   10.68    1.03
  -9  10   1   11.69    1.13
   8 -10  -1   79.08    2.61
   7 -10  -1    0.52    0.29
  -6  10   1   43.25    1.54
   6 -10  -1   41.68    1.70
  -5  10   1  137.35    2.76
   5  10  -1  132.29    2.49
   5 -10  -1  137.62    2.93
   5  10  -1  137.73    2.88
   4  10  -1    4.86    0.48
  -4  10   1    4.42    0.53
   3  10  -1  761.45    6.64
   3  10  -1  761.50    5.59
   2 -10  -1   14.21    0.86
   2  10  -1   13.19    0.89
   1 -10  -1  358.56    4.15
   1  10  -1  350.83    4.43
   0 -10  -1   10.10    0.72
   0  10  -1    8.68    0.73
  -1  10  -1  161.68    2.99
  -1 -10  -1  161.84    2.86
  -2 -10  -1   10.22    0.77
  -2  10  -1    9.65    0.75
  -3  10  -1   66.15    1.96
  -3 -10  -1   60.09    1.89
  -4  10  -1  363.21    4.59
   4  10   1  349.10    4.54
  -4 -10  -1  349.56    4.67
   5  10   1  296.57    4.19
  -5  10  -1  298.80    4.21
   6  10   1  409.90    4.91
  -6  10  -1  404.43    5.21
  -7  10  -1  318.06    4.96
  -8  10  -1   28.00    1.56
  -8 -10  -1   24.32    1.64
  -9  10  -1    0.61    0.35
   9 -10   1   -0.18    0.41
  10  10   1  127.74    3.70
  10 -10   1  120.55    4.13
 -10  10  -1  129.87    3.79
 -11  10  -1    2.03    0.58
  11  10   1    2.19    0.56
  11 -10   1    1.20    0.63
  12 -10   1   21.74    1.83
  13 -10   1    2.30    0.68
  14 -10   1   67.69    3.01
  15 -10   1   31.82    1.92
  16 -10   1    3.94    0.66
  17 -10   1   33.46    1.43
  17 -11  -1    1.13    0.32
  17 -11  -1    1.47    0.40
  16 -11  -1   11.55    1.04
  15 -11  -1    2.43    0.63
  14 -11  -1    2.20    0.66
  13 -11  -1   15.83    1.58
  12 -11  -1  136.26    4.55
  11  11  -1    1.12    0.50
  11 -11  -1    0.44    0.56
  10  11  -1    8.11    0.93
  10 -11  -1    8.28    1.19
 -10  11   1    6.67    0.92
   9 -11  -1    3.04    0.81
   9  11  -1    1.76    0.49
  -9  11   1    3.01    0.64
   8 -11  -1   74.77    2.58
   7 -11  -1   71.84    2.41
   6 -11  -1   82.31    2.47
  -6  11   1   83.71    2.31
  -5  11   1   86.90    2.35
   5 -11  -1   84.11    2.36
   5  11  -1   87.57    2.46
   4 -11  -1  246.02    3.84
  -4  11   1  243.86    3.93
   4  11  -1  249.52    4.15
  -3  11   1  277.34    4.21
   3  11  -1  280.40    3.52
   3  11  -1  277.63    4.32
   2  11  -1   67.56    2.12
  -2  11   1   69.13    2.11
   2 -11  -1   67.58    1.90
   1  11  -1   34.48    1.49
   1 -11  -1   30.76    1.27
   0 -11  -1   78.57    2.04
   0  11  -1   80.46    2.26
  -1 -11  -1  211.59    3.36
  -1  11  -1  208.50    3.62
  -2 -11  -1   23.32    1.16
   2  11   1   22.18    1.24
  -2  11  -1   24.14    1.26
  -3  11  -1   24.14    1.28
  -3 -11  -1   21.51    1.17
   3  11   1   23.54    1.26
  -4 -11  -1  849.87    7.59
  -4  11  -1  858.18    7.48
  -5 -11  -1  182.05    3.70
   5  11   1  184.15    3.51
  -5  11  -1  183.28    3.40
   6  11   1  297.23    4.48
  -6  11  -1  290.40    4.58
  -7  11  -1   27.14    1.50
  -8  11  -1    9.66    0.95
  -9  11  -1    8.79    0.97
   9  11   1    9.40    1.05
   9 -11   1    8.68    1.13
 -10  11  -1   36.15    2.03
  10 -11   1   35.33    2.31
  10  11   1   34.85    1.99
  11 -11   1  139.26    4.57
  11  11   1  138.24    3.93
  12 -11   1   72.43    3.30
  13 -11   1   13.34    1.44
  14 -11   1   37.23    2.22
  15 -11   1   66.94    2.70
  16 -11   1   46.60    1.99
  17 -11   1    7.54    0.67
  17 -12  -1   68.37    1.88
  17 -12  -1   70.51    2.00
  16 -12  -1   11.52    1.00
  15 -12  -1    0.58    0.41
  14 -12  -1    3.05    0.75
  13 -12  -1   27.88    2.03
  12  12  -1   67.20    2.55
  12 -12  -1   68.72    3.24
  11 -12  -1   22.20    1.90
  11  12  -1   20.65    1.47
  10 -12  -1  128.49    4.41
 -10  12   1  129.76    3.96
  10  12  -1  132.40    3.68
  -9  12   1    9.93    1.10
   9  12  -1   10.70    1.05
   9 -12  -1    9.97    1.27
   8 -12  -1  115.08    3.23
   8  12  -1  110.81    3.29
   8 -12  -1  116.74    4.00
   7 -12  -1    8.83    0.89
  -6  12   1  183.43    3.61
   6 -12  -1  174.95    3.64
  -5  12   1   84.07    2.46
   5  12  -1   87.58    2.60
   5 -12  -1   85.04    2.44
   4 -12  -1   52.04    1.83
  -4  12   1   51.04    1.92
   4  12  -1   49.76    1.98
   3 -12  -1    7.92    0.70
  -3  12   1    8.74    0.81
   3  12  -1    8.94    0.86
   2  12  -1  166.18    3.53
   2 -12  -1  164.86    3.07
  -2  12   1  166.91    3.47
   1 -12  -1   79.59    2.10
   1  12  -1   78.31    2.40
  -1  12   1   81.73    2.43
   0  12   1  107.32    2.79
   0 -12  -1  102.89    2.40
   0  12  -1  103.66    2.73
  -1  12  -1  179.18    3.60
  -1 -12  -1  183.18    3.20
   1  12   1  181.64    3.64
  -2 -12  -1   87.02    2.29
   2  12   1   88.67    2.57
  -2  12  -1   89.53    2.58
   3  12   1  727.41    7.34
  -3  12  -1  747.07    7.44
   4  12   1    0.62    0.32
  -4  12  -1    0.56    0.29
  -5  12  -1   28.92    1.41
   5  12   1   27.47    1.46
  -6  12  -1    4.29    0.60
   6  12   1    5.41    0.67
  -7  12  -1  130.63    3.34
  -8 -12  -1   78.72    2.73
   8 -12   1   78.99    3.29
   8  12   1   79.92    2.94
  -8  12  -1   82.20    2.79
   9  12   1  178.39    4.48
  -9  12  -1  186.69    4.41
   9 -12   1  178.01    5.09
 -10  12  -1  229.70    5.13
  10  12   1  240.35    5.24
  10 -12   1  242.39    6.04
  11  12   1    2.40    0.67
  11 -12   1    2.32    0.78
  12 -12   1  232.41    5.89
  13 -12   1    4.88    0.92
  14 -12   1   51.22    2.53
  15 -12   1    9.13    1.02
  16 -12   1  245.64    4.34
  17 -12   1    0.34    0.23
  17 -13  -1    1.47    0.31
  16 -13  -1    0.91    0.34
  15 -13  -1   11.35    1.09
  14 -13  -1   11.73    1.23
  13 -13  -1    1.00    0.56
  12  13  -1   34.01    1.83
  12 -13  -1   31.09    2.22
  11 -13  -1   62.65    3.12
  11  13  -1   61.92    2.53
  10 -13  -1    8.74    1.21
  10  13  -1   10.42    1.10
   9  13  -1    0.29    0.38
  -9  13   1    0.46    0.41
   8 -13  -1   17.33    1.61
   8  13  -1   16.23    1.30
   7  13  -1  141.06    3.73
   7 -13  -1  133.25    4.25
  -6  13   1    8.65    0.85
  -5  13   1    0.28    0.27
   4  13  -1    4.16    0.63
  -4  13   1    2.62    0.49
   3  13  -1  335.00    5.36
  -3  13   1  319.10    5.06
   2  13  -1   39.69    1.86
  -2  13   1   40.08    1.81
   1  13  -1   21.76    1.37
  -1  13   1   18.33    1.23
   0  13  -1   19.35    1.29
   0  13   1   20.00    1.29
  -1  13  -1    0.33    0.28
   1  13   1    0.62    0.30
   2  13   1   32.51    1.65
  -2  13  -1   37.34    1.78
   3  13   1    7.24    0.82
  -3  13  -1   11.22    0.98
   4  13   1   44.29    1.93
  -5  13  -1    0.75    0.29
   5  13   1    0.34    0.27
   6  13   1   27.41    1.52
  -6  13  -1   27.80    1.50
  -7  13  -1    2.98    0.59
   7 -13   1    1.86    0.58
   7  13   1    2.34    0.58
  -7 -13  -1    2.78    0.59
   8 -13   1    3.25    0.83
  -8  13  -1    3.09    0.60
   8  13   1    4.06    0.78
  -8 -13  -1    3.49    0.65
   9  13   1   19.93    1.54
  -9  13  -1   21.35    1.52
   9 -13   1   20.76    1.80
  -9 -13  -1   19.88    1.42
  10  13   1   19.58    1.52
  10 -13   1   17.08    1.67
  11  13   1   20.18    1.54
  11 -13   1   22.53    1.91
  12 -13   1    0.60    0.55
  13 -13   1    1.04    0.65
  14 -13   1    4.31    0.83
  15 -13   1   29.38    1.68
  16 -13   1    0.83    0.35
  16 -14  -1    7.38    0.72
  15 -14  -1   53.32    2.19
  14 -14  -1    2.14    0.62
  13  14  -1   65.56    2.32
  13 -14  -1   66.89    2.97
  12 -14  -1   32.14    2.18
  12  14  -1   36.79    1.89
  11  14  -1    1.62    0.53
  11 -14  -1    1.07    0.66
  10 -14  -1   28.46    2.14
  10  14  -1   27.60    1.74
   9  14  -1  389.58    6.52
  -9  14   1  388.86    6.90
   9 -14  -1  404.83    7.87
   8 -14  -1  363.61    7.32
  -8  14   1  364.52    6.39
   8  14  -1  366.66    6.25
   7 -14  -1   41.65    2.45
   7  14  -1   44.00    2.14
  -7  14   1   42.92    2.35
   6 -14  -1    0.77    0.52
  -6  14   1    0.49    0.50
  -6  14   1    1.53    0.45
   6  14  -1    0.02    0.49
  -5  14   1    4.55    0.68
  -4  14   1   14.93    1.18
   4  14  -1   12.30    1.11
   3  14  -1    5.97    0.78
  -3  14   1    2.41    0.52
   2  14  -1    1.29    0.42
  -2  14   1    0.83    0.34
  -1  14   1   64.87    2.43
   1  14  -1   70.75    2.59
   0  14  -1  100.46    3.09
   0  14   1  100.97    3.01
   1  14   1  101.40    3.06
  -1  14  -1  103.09    3.11
   2  14   1   73.47    2.61
  -2  14  -1   74.45    2.64
  -3  14  -1   52.89    2.21
   3  14   1   50.91    2.20
   4  14   1   38.17    1.89
   5  14   1   29.82    1.76
   5  14   1   26.43    1.59
   6  14   1   32.39    1.74
  -6 -14  -1   31.97    1.82
   6 -14   1   31.59    2.07
   6  14   1   30.67    1.83
   7 -14   1   56.03    2.83
  -7 -14  -1   56.42    2.44
   7  14   1   58.23    2.56
   8 -14   1  381.73    7.45
  -8 -14  -1  365.97    6.11
   8  14   1  373.95    6.62
  -9 -14  -1  284.98    5.37
   9  14   1  291.92    5.90
   9 -14   1  296.39    6.69
  10 -14   1   57.26    2.99
  10  14   1   64.06    2.76
  11  14   1  116.02    3.62
  11 -14   1  114.09    4.14
  12 -14   1  177.92    4.99
  13 -14   1   36.28    2.16
  14 -14   1   20.29    1.49
  15 -14   1    0.83    0.38
  16 -14   1  307.08    4.19
  16 -15  -1    5.34    0.56
  15 -15  -1    5.90    0.74
  14 -15  -1   14.62    1.26
  13  15  -1    2.50    0.50
  13 -15  -1    2.88    0.72
  12 -15  -1   11.04    1.31
  12  15  -1   12.16    1.09
  11  15  -1   14.57    1.25
  11 -15  -1   15.49    1.57
  10 -15  -1   17.00    1.68
  10  15  -1   17.29    1.40
 -10  15   1   16.25    1.39
   9 -15  -1  128.67    4.45
   9  15  -1  132.49    3.85
  -9 -15   1  135.31    3.60
  -9  15   1  123.53    3.94
   8  15  -1    3.94    0.71
   8 -15  -1    4.89    0.91
  -8  15   1    6.16    0.97
   7 -15  -1   78.20    3.39
  -7  15   1   76.49    3.20
   7  15  -1   73.17    2.82
   6 -15  -1   59.05    2.86
  -6  15   1   62.64    2.90
   6  15  -1   65.19    2.63
  -5  15   1   19.27    1.63
   5 -15  -1   20.75    1.69
   5  15  -1   20.13    1.45
  -5  15   1   21.43    1.46
  -4  15   1  118.00    3.40
   4  15  -1  112.51    3.33
  -4  15   1  112.08    3.81
   3  15  -1    1.89    0.56
  -3  15   1    1.12    0.42
   2  15  -1   33.57    1.89
  -2  15   1   32.59    1.82
  -1  15   1   38.77    1.99
   1  15  -1   41.78    2.11
   0  15  -1   44.00    2.16
   0  15   1   43.97    2.11
   1  15   1  181.94    4.31
  -1  15  -1  179.16    4.28
  -2  15  -1    2.57    0.55
   2  15   1    2.36    0.56
   3  15   1   51.96    2.33
   3  15   1   51.80    2.28
   4  15   1   23.07    1.56
   4  15   1   24.34    1.61
   5  15   1   39.92    2.11
   5 -15   1   39.80    2.28
   5  15   1   40.68    2.05
   6  15   1  563.48    7.97
  -6 -15  -1  578.89    7.81
   6  15   1  591.99    7.74
   6 -15   1  577.09    8.83
  -7 -15  -1  171.84    4.29
   7 -15   1  172.50    5.00
   7  15   1  172.00    4.49
  -8 -15  -1  255.80    5.18
   8  15   1  260.14    5.58
   8 -15   1  258.65    6.19
  -9 -15  -1   22.15    1.52
   9 -15   1   24.22    1.97
   9  15   1   23.19    1.70
  10 -15   1   15.21    1.56
 -10 -15  -1   15.28    1.25
  10  15   1   15.35    1.39
  11  15   1   28.87    1.80
  11 -15   1   26.09    1.99
  12 -15   1    6.79    1.04
  13 -15   1    0.47    0.48
  14 -15   1   26.11    1.59
  15 -15   1   15.31    1.07
  16 -15   1    0.61    0.26
  15 -16  -1    0.18    0.29
  14 -16  -1   21.61    1.42
  13 -16  -1  292.66    5.67
  12  16  -1   18.48    1.29
  12 -16  -1   18.19    1.57
  11  16  -1   19.77    1.42
  11 -16  -1   18.26    1.66
 -10  16   1   39.11    2.09
  10 -16  -1   41.67    2.51
  10  16  -1   39.84    2.10
  -9  16   1   86.94    3.28
  -9 -16   1   94.12    3.03
   9 -16  -1   93.14    3.78
   9  16  -1   87.93    3.13
  -8  16   1   16.02    1.51
   8  16  -1   16.97    1.43
   8 -16  -1   18.14    1.70
   7 -16  -1  128.95    4.37
  -7  16   1  130.76    4.21
   7  16  -1  131.32    3.83
   6 -16  -1    2.80    0.73
   6  16  -1    2.03    0.46
  -6  16   1    2.82    0.75
  -5  16   1   80.57    3.34
   5 -16  -1   85.54    3.40
  -5  16   1   83.33    3.00
   5  16  -1   77.62    2.90
   4 -16  -1   24.92    1.80
   4  16  -1   24.00    1.60
  -4  16   1   23.45    1.80
  -4  16   1   25.82    1.68
  -3  16   1  319.20    6.53
   3  16  -1  320.84    5.64
  -3  16   1  327.14    5.95
  -2  16   1  209.03    4.77
   2  16  -1  206.02    4.82
  -2  16   1  206.96    5.15
   2  16  -1  206.53    4.45
   1  16  -1    1.82    0.58
   1  16  -1    2.36    0.54
  -1  16   1    1.29    0.54
  -1  16   1    1.59    0.52
   1  16  -1    1.47    0.54
   0  16   1   54.33    2.64
   0  16   1   56.59    2.50
   0  16  -1   56.05    2.62
   0  16  -1   59.64    2.61
   0  16  -1   59.50    2.31
   1  16   1    9.73    1.08
   1  16   1    9.17    0.98
   1  16   1   10.18    1.19
   2  16   1    3.19    0.63
   2  16   1    3.21    0.68
   2  16   1    4.00    0.73
   3  16   1   22.28    1.60
   3  16   1   23.25    1.57
   4  16   1   69.17    2.78
   4  16   1   75.07    2.89
   5 -16   1   40.89    2.32
   5  16   1   37.90    2.07
   5  16   1   38.59    2.11
  -6 -16  -1   13.15    1.26
   6  16   1   15.57    1.37
   6 -16   1   10.91    1.29
   6  16   1   11.97    1.23
   7 -16   1    1.80    0.63
  -7 -16  -1    2.89    0.62
   8  16   1   16.40    1.43
   8 -16   1   15.18    1.57
  -8 -16  -1   14.91    1.30
   9  16   1    5.79    0.89
   9 -16   1    4.91    0.92
  -9 -16  -1    5.38    0.78
  10  16   1   11.73    1.21
  10 -16   1   13.71    1.44
 -10 -16  -1   14.34    1.16
  11 -16   1  112.94    3.90
 -11  16  -1  112.28    3.42
 -12  16  -1   12.53    1.06
  12 -16   1   12.51    1.26
  13 -16   1    8.45    1.00
  14 -16   1   13.12    1.07
  15 -16   1    4.07    0.53
  15 -17  -1    3.34    0.43
  14 -17  -1   17.59    1.17
  13 -17  -1   29.42    1.71
  12 -17  -1   45.34    2.29
  12  17  -1   46.30    1.92
  11 -17  -1    4.86    0.87
  11  17  -1    4.70    0.73
 -10  17   1    5.07    0.79
  10 -17  -1    5.08    0.92
  10  17  -1    6.67    0.88
   9 -17  -1    4.79    0.90
  -9  17   1    6.59    0.95
   9  17  -1    5.19    0.80
  -9 -17   1    5.64    0.76
   8 -17  -1    2.85    0.76
   8  17  -1    2.90    0.65
  -8 -17   1    4.30    0.70
  -8  17   1    3.36    0.76
   7 -17  -1    9.04    1.21
  -7  17   1    9.04    1.18
   7  17  -1    9.35    1.09
  -6  17   1  122.92    4.15
   6 -17  -1  122.47    4.16
   6  17  -1  127.02    3.82
   5  17  -1  165.41    4.29
  -5  17   1  154.40    4.67
   5 -17  -1  170.41    4.79
  -5  17   1  170.81    4.45
  -4  17   1  296.45    6.46
  -4  17   1  311.92    6.00
   4  17  -1  305.79    5.74
  -3  17   1   20.04    1.55
   3  17  -1   21.97    1.64
   3  17  -1   21.50    1.53
  -3  17   1   20.66    1.72
   2  17  -1   16.60    1.30
  -2  17   1   15.26    1.35
  -2  17   1   16.88    1.57
   2  17  -1   16.32    1.44
   1  17  -1   32.59    1.81
   1  17  -1   32.91    2.04
  -1  17   1   33.12    2.00
  -1  17   1   32.95    2.15
   0  17  -1    1.49    0.57
   0  17  -1    1.37    0.53
   0  17   1    2.09    0.57
   0  17   1    2.28    0.66
   1  17   1   22.67    1.77
   1  17   1   20.31    1.45
   1  17   1   20.48    1.59
  -1  17  -1   20.82    1.68
  -2  17  -1   12.74    1.35
   2  17   1   14.08    1.33
   2  17   1   12.34    1.16
   3  17   1   27.86    1.84
   3  17   1   30.25    1.85
   4  17   1   10.99    1.17
   4  17   1   11.47    1.20
  -5 -17  -1   46.94    2.33
   5  17   1   48.87    2.40
   6  17   1    0.45    0.43
  -6 -17  -1    0.11    0.39
   6 -17   1    0.53    0.48
  -7 -17  -1  119.97    3.62
   7  17   1  125.76    3.90
   7 -17   1  122.18    4.13
   8  17   1   23.64    1.71
   8 -17   1   22.88    1.84
  -8 -17  -1   22.81    1.57
  -9  17  -1   65.59    2.91
   9 -17   1   71.19    3.16
  -9 -17  -1   69.48    2.59
   9  17   1   70.06    2.86
  10  17   1    3.78    0.70
 -10  17  -1    2.80    0.69
 -10 -17  -1    3.93    0.62
  10 -17   1    4.56    0.86
  11 -17   1    9.73    1.12
 -11  17  -1    7.61    0.90
  12 -17   1    5.20    0.82
 -12  17  -1    5.47    0.68
  13 -17   1    2.72    0.55
  14 -17   1    3.19    0.54
  14 -18  -1    2.12    0.39
  13 -18  -1   72.48    2.41
  12 -18  -1   81.07    2.83
  12  18  -1   74.83    2.29
  11 -18  -1    2.77    0.70
  11  18  -1    1.44    0.43
  10 -18  -1   23.97    1.78
 -10  18   1   22.24    1.51
  10  18  -1   21.85    1.47
  -9  18   1  178.94    4.56
   9 -18  -1  188.34    5.03
  -9 -18   1  195.08    4.13
   9  18  -1  194.72    4.50
   8 -18  -1  158.11    4.67
   8  18  -1  159.64    4.16
  -8 -18   1  165.26    4.01
  -8  18   1  151.01    4.38
   7 -18  -1   15.73    1.52
   7  18  -1   16.85    1.42
  -7  18   1   16.66    1.55
   6 -18  -1   27.42    1.97
  -6  18   1   27.63    1.99
   6  18  -1   28.71    1.85
  -5  18   1  213.75    5.49
   5  18  -1  217.87    4.96
   5 -18  -1  225.51    5.42
  -4  18   1    5.26    0.96
   4  18  -1    7.96    0.96
   3  18  -1   36.20    2.09
  -3  18   1   36.95    2.34
   3  18  -1   35.23    1.97
  -2  18   1  129.57    4.33
   2  18  -1  134.73    4.08
   2  18  -1  128.45    3.66
   1  18  -1   50.42    2.54
  -1  18   1   50.16    2.52
  -1  18   1   48.31    2.64
   1  18  -1   48.58    2.21
   0  18   1    8.12    1.08
   0  18  -1    6.76    0.99
   0  18  -1    8.83    0.96
   0  18   1    8.13    1.13
  -1  18  -1   43.28    2.45
   1  18   1   37.92    1.97
   1  18   1   41.67    2.42
  -2  18  -1  206.59    5.36
   2  18   1  207.39    4.69
  -3  18  -1   18.94    1.69
   3  18   1   17.95    1.45
   4  18   1    5.37    0.88
  -4 -18  -1    5.64    0.87
  -4  18  -1    7.23    1.13
  -5 -18  -1  140.30    4.02
  -5  18  -1  137.51    4.48
   5  18   1  136.25    4.00
   6 -18   1   44.44    2.39
   6  18   1   47.61    2.40
  -6  18  -1   42.52    2.49
  -6 -18  -1   46.58    2.31
  -7 -18  -1   28.07    1.77
  -7  18  -1   28.43    2.04
   7  18   1   26.43    1.82
   7 -18   1   29.33    1.99
  -8  18  -1   21.62    1.73
   8  18   1   22.20    1.62
   8 -18   1   19.88    1.63
  -8 -18  -1   21.13    1.48
   9 -18   1  192.21    4.92
  -9 -18  -1  191.28    4.16
   9  18   1  193.45    4.59
  -9  18  -1  190.12    4.78
  10  18   1    0.09    0.36
  10 -18   1    0.35    0.43
 -10  18  -1    0.77    0.50
 -10 -18  -1    0.48    0.33
  11 -18   1   84.85    3.00
 -11  18  -1   83.60    2.64
  12 -18   1   16.90    1.26
 -12  18  -1   16.85    1.04
  13 -18   1   79.80    2.38
  14 -18   1   31.66    1.26
  13 -19  -1   51.45    1.62
  12 -19  -1   -0.31    0.39
  11 -19  -1    1.90    0.50
  11  19  -1    2.89    0.53
  10 -19  -1   56.00    2.49
 -10  19   1   56.27    2.24
 -10 -19   1   57.54    1.94
  10  19  -1   58.87    2.29
  -9 -19   1    0.13    0.31
   9  19  -1    0.71    0.47
  -9  19   1    0.24    0.40
   9 -19  -1    0.27    0.44
   8 -19  -1    6.91    1.01
  -8  19   1    6.31    0.94
   8  19  -1    6.80    0.92
  -8 -19   1    5.75    0.76
   7  19  -1    2.28    0.60
   7 -19  -1    1.07    0.51
  -7  19   1    1.97    0.59
  -7 -19   1    2.22    0.60
   6  19  -1    0.55    0.39
  -6  19   1    0.43    0.45
   6 -19  -1    0.40    0.52
  -5  19   1   42.62    2.48
   5  19  -1   41.95    2.17
   4  19  -1   15.14    1.32
  -4  19   1   15.98    1.55
  -3  19   1   32.76    2.22
   3  19  -1   30.58    1.84
   2  19  -1   29.43    1.93
  -2  19   1   27.05    2.01
   2  19  -1   26.86    1.69
   1  19  -1  104.29    3.24
  -1  19   1  100.50    3.83
   1  19  -1  100.96    3.62
   0  19   1  243.60    5.88
   0  19  -1  239.42    5.64
   0  19  -1  241.05    4.77
   1  19   1    3.43    0.68
  -1  19  -1    3.01    0.76
   2  19   1   35.32    1.97
  -2  19  -1   38.52    2.36
  -3  19  -1    0.11    0.47
   3  19   1    0.03    0.40
  -3 -19  -1    0.02    0.37
   4  19   1   17.29    1.44
  -4 -19  -1   16.43    1.43
  -4  19  -1   15.93    1.55
   5  19   1   31.58    1.94
  -5  19  -1   31.05    2.13
  -5 -19  -1   32.66    1.95
  -6 -19  -1   33.56    1.93
   6  19   1   31.36    1.93
  -6  19  -1   31.26    2.13
   7 -19   1    0.12    0.45
  -7  19  -1    0.39    0.43
  -7 -19  -1    0.51    0.39
   7  19   1    0.12    0.39
   8 -19   1   66.09    2.77
  -8 -19  -1   66.02    2.50
  -8  19  -1   63.83    2.81
   8  19   1   67.12    2.70
   9  19   1    5.01    0.78
  -9  19  -1    5.59    0.85
   9 -19   1    5.10    0.80
  -9 -19  -1    4.28    0.63
 -10  19  -1   36.72    1.84
 -10 -19  -1   34.49    1.54
  10 -19   1   36.79    1.95
  11 -19   1   11.54    1.04
 -11  19  -1    9.44    0.86
  12 -19   1    2.49    0.49
  13 -19   1    0.86    0.28
  12 -20  -1   19.41    0.96
  11  20  -1   46.27    1.71
  10  20  -1    9.51    0.90
 -10 -20   1    9.80    0.75
  -9 -20   1   93.67    2.57
   9 -20  -1   96.71    3.13
   9  20  -1   99.25    2.96
  -9  20   1   90.51    2.93
   8 -20  -1   89.73    3.11
  -8  20   1   84.90    3.08
  -8 -20   1   92.08    2.77
   8  20  -1   92.63    2.98
   7  20  -1   62.56    2.53
  -7 -20   1   61.89    2.43
  -7  20   1   60.54    2.72
  -6  20   1   33.21    2.12
   6  20  -1   32.98    1.88
  -6 -20   1   34.53    1.89
   5  20  -1   43.57    2.17
  -5  20   1   44.69    2.51
   4  20  -1    1.73    0.51
  -4  20   1    2.21    0.78
  -3  20   1    1.68    0.66
   3 -20  -1    0.59    0.38
   3  20  -1    0.52    0.39
   2  20  -1    0.83    0.45
   2  20  -1    0.74    0.46
  -2  20   1    1.46    0.61
   2 -20  -1    1.51    0.50
   1 -20  -1    1.20    0.49
  -1  20   1    1.30    0.56
   1  20  -1    0.65    0.47
   1  20  -1    0.97    0.47
   0  20  -1    0.13    0.43
   0 -20  -1    0.91    0.48
  -1 -20  -1   89.84    3.19
   1  20   1   86.76    2.93
  -1  20  -1   82.59    3.36
  -2 -20  -1   57.40    2.57
   2  20   1   57.32    2.44
  -2  20  -1   55.62    2.76
   3  20   1  168.08    4.25
  -3  20  -1  169.42    4.85
  -3 -20  -1  181.88    4.54
  -4 -20  -1   71.54    2.83
  -4  20  -1   69.59    3.11
   4  20   1   70.86    2.79
   5  20   1    0.45    0.41
  -5  20  -1    1.29    0.58
  -5 -20  -1    0.69    0.43
   6  20   1    9.86    1.07
  -6  20  -1   11.41    1.31
  -6 -20  -1   10.12    1.08
  -7 -20  -1    1.38    0.44
  -7  20  -1    0.91    0.50
   7  20   1    0.60    0.42
   8 -20   1    0.36    0.39
   8  20   1    0.46    0.39
  -8  20  -1   -0.11    0.40
  -8 -20  -1    0.23    0.32
  -9 -20  -1   98.05    2.66
  -9  20  -1   97.07    3.04
   9 -20   1   97.80    2.95
  10 -20   1   69.31    2.35
 -10  20  -1   67.37    2.30
 -10 -20  -1   67.86    1.95
  11 -20   1   16.25    1.05
 -11  20  -1   15.55    0.97
  12 -20   1    1.33    0.29
  10  21  -1   18.30    1.11
  -9 -21   1    9.24    0.76
   9  21  -1   11.08    0.95
   8  21  -1   73.42    2.51
  -8 -21   1   71.74    2.28
  -8  21   1   69.10    2.58
  -7 -21   1    9.27    0.92
  -7  21   1    9.63    1.08
   7  21  -1    7.90    0.90
  -6 -21   1   51.26    2.19
  -6  21   1   50.36    2.46
   6  21  -1   50.48    2.22
   5  21  -1   31.91    1.80
  -5  21   1   29.41    1.97
   4  21  -1    6.78    0.88
  -4  21   1    5.82    0.96
  -3  21   1   12.98    1.40
   3 -21  -1   15.16    1.17
   3  21  -1   14.07    1.21
   2  21  -1    1.82    0.53
   2 -21  -1    1.66    0.52
  -2  21   1    1.28    0.66
   1  21  -1   65.07    2.80
   1 -21  -1   62.80    2.54
   1  21  -1   63.55    2.40
   0 -21  -1  123.21    3.62
   0  21  -1  125.16    3.96
   1  21   1    0.47    0.39
  -1  21  -1    0.23    0.44
  -1 -21  -1    0.51    0.39
  -2  21  -1    2.44    0.65
  -2 -21  -1    1.92    0.57
   2  21   1    1.77    0.47
   3  21   1   10.62    1.08
  -3  21  -1    9.77    1.21
  -3 -21  -1   10.03    1.10
  -4 -21  -1  212.62    4.72
  -4  21  -1  213.69    5.22
   4  21   1  206.87    4.58
   5  21   1   58.82    2.45
  -5 -21  -1   59.58    2.45
  -5  21  -1   58.05    2.68
  -6 -21  -1   24.96    1.55
   6  21   1   24.40    1.58
  -6  21  -1   23.09    1.67
  -7  21  -1   30.60    1.84
  -7 -21  -1   33.63    1.70
   7  21   1   30.13    1.69
  -8  21  -1   31.93    1.76
  -8 -21  -1   33.50    1.58
  -9 -21  -1    8.42    0.73
  -9  21  -1    9.09    0.90
   9 -21   1    7.52    0.74
 -10  21  -1   67.80    2.06
 -10 -21  -1   65.63    1.65
  -9 -22   1    7.66    0.62
   9  22  -1    7.48    0.72
   8  22  -1    6.05    0.69
  -8 -22   1    4.92    0.58
  -7 -22   1   11.70    0.94
   7  22  -1   11.57    0.99
   6  22  -1   -0.16    0.39
  -6 -22   1    0.42    0.36
  -5 -22   1   24.22    1.48
   5  22  -1   22.10    1.42
  -4 -22   1    7.88    0.93
   4  22  -1    8.95    0.93
   3 -22  -1   59.16    2.11
   3  22  -1   58.09    2.26
   2  22  -1  130.42    3.32
   2 -22  -1  136.19    3.39
   1 -22  -1    0.44    0.34
   1  22  -1    0.57    0.37
   0 -22  -1   16.73    1.31
   0  22  -1   14.15    1.30
  -1 -22  -1    0.17    0.35
  -1  22  -1   -0.24    0.41
   2  22   1   65.00    2.36
  -2  22  -1   66.57    2.82
  -2 -22  -1   63.64    2.53
   3  22   1    0.70    0.35
  -3  22  -1    1.51    0.63
  -3 -22  -1    1.93    0.54
  -4  22  -1   15.59    1.39
   4  22   1   14.52    1.17
  -4 -22  -1   17.45    1.33
   5  22   1    3.08    0.57
  -5  22  -1    3.56    0.71
  -5 -22  -1    3.88    0.66
  -6  22  -1  125.87    3.60
   6  22   1  122.02    3.19
  -7  22  -1    2.14    0.54
  -7 -22  -1    1.40    0.39
  -8  22  -1   29.47    1.55
  -8 -22  -1   32.70    1.41
  -9 -22  -1   11.35    0.74
  -9  22  -1   10.93    0.86
   8  23  -1   33.65    1.40
  -8 -23   1   32.69    1.22
  -7 -23   1   69.48    2.00
   7  23  -1   70.05    2.14
  -6 -23   1   31.81    1.48
   6  23  -1   30.04    1.47
  -5 -23   1   79.16    2.44
   5  23  -1   73.73    2.34
   4  23  -1   66.31    2.24
  -4 -23   1   76.73    2.50
   3  23  -1  128.27    3.09
  -3 -23   1  139.93    3.45
  -2 -23   1   13.04    1.12
   2  23  -1   11.77    0.96
   2 -23  -1   11.42    0.94
   1 -23  -1  158.15    3.52
  -1 -23   1  162.38    3.76
   0 -23  -1   59.03    2.23
  -1 -23  -1  182.47    3.96
  -2  23  -1    0.23    0.38
   2 -23   1    0.04    0.29
  -3  23  -1  101.37    3.21
  -3 -23  -1   99.84    2.90
   3 -23   1   99.50    2.53
  -4 -23  -1  188.85    3.90
  -4  23  -1  181.80    4.24
  -5  23  -1   48.38    2.13
  -5 -23  -1   48.37    1.90
  -6  23  -1   95.87    2.87
  -6 -23  -1   98.09    2.57
  -7 -23  -1   19.89    1.08
  -7  23  -1   20.59    1.26
  -8 -23  -1   30.16    1.17
  -7 -24   1   12.95    0.75
   6  24  -1    2.06    0.39
  -6 -24   1    2.48    0.43
  -5 -24   1    5.80    0.63
   5  24  -1    4.84    0.57
   4  24  -1    1.00    0.31
  -4 -24   1    1.45    0.41
  -3 -24   1    6.79    0.73
   3  24  -1    5.87    0.61
   2  24  -1    0.15    0.27
   2 -24  -1    0.11    0.23
  -2 -24   1    0.27    0.29
   1 -24  -1    0.44    0.27
  -1 -24   1    0.55    0.36
   0 -24  -1    5.09    0.63
   0 -24   1    4.44    0.61
  -1 -24  -1   13.00    0.99
   1 -24   1   12.02    0.91
  -2 -24  -1   47.70    1.85
   2 -24   1   44.56    1.61
  -3 -24  -1   25.39    1.35
  -4 -24  -1    3.66    0.55
  -5 -24  -1    6.17    0.65
  -6 -24  -1    6.13    0.60
  -7 -24  -1    4.85    0.48
  -6 -25   1   49.48    1.31
  -5 -25   1   55.89    1.57
  -4 -25   1  130.83    2.57
  -3 -25   1   16.20    0.95
  -2 -25   1   22.71    1.14
   1 -25  -1   11.02    0.71
  -1 -25   1   12.24    0.84
   0 -25   1  100.07    2.29
   0 -25  -1  101.76    2.25
  -1 -25  -1    1.93    0.37
   1 -25   1    2.35    0.39
  -2 -25  -1    0.86    0.32
   2 -25   1    0.47    0.20
  -3 -25  -1   19.41    1.02
  -4 -25  -1   87.69    2.07
  -5 -25  -1   49.88    1.46
  -3 -26   1    0.91    0.22
  -2 -26   1    3.09    0.36
  -1 -26   1   36.29    1.14
  20   0  -2   23.16    1.00
  19   0  -2    1.85    0.45
  18   0  -2   82.23    2.90
  17   0  -2   40.79    2.28
  16   0  -2  316.37    6.68
  15   0  -2  400.01    7.74
  14   0  -2   90.89    3.70
  13   0  -2  869.50   11.12
 -13   0   2  895.18    9.90
  12   0  -2  221.18    5.37
 -12   0   2  220.87    4.66
 -11   0   2    1.09    0.38
 -10   0   2   56.01    2.04
  -9   0   2  659.98    6.39
  -8   0   2  810.53    6.53
   8   0  -2  808.38    6.89
  -7   0   2    0.54    0.21
   7   0  -2    0.62    0.21
   6   0  -2  203.42    2.94
   5   0  -2  502.23    4.24
   4   0  -2    1.85    0.26
   4   0  -2    3.97    0.37
   3   0  -2  823.22    4.53
   2   0  -2  338.85    2.72
   1   0  -2    9.87    0.47
   0   0  -2 4633.32    9.39
   0   0  -2 4763.14    9.71
  -1   0  -2  281.27    2.46
  -2   0  -2    0.26    0.15
  -3   0  -2  114.92    1.93
  -4   0  -2 1041.35    6.40
  -5   0  -2  236.90    3.34
  -6   0  -2  154.03    2.92
  -7   0  -2  306.31    4.50
  -8   0  -2  757.37    7.64
  -9   0  -2  304.25    5.23
 -10   0  -2  143.89    3.90
 -11   0  -2   97.80    3.43
 -12   0  -2   84.37    3.38
  12   0   2   76.81    3.05
  13   0   2    1.86    0.60
 -13   0  -2    3.22    0.74
  14   0   2    4.40    0.83
  15   0   2   21.74    1.71
  16   0   2   37.42    2.14
  17   0   2   52.53    2.33
  18   0   2    2.73    0.54
  19   0   2    4.18    0.51
  20   1  -2    8.26    0.61
  19   1  -2   66.07    2.23
  19  -1  -2   64.74    2.17
  18   1  -2   67.32    2.64
  18  -1  -2   63.56    2.53
  17   1  -2    0.85    0.47
  17  -1  -2    2.27    0.65
  16  -1  -2   12.52    1.39
  16   1  -2   13.54    1.45
  15   1  -2   32.71    2.26
  15  -1  -2   33.43    2.25
  14   1  -2    5.26    1.01
  14  -1  -2    5.84    1.00
 -13  -1   2   36.48    2.04
  13  -1  -2   36.61    2.30
 -13   1   2   36.11    2.03
  13   1  -2   35.98    2.30
  12   1  -2   17.95    1.57
 -12  -1   2   18.35    1.35
  12  -1  -2   19.06    1.62
 -12   1   2   17.82    1.35
 -11  -1   2    4.77    0.67
 -11   1   2    3.46    0.60
 -10  -1   2    3.93    0.58
 -10   1   2    4.91    0.65
  -9  -1   2    1.61    0.37
  -9   1   2    1.85    0.39
  -8  -1   2  423.15    4.61
  -8   1   2  432.42    4.89
   8  -1  -2  420.96    5.05
   7   1  -2   52.74    1.60
   7  -1  -2   52.58    1.66
  -7   1   2   53.26    1.58
  -7  -1   2   50.21    1.46
   6   1  -2  240.12    3.12
   6  -1  -2  238.10    3.25
  -6  -1   2  236.55    2.85
   5   1  -2   20.54    0.85
  -5  -1   2   18.55    0.71
   5   1  -2   20.69    0.89
   5  -1  -2   20.00    0.88
   4   1  -2    1.22    0.21
   3  -1  -2  218.89    2.49
   3  -1  -2  213.88    2.28
   2  -1  -2  348.56    2.99
   2   1  -2  342.78    2.51
   2  -1  -2  345.75    2.67
   1  -1  -2  160.37    1.95
   1   1  -2  150.56    1.61
   0   1  -2    0.53    0.13
   0  -1  -2    0.24    0.17
   0   1  -2    0.36    0.14
  -1   1  -2  874.09    4.02
  -1  -1  -2  878.67    4.73
  -2   1  -2    4.14    0.34
  -2  -1  -2    4.54    0.39
  -3   1  -2  350.01    3.24
  -3  -1  -2  342.34    3.44
  -4   1  -2   60.32    1.50
  -4  -1  -2   62.67    1.62
  -5  -1  -2   35.47    1.33
  -5   1  -2   36.44    1.28
  -6  -1  -2    4.73    0.56
  -6   1  -2    4.16    0.52
  -7   1  -2  203.16    3.62
  -7  -1  -2  205.30    3.74
  -8   1  -2   61.98    2.18
  -8  -1  -2   62.66    2.25
  -9   1  -2  244.29    4.64
  -9  -1  -2  240.24    4.71
 -10   1  -2   16.08    1.30
 -10  -1  -2   16.76    1.35
 -11  -1  -2    6.63    0.95
 -11   1  -2    7.43    0.96
  12   1   2    3.97    0.76
 -12  -1  -2    4.54    0.85
  12  -1   2    3.91    0.75
 -12   1  -2    3.39    0.73
  13  -1   2  165.37    4.57
  13   1   2  165.32    4.59
  14   1   2   44.96    2.44
  14  -1   2   44.50    2.42
  15  -1   2   49.28    2.52
  15   1   2   47.29    2.50
  16   1   2  144.91    4.15
  16  -1   2  144.77    4.13
  17   1   2    7.56    0.95
  17  -1   2    6.33    0.90
  18   1   2   34.96    1.67
  18  -1   2   35.27    1.69
  19   1   2    2.26    0.40
  19  -1   2    2.33    0.41
  19   2  -2    0.24    0.28
  19  -2  -2    0.09    0.26
  18   2  -2    1.24    0.51
  18  -2  -2    1.35    0.50
  17   2  -2    8.85    1.12
  17  -2  -2    8.62    1.06
  16   2  -2   95.53    3.69
  16  -2  -2  103.27    3.79
  15  -2  -2   71.06    3.22
  15   2  -2   71.49    3.29
  14   2  -2  210.22    5.65
  14  -2  -2  206.99    5.49
  13  -2  -2  229.85    5.62
  13   2  -2  225.78    5.72
 -13   2   2  230.48    5.12
 -12   2   2   17.01    1.34
  12  -2  -2   17.57    1.54
 -12  -2   2   17.73    1.32
  12   2  -2   19.52    1.63
 -11  -2   2  514.29    6.50
 -11   2   2  493.01    6.68
 -10  -2   2   24.51    1.33
 -10   2   2   24.06    1.39
   9  -2  -2  293.95    4.62
  -9  -2   2  299.73    4.21
  -9   2   2  304.52    4.52
  -8  -2   2  514.41    5.07
   8  -2  -2  517.44    5.74
  -8   2   2  515.46    5.44
   7  -2  -2  100.44    2.35
  -7  -2   2   97.35    1.99
   6  -2  -2  211.29    3.17
  -6  -2   2  207.25    2.60
   6   2  -2  207.67    2.86
   5  -2  -2 1129.47    6.79
   5   2  -2 1134.33    5.98
   5   2  -2 1140.97    6.68
   4   2  -2  165.33    2.05
  -4  -2   2  168.53    1.76
   3   2  -2  575.03    3.33
   3  -2  -2  563.67    4.22
   2  -2  -2    6.35    0.36
   2  -2  -2    5.41    0.43
   1   2  -2    3.93    0.24
   1  -2  -2    4.52    0.39
   0   2  -2   19.55    0.52
   0  -2  -2   19.14    0.74
   0   2  -2   18.26    0.46
  -1  -2  -2 1757.77    7.14
  -1   2  -2 1746.08    5.41
  -2  -2  -2 1104.96    6.02
  -2   2  -2 1109.62    4.96
  -3  -2  -2 1050.07    6.31
  -3   2  -2 1064.72    5.53
  -4   2  -2    3.59    0.38
  -4  -2  -2    2.17    0.35
  -5   2  -2   19.61    0.93
  -5  -2  -2   15.77    0.93
  -6   2  -2  421.63    4.72
  -6  -2  -2  426.48    5.09
  -7   2  -2  332.99    4.58
  -7  -2  -2  335.23    4.87
  -8  -2  -2   63.09    2.29
  -8   2  -2   66.31    2.23
  -9  -2  -2  113.96    3.29
  -9   2  -2  110.12    3.09
 -10  -2  -2   34.94    1.98
 -10   2  -2   36.58    1.95
  11   2   2   28.02    1.78
 -11  -2  -2   28.26    1.90
 -11   2  -2   29.71    1.88
 -12   2  -2   93.00    3.51
 -12  -2  -2   96.05    3.63
  12  -2   2   97.97    3.43
  12  -2   2   91.51    3.23
  12   2   2   95.16    3.37
  13  -2   2   46.38    2.34
  13   2   2   46.14    2.44
  13  -2   2   45.56    2.41
  14   2   2   40.98    2.34
  14  -2   2   39.08    2.28
  15   2   2   43.04    2.36
  15  -2   2   42.27    2.34
  16  -2   2  124.24    3.81
  16   2   2  129.01    3.88
  17  -2   2   10.45    1.09
  17   2   2   11.48    1.12
  18   2   2    3.25    0.56
  18  -2   2    3.51    0.60
  19   2   2   34.76    1.30
  19  -2   2   34.55    1.33
  19  -3  -2    5.61    0.64
  19   3  -2    6.16    0.71
  18  -3  -2    1.51    0.46
  18   3  -2    1.46    0.49
  17  -3  -2  194.22    4.74
  17   3  -2  191.75    4.83
  16   3  -2   43.60    2.49
  16  -3  -2   38.69    2.30
  15   3  -2   23.48    1.92
  15  -3  -2   23.33    1.86
  14  -3  -2  119.41    4.11
  14   3  -2  114.06    4.17
  13   3  -2  194.49    5.30
  13  -3  -2  191.76    5.12
 -13   3   2  195.76    4.79
 -12   3   2   32.06    1.85
  12  -3  -2   34.35    2.12
  12   3  -2   31.65    2.09
 -11   3   2    0.62    0.36
 -11  -3   2    1.41    0.41
 -10  -3   2   15.11    1.04
 -10   3   2   14.88    1.12
  -9  -3   2   80.77    2.21
  -9   3   2   78.64    2.36
  -8  -3   2   74.62    1.92
   8  -3  -2   76.66    2.26
  -7  -3   2  209.03    2.90
   7  -3  -2  222.18    3.57
  -6  -3   2    4.76    0.40
   6  -3  -2    5.46    0.55
   5   3  -2  146.29    2.45
   5   3  -2  144.12    2.09
  -5  -3   2  146.29    1.85
   5  -3  -2  143.58    2.49
   4   3  -2  117.78    1.67
  -4  -3   2  113.14    1.39
   4   3  -2  118.77    2.08
  -3  -3   2  408.53    1.98
   3  -3  -2  412.56    3.80
   3   3  -2  411.24    2.67
   2   3  -2   21.37    0.50
   2  -3  -2   20.67    0.83
   1  -3  -2 1949.41    4.73
   1   3  -2 1940.47    3.94
   0  -3  -2   10.48    0.60
   0   3  -2   10.51    0.33
  -1  -3  -2  252.54    2.95
  -1   3  -2  246.46    1.94
  -2   3  -2 2243.83    7.00
  -2  -3  -2 2246.97    9.16
  -3   3  -2   34.73    1.00
  -3  -3  -2   33.84    1.20
  -4  -3  -2   21.53    1.02
  -4   3  -2   21.90    0.90
  -5   3  -2   78.12    1.85
  -5  -3  -2   79.66    2.09
  -6  -3  -2    1.83    0.42
  -6   3  -2    0.81    0.28
  -7   3  -2  880.50    7.45
  -7  -3  -2  901.98    8.17
  -8   3  -2   18.55    1.19
  -8  -3  -2   15.59    1.18
  -9   3  -2  385.41    5.83
  -9  -3  -2  381.15    6.14
 -10   3  -2    4.87    0.74
 -10  -3  -2    4.40    0.75
 -11  -3  -2   48.11    2.49
  11   3   2   49.59    2.34
 -11   3  -2   48.16    2.37
  12   3   2   68.30    2.88
  12  -3   2   73.95    2.97
 -12  -3  -2   68.98    3.14
 -12   3  -2   69.62    3.03
  12  -3   2   66.74    2.84
  13  -3   2  328.94    6.31
  13   3   2  332.85    6.48
  13  -3   2  341.66    6.55
  14   3   2   86.82    3.34
  14  -3   2   88.51    3.37
  14  -3   2   83.47    3.14
  15   3   2    3.95    0.79
  15  -3   2    3.99    0.77
  16  -3   2    5.20    0.86
  16   3   2    4.64    0.79
  17  -3   2   47.12    2.15
  17   3   2   44.53    2.09
  18   3   2    4.59    0.65
  18  -3   2    4.40    0.62
  19  -3   2    8.36    0.65
  19   3   2    7.66    0.59
  19   4  -2   93.67    2.48
  19  -4  -2   89.16    2.24
  18   4  -2    4.46    0.74
  18  -4  -2    4.31    0.64
  17  -4  -2   80.34    2.97
  17   4  -2   79.83    3.09
  16  -4  -2   27.26    1.89
  16   4  -2   26.30    1.97
  16  -4  -2   26.93    1.68
  15   4  -2   28.36    2.08
  15  -4  -2   33.26    2.16
  14   4  -2    5.38    0.98
  14  -4  -2    6.09    1.00
 -13   4   2    0.98    0.49
  13   4  -2    0.81    0.51
  13  -4  -2    1.58    0.65
  12   4  -2  287.49    6.28
  12  -4  -2  281.71    5.96
 -12   4   2  299.77    5.68
 -11   4   2  130.28    3.55
 -10   4   2  106.86    3.02
 -10  -4   2  105.57    2.74
  10  -4  -2  105.07    3.06
  -9   4   2    4.34    0.61
   9  -4  -2    3.16    0.54
  -8  -4   2    8.93    0.67
   8  -4  -2    8.64    0.80
  -7  -4   2    0.24    0.15
   7  -4  -2    2.30    0.43
   6  -4  -2  629.21    5.77
  -6  -4   2  630.29    4.42
   6   4  -2  614.82    5.47
  -5  -4   2   90.98    1.44
   5   4  -2   92.82    2.01
   4  -4  -2   26.24    1.06
   4   4  -2   23.83    0.98
  -4  -4   2   25.17    0.63
   3  -4  -2    9.76    0.63
  -3  -4   2    1.18    0.10
   2  -4  -2  435.99    3.99
   1  -4  -2  636.97    4.76
   0   4  -2 1122.99    3.01
   0  -4  -2 1103.28    6.23
  -1   4  -2  612.02    3.01
  -2   4  -2  604.78    3.63
  -2  -4  -2  587.30    4.97
  -3  -4  -2    3.30    0.43
  -3   4  -2    3.14    0.31
  -4   4  -2  133.19    2.20
  -4  -4  -2  132.07    2.63
  -5  -4  -2   11.59    0.85
  -5   4  -2   12.12    0.75
  -6   4  -2  171.82    3.02
  -6  -4  -2  170.76    3.43
  -7   4  -2   63.07    2.01
  -7  -4  -2   62.82    2.23
  -8  -4  -2   27.61    1.60
  -8   4  -2   24.75    1.38
  -9   4  -2   30.83    1.66
  -9  -4  -2   29.83    1.77
 -10   4  -2    0.44    0.34
 -10  -4  -2    1.41    0.46
 -11   4  -2    0.82    0.47
 -11  -4  -2    0.81    0.47
  11   4   2    0.63    0.39
  11  -4   2    0.53    0.40
  12  -4   2   92.07    3.32
 -12  -4  -2   91.54    3.64
 -12   4  -2   90.60    3.45
  12   4   2   93.81    3.35
  12  -4   2   90.71    3.37
  13  -4   2   20.83    1.66
  13  -4   2   20.16    1.64
  13   4   2   21.30    1.68
  14   4   2   50.02    2.55
  14  -4   2   49.15    2.46
  14  -4   2   51.94    2.58
  15   4   2   15.72    1.43
  15  -4   2   14.61    1.39
  15  -4   2   15.82    1.34
  16   4   2    0.63    0.42
  16  -4   2    0.91    0.53
  17  -4   2   29.53    1.67
  17   4   2   28.23    1.63
  18  -4   2    0.95    0.36
  18   4   2    1.01    0.35
  19   5  -2   53.74    1.80
  19  -5  -2   46.86    1.48
  18  -5  -2    3.85    0.61
  18   5  -2    3.40    0.61
  17  -5  -2    1.20    0.47
  17  -5  -2    1.16    0.37
  17   5  -2    1.70    0.52
  16  -5  -2   56.12    2.62
  16   5  -2   55.94    2.76
  16  -5  -2   51.76    2.33
  15   5  -2   39.62    2.43
  15  -5  -2   42.04    2.38
  14   5  -2   40.40    2.49
  14  -5  -2   42.45    2.43
  13  -5  -2   24.04    1.81
  13  -5  -2   24.31    1.74
 -13   5   2   24.35    1.76
  13   5  -2   22.16    1.84
  12  -5  -2  152.84    4.35
  12  -5  -2  152.43    4.33
  12   5  -2  148.00    4.54
 -12   5   2  159.17    4.22
 -11   5   2    5.78    0.80
 -10   5   2  256.72    4.78
  10  -5  -2  249.38    4.76
  -9   5   2  583.72    6.78
   9  -5  -2  566.02    6.84
  -8  -5   2    2.42    0.38
   8  -5  -2    3.16    0.51
  -7  -5   2   15.01    0.78
   7  -5  -2   16.05    1.04
   6  -5  -2   84.26    2.21
   6   5  -2   83.46    2.07
  -6  -5   2   85.24    1.64
  -5  -5   2  162.44    1.92
   5   5  -2  161.06    2.71
   4  -5  -2   77.94    1.90
  -4  -5   2   72.05    1.03
   4   5  -2   75.66    1.78
   3  -5  -2   93.47    2.01
   2  -5  -2   43.96    1.34
   1  -5  -2  953.28    6.15
   0  -5  -2  252.05    3.12
   0   5  -2  252.24    1.46
  -1  -5  -2 1617.98    7.99
  -1   5  -2 1674.51    5.09
  -2  -5  -2  214.55    3.20
  -2   5  -2  210.15    2.19
  -3   5  -2  102.32    1.73
  -3  -5  -2  102.09    2.27
  -4  -5  -2  942.80    7.35
  -4   5  -2  952.66    5.93
  -5   5  -2  238.97    3.30
  -5  -5  -2  235.56    3.90
  -6   5  -2   12.83    0.85
  -6  -5  -2   13.59    1.02
  -7   5  -2   15.74    1.03
  -7  -5  -2   16.60    1.21
  -8   5  -2  241.63    4.31
  -8  -5  -2  250.97    4.88
  -9   5  -2  180.23    4.00
  -9  -5  -2  182.54    4.43
 -10   5  -2   29.98    1.78
 -10  -5  -2   29.75    1.92
 -11  -5  -2  256.75    5.92
 -11   5  -2  256.07    5.47
  11  -5   2  245.82    5.48
  11   5   2  250.85    5.24
  12   5   2  369.24    6.62
  12  -5   2  384.88    6.73
 -12   5  -2  372.21    6.96
 -12  -5  -2  374.18    7.41
  12  -5   2  363.42    6.85
  13   5   2    4.67    0.82
  13  -5   2    5.78    0.96
  13  -5   2    3.89    0.77
  14   5   2   13.80    1.36
  14  -5   2   13.61    1.34
  14  -5   2   14.13    1.34
  15   5   2   32.81    2.01
  15  -5   2   31.69    1.95
  15  -5   2   34.01    1.97
  16  -5   2   20.50    1.51
  16   5   2   18.08    1.41
  16  -5   2   18.94    1.34
  17   5   2    4.38    0.69
  17  -5   2    5.09    0.71
  18  -5   2   32.28    1.45
  18   5   2   32.36    1.40
  19   6  -2   38.93    1.42
  18  -6  -2    2.41    0.47
  18   6  -2    2.69    0.53
  17   6  -2    1.24    0.47
  17  -6  -2    1.42    0.45
  17  -6  -2    1.05    0.38
  16  -6  -2   74.72    2.91
  16   6  -2   74.76    3.11
  15   6  -2   34.94    2.25
  15  -6  -2   36.79    2.16
  14   6  -2   37.70    2.39
  14  -6  -2   39.37    2.28
  14  -6  -2   37.12    2.16
  13  -6  -2   46.42    2.46
  13   6  -2   46.55    2.61
  13  -6  -2   47.23    2.48
  12   6  -2  459.97    8.07
  12  -6  -2  474.66    7.77
  12  -6  -2  479.12    7.69
 -11   6   2  185.69    4.44
 -10   6   2   55.36    2.30
  10  -6  -2   54.41    2.29
   9  -6  -2    9.12    0.93
   8  -6  -2  144.19    3.31
   7  -6  -2   40.50    1.68
   6   6  -2 1219.65    8.00
   6  -6  -2 1233.10    8.62
   5   6  -2 1655.60    8.89
   4  -6  -2  246.14    3.52
   4   6  -2  247.72    3.31
   3  -6  -2  330.20    3.91
   2  -6  -2  224.37    3.16
   1  -6  -2  308.11    3.67
   0   6  -2    7.68    0.28
   0  -6  -2    8.21    0.62
  -1  -6  -2  411.70    4.29
  -1   6  -2  415.66    2.65
  -2   6  -2    7.12    0.42
  -3  -6  -2  343.52    4.45
  -3   6  -2  340.79    3.25
  -4  -6  -2  253.76    3.96
  -4   6  -2  248.44    3.10
  -5   6  -2  399.17    4.31
  -5  -6  -2  400.10    5.28
  -6  -6  -2  117.74    3.07
  -6   6  -2  115.04    2.55
  -7   6  -2   16.55    1.06
  -7  -6  -2   15.69    1.21
  -8  -6  -2    1.08    0.44
  -8   6  -2    0.55    0.26
  -9   6  -2   12.35    1.07
  -9  -6  -2   11.39    1.17
 -10   6  -2    1.07    0.41
 -10  -6  -2    0.67    0.41
  11  -6   2   25.95    1.86
  11   6   2   26.10    1.72
 -11   6  -2   26.20    1.78
 -11  -6  -2   26.76    1.96
  12   6   2   69.66    2.87
  12  -6   2   66.92    2.82
  12  -6   2   68.95    3.04
 -12  -6  -2   64.41    3.14
 -12   6  -2   67.41    2.97
  13   6   2  190.55    4.83
  13  -6   2  189.60    4.74
  13  -6   2  185.55    4.96
  14   6   2    0.41    0.40
  14  -6   2    0.55    0.42
  14  -6   2    0.59    0.47
  15  -6   2    2.76    0.67
  15  -6   2    2.79    0.63
  15   6   2    2.71    0.63
  16   6   2   33.79    1.85
  16  -6   2   33.53    1.86
  16  -6   2   35.74    1.85
  17  -6   2    1.18    0.40
  17   6   2    0.77    0.36
  18  -6   2   14.15    0.91
  18   6   2   12.14    0.79
  18  -7  -2   63.44    1.83
  18   7  -2   63.96    2.14
  17   7  -2   33.60    1.83
  17  -7  -2   35.82    1.72
  17  -7  -2   35.79    1.71
  16   7  -2    4.91    0.84
  16  -7  -2    4.43    0.72
  15  -7  -2   19.52    1.52
  15  -7  -2   17.03    1.45
  15   7  -2   18.58    1.62
  14  -7  -2   26.21    1.84
  14  -7  -2   25.58    1.84
  14   7  -2   25.64    1.95
  13   7  -2    0.59    0.48
  13  -7  -2   -0.05    0.42
  13  -7  -2    0.52    0.46
  12   7  -2  227.73    5.64
 -12   7   2  238.78    5.34
  12  -7  -2  229.88    5.55
  11   7  -2  106.09    3.72
 -11   7   2  111.07    3.52
  11  -7  -2  108.53    3.74
 -10   7   2   17.50    1.35
  10  -7  -2   18.01    1.36
   9  -7  -2  416.61    6.10
   8  -7  -2   54.00    2.09
   7  -7  -2  215.34    3.94
   6  -7  -2   77.25    2.24
   6   7  -2   74.34    2.04
   5   7  -2  427.33    4.66
   4  -7  -2  473.06    5.05
   4   7  -2  462.14    4.68
   3  -7  -2  193.62    3.15
   2  -7  -2   30.89    1.25
   1  -7  -2   71.07    1.85
   0  -7  -2    2.37    0.37
   0   7  -2    2.31    0.18
  -1   7  -2  477.80    3.03
  -1  -7  -2  489.06    4.90
  -2  -7  -2  160.14    2.90
  -2   7  -2  177.29    2.13
  -3   7  -2    0.96    0.22
  -4   7  -2   46.16    1.37
  -4  -7  -2   53.37    1.95
  -5   7  -2  399.63    4.40
  -5  -7  -2  393.50    5.50
  -6   7  -2   99.07    2.40
  -6  -7  -2   96.47    2.85
  -7   7  -2    1.82    0.41
  -7  -7  -2    2.00    0.51
  -8   7  -2  299.62    4.87
  -8  -7  -2  294.24    5.60
  -9   7  -2  160.14    3.85
  -9  -7  -2  159.08    4.37
 -10   7  -2    2.66    0.59
  10  -7   2    4.14    0.79
 -10  -7  -2    3.55    0.76
 -11  -7  -2   26.51    1.97
 -11   7  -2   26.79    1.81
  11   7   2   26.13    1.75
  11  -7   2   26.37    1.92
  12  -7   2   18.66    1.65
  12  -7   2   20.65    1.58
 -12  -7  -2   18.27    1.70
  12   7   2   19.19    1.53
  13   7   2    7.70    1.01
  13  -7   2    5.50    0.93
  13  -7   2    6.30    0.93
  14   7   2   23.04    1.66
  14  -7   2   23.94    1.68
  14  -7   2   23.40    1.78
  15   7   2   31.37    1.84
  15  -7   2   31.42    1.87
  15  -7   2   33.38    1.97
  16   7   2   12.58    1.08
  16  -7   2   13.52    1.15
  16  -7   2   12.55    1.10
  17   7   2   21.05    1.20
  17  -7   2   21.49    1.26
  17  -7   2   20.19    1.14
  18  -7   2   63.47    1.70
  18  -8  -2   58.80    1.74
  18   8  -2   58.83    1.87
  17  -8  -2   26.23    1.46
  17   8  -2   25.79    1.52
  16   8  -2   29.21    1.82
  16  -8  -2   34.21    1.79
  15  -8  -2   96.76    3.33
  15   8  -2   94.62    3.48
  14  -8  -2   53.27    2.66
  14   8  -2   52.19    2.71
  13  -8  -2   97.32    3.68
  13   8  -2  101.87    3.80
 -12   8   2   80.19    3.17
  12   8  -2   78.64    3.31
  12  -8  -2   79.74    3.34
  11   8  -2    1.17    0.62
 -11   8   2    1.65    0.51
  11  -8  -2    1.03    0.59
 -10   8   2    4.46    0.75
  10  -8  -2    5.73    0.82
   9  -8  -2   69.72    2.56
   8  -8  -2  538.81    6.76
   7  -8  -2   22.96    1.35
   6   8  -2   24.02    1.20
   6  -8  -2   25.21    1.34
   5   8  -2   87.03    2.15
   4  -8  -2   93.43    2.35
   4   8  -2   96.88    2.21
   3  -8  -2   29.94    1.30
   2  -8  -2    5.22    0.56
   1  -8  -2  301.84    3.95
   0   8  -2 1260.44    4.24
   0  -8  -2 1220.46    7.98
  -1   8  -2   50.99    1.05
  -1  -8  -2   48.37    1.62
  -2  -8  -2  268.61    3.94
  -2   8  -2  267.26    2.76
  -3  -8  -2    6.26    0.65
  -3   8  -2    6.01    0.47
  -4   8  -2   27.96    1.10
  -5  -8  -2 1311.01   10.54
  -5   8  -2 1269.90    8.09
  -6   8  -2  263.81    4.01
  -6  -8  -2  277.11    5.04
  -7  -8  -2  116.44    3.45
  -7   8  -2  113.39    2.86
  -8  -8  -2   18.94    1.49
  -8   8  -2   18.87    1.26
  -9  -8  -2   10.08    1.15
  -9   8  -2    9.28    0.96
 -10   8  -2   42.28    2.14
  10  -8   2   42.17    2.39
 -10  -8  -2   43.13    2.44
  11  -8   2  511.57    8.39
 -11  -8  -2  488.56    8.48
 -11   8  -2  498.34    7.75
  12  -8   2  394.17    6.59
  12  -8   2  374.52    7.25
  13   8   2    9.13    1.10
  13  -8   2    8.44    1.12
  13  -8   2    7.38    0.97
  14   8   2   51.83    2.39
  14  -8   2   51.61    2.37
  14  -8   2   51.79    2.61
  15   8   2   46.22    2.13
  15  -8   2   45.85    2.15
  15  -8   2   45.70    2.29
  16   8   2   84.62    2.57
  16  -8   2   86.67    2.69
  16  -8   2   85.37    2.79
  17  -8   2    0.77    0.31
  17  -8   2    1.82    0.43
  18  -9  -2   10.84    0.73
  18   9  -2   10.46    0.71
  17  -9  -2   79.86    2.48
  17   9  -2   76.43    2.37
  16   9  -2    2.06    0.56
  16  -9  -2    2.12    0.54
  15  -9  -2   21.22    1.60
  15   9  -2   21.63    1.62
  14  -9  -2  288.27    6.14
  14   9  -2  295.92    6.20
  13  -9  -2  210.88    5.46
  13   9  -2  211.17    5.36
  12   9  -2    6.93    1.03
  12  -9  -2    5.24    0.92
  11  -9  -2   11.82    1.37
 -11   9   2   13.45    1.30
  11   9  -2   10.98    1.27
  10  -9  -2   32.23    2.09
  10  -9  -2   32.68    1.87
 -10   9   2   32.88    1.93
   9  -9  -2   69.71    2.62
   8  -9  -2   42.45    1.95
   7  -9  -2  709.22    7.57
   6  -9  -2  269.13    4.44
   6   9  -2  254.89    3.92
   5  -9  -2    6.67    0.70
   5   9  -2    5.85    0.60
   4  -9  -2    3.61    0.51
   4   9  -2    4.50    0.52
   3  -9  -2   85.90    2.26
   2  -9  -2   28.02    1.29
   1  -9  -2    4.52    0.55
   0  -9  -2 1031.04    7.76
  -1   9  -2   16.50    0.63
  -1  -9  -2   15.13    0.98
  -2  -9  -2  309.17    4.41
  -2   9  -2  318.10    3.14
  -3   9  -2   32.11    1.11
  -3  -9  -2   30.74    1.44
  -4   9  -2 1460.58    8.14
  -5   9  -2   27.85    1.23
  -6  -9  -2  467.75    6.86
  -6   9  -2  459.14    5.37
  -7   9  -2  668.03    7.01
  -7  -9  -2  652.52    8.49
  -8   9  -2  563.24    6.92
  -8  -9  -2  553.98    8.22
  -9   9  -2  147.26    3.79
  -9  -9  -2  149.19    4.49
   9  -9   2  151.40    4.42
 -10  -9  -2  308.48    6.70
  10  -9   2  315.01    6.58
 -10   9  -2  316.17    5.88
  11  -9   2   14.29    1.29
  11  -9   2   13.34    1.42
 -11   9  -2   12.35    1.27
 -11  -9  -2   11.39    1.38
  12  -9   2    2.84    0.65
  12  -9   2    1.29    0.59
  13  -9   2   80.43    2.94
  13  -9   2   73.19    3.22
  14  -9   2   15.59    1.29
  14  -9   2   16.69    1.52
  15  -9   2   67.15    2.47
  15  -9   2   68.42    2.76
  16  -9   2   87.48    2.52
  16  -9   2   84.79    2.72
  17  -9   2  106.72    2.47
  18 -10  -2   41.01    1.33
  17  10  -2    8.31    0.72
  17 -10  -2    9.50    0.87
  16 -10  -2   28.52    1.61
  16  10  -2   29.76    1.59
  15  10  -2    0.33    0.42
  15 -10  -2    1.12    0.51
  14 -10  -2   47.40    2.51
  14  10  -2   49.07    2.42
  13 -10  -2   68.43    3.14
  13  10  -2   66.96    2.93
  12 -10  -2    6.14    1.03
  12  10  -2    5.49    0.86
  11 -10  -2    6.65    1.09
 -11  10   2    5.66    0.86
  10 -10  -2  224.70    4.95
 -10  10   2  231.04    5.17
  10 -10  -2  228.12    5.66
  10  10  -2  228.52    4.55
   9 -10  -2   21.82    1.74
   9 -10  -2   23.13    1.55
   8 -10  -2    6.18    0.80
   7 -10  -2   60.61    2.28
   6 -10  -2   40.66    1.80
   6  10  -2   37.22    1.54
   5  10  -2   52.43    1.76
   5 -10  -2   50.42    1.91
   4  10  -2  231.09    3.63
   4 -10  -2  233.85    4.00
   3 -10  -2   60.31    1.98
   2 -10  -2  247.76    3.95
   1 -10  -2   84.73    2.31
   0 -10  -2   55.12    1.87
  -1 -10  -2  829.30    7.31
  -2 -10  -2  211.89    3.79
  -2  10  -2  215.42    2.67
  -3  10  -2  542.29    4.72
  -3 -10  -2  543.18    6.29
  -4 -10  -2 1106.34    9.37
  -4  10  -2 1125.74    7.45
  -5 -10  -2   77.07    2.61
  -5  10  -2   79.66    2.15
  -6  10  -2   25.28    1.32
   6  10   2   24.87    1.28
  -7  10  -2   15.99    1.13
  -8  10  -2    7.98    0.87
  -9  10  -2  153.13    3.91
   9 -10   2  152.08    4.53
   9  10   2  151.25    4.11
  10  10   2  111.16    3.57
  10 -10   2  114.43    4.05
 -10  10  -2  112.22    3.54
  11 -10   2    3.29    0.83
  12 -10   2   38.07    2.37
  13 -10   2   99.23    3.71
  14 -10   2   78.01    3.16
  14 -10   2   80.34    2.72
  15 -10   2    0.41    0.40
  16 -10   2   19.19    1.28
  17 -10   2   86.51    2.14
  17 -11  -2  170.22    3.33
  16 -11  -2    2.01    0.50
  15 -11  -2   21.08    1.55
  14 -11  -2   18.25    1.58
  13 -11  -2  116.71    4.08
  12 -11  -2   31.09    2.20
  11 -11  -2  232.44    5.93
  11  11  -2  245.78    4.83
 -10  11   2  204.26    4.97
  10 -11  -2  191.23    4.63
  10  11  -2  194.27    4.31
  10 -11  -2  194.93    5.35
   9 -11  -2   20.82    1.75
   9 -11  -2   20.42    1.49
   9  11  -2   22.00    1.46
   8 -11  -2   15.31    1.24
   7 -11  -2    1.37    0.44
   6 -11  -2   43.15    1.91
  -6  11   2   44.61    1.74
   6  11  -2   42.10    1.67
   5 -11  -2  129.72    3.14
   5  11  -2  124.49    2.76
   4  11  -2    3.22    0.47
   3 -11  -2   11.29    0.91
   2 -11  -2    3.72    0.54
   1 -11  -2   47.10    1.79
   0 -11  -2  256.24    4.14
  -1 -11  -2   97.19    2.63
  -2 -11  -2   16.76    1.12
  -3 -11  -2  243.41    4.35
  -4 -11  -2  935.30    8.94
  -4  11  -2  964.40    7.07
  -5  11  -2    3.63    0.50
  -5 -11  -2    4.14    0.65
   5  11   2    3.83    0.57
  -6 -11  -2   58.08    2.44
  -6  11  -2   58.11    2.02
   6  11   2   58.42    2.05
  -7  11  -2   41.38    1.84
  -8  11  -2  267.88    4.93
  -8 -11  -2  254.60    4.93
   8 -11   2  254.55    5.81
   8  11   2  258.24    5.37
   9  11   2   52.52    2.48
  -9  11  -2   51.07    2.30
   9 -11   2   52.46    2.76
  10 -11   2  323.70    6.90
 -10  11  -2  316.93    5.97
  10  11   2  322.61    6.13
  11 -11   2  309.45    6.77
  12 -11   2   88.92    3.60
  13 -11   2  297.04    6.37
  14 -11   2   13.14    1.32
  15 -11   2   11.16    1.09
  16 -11   2   28.49    1.48
  17 -11   2   94.04    2.07
  17 -12  -2   69.86    2.02
  16 -12  -2    0.09    0.31
  16 -12  -2    0.10    0.28
  15 -12  -2   53.97    2.37
  14 -12  -2    2.55    0.70
  13 -12  -2    8.85    1.21
  12 -12  -2    9.74    1.28
  11 -12  -2   67.53    3.22
  11  12  -2   69.00    2.61
  10 -12  -2    2.45    0.79
 -10  12   2    3.39    0.72
   9 -12  -2    8.87    1.20
   9  12  -2    7.03    0.87
   9 -12  -2    8.08    0.97
   8 -12  -2    5.00    0.76
   8 -12  -2    4.81    0.91
   8  12  -2    5.15    0.83
   7 -12  -2   47.16    2.11
   6 -12  -2    0.44    0.30
  -6  12   2   -0.18    0.25
   5 -12  -2   54.58    2.11
  -5  12   2   53.06    2.03
   5  12  -2   55.38    1.88
   4  12  -2   11.04    0.84
   3 -12  -2   52.74    1.98
   3  12  -2   49.74    1.75
   2 -12  -2  111.50    2.82
   1 -12  -2   45.86    1.82
   0 -12  -2   18.35    1.17
  -1 -12  -2    7.03    0.76
  -2 -12  -2  175.87    3.72
  -3 -12  -2  166.18    3.72
   4  12   2  167.28    3.69
  -4 -12  -2  164.39    3.84
   5  12   2   72.21    2.40
  -5 -12  -2   66.98    2.57
  -6 -12  -2   40.67    2.10
   6  12   2   43.89    1.87
  -7 -12  -2  171.59    4.48
  -7  12  -2  172.19    3.82
   7 -12   2  171.68    4.73
   7  12   2  176.05    4.41
  -7 -12  -2  164.75    4.02
   8  12   2    7.17    0.97
  -8  12  -2    5.74    0.76
   8 -12   2    6.88    1.07
  -8 -12  -2    5.85    0.81
   9 -12   2   53.30    2.82
  -9  12  -2   50.75    2.32
   9  12   2   49.93    2.45
  -9 -12  -2   50.53    2.25
  10  12   2   17.26    1.49
  10 -12   2   19.99    1.77
  11 -12   2    0.50    0.58
  12 -12   2    0.09    0.56
  13 -12   2   84.93    3.36
  14 -12   2   14.49    1.33
  15 -12   2    2.53    0.55
  16 -12   2   24.11    1.30
  17 -13  -2   78.05    1.95
  16 -13  -2    6.55    0.74
  16 -13  -2    6.08    0.68
  15 -13  -2   19.86    1.41
  14 -13  -2    1.58    0.54
  13 -13  -2  294.76    6.32
  12  13  -2   46.25    2.06
  12 -13  -2   42.10    2.53
  11 -13  -2   23.39    1.93
  11  13  -2   22.63    1.53
  10  13  -2   15.94    1.31
  10 -13  -2   21.85    1.89
   9  13  -2    6.01    0.77
   9 -13  -2    7.29    1.11
   9 -13  -2    7.59    0.99
   8 -13  -2   85.18    3.53
  -8  13   2   84.89    3.16
   8  13  -2   88.40    3.00
   8 -13  -2   90.29    3.06
   7 -13  -2   11.05    1.05
   7 -13  -2   12.51    1.36
   7  13  -2   11.25    1.13
  -7  13   2   10.00    1.10
   6 -13  -2   53.88    2.22
  -6  13   2   56.84    2.18
   5 -13  -2   19.70    1.31
  -5  13   2   20.54    1.32
   4 -13  -2    0.97    0.35
  -4  13   2    1.33    0.39
  -3  13   2  576.85    7.07
   2 -13  -2   57.16    2.10
   1 -13  -2   13.74    1.03
   0 -13  -2   99.02    2.78
  -1 -13  -2  370.87    5.39
  -2 -13  -2  187.42    3.95
  -3 -13  -2    1.04    0.42
   3  13   2    0.71    0.37
   4  13   2  169.06    3.87
   5  13   2    2.47    0.49
   6  13   2   48.75    2.06
  -6 -13  -2   45.13    2.12
   6 -13   2   41.86    2.31
   6  13   2   46.07    2.26
  -7 -13  -2   13.75    1.22
   7  13   2   12.84    1.26
  -8 -13  -2  135.64    3.75
   8  13   2  142.91    4.14
   8 -13   2  136.09    4.41
   9  13   2  206.05    5.06
   9 -13   2  203.79    5.47
  -9 -13  -2  208.07    4.60
  10 -13   2   80.18    3.49
  10  13   2   83.40    3.20
  11 -13   2  101.04    3.88
  12 -13   2  143.71    4.48
  13 -13   2   11.04    1.25
  14 -13   2    6.32    0.90
  15 -13   2    2.63    0.56
  16 -13   2   20.37    1.12
  16 -14  -2   24.26    1.26
  15 -14  -2    0.46    0.32
  14 -14  -2    3.15    0.69
  13 -14  -2    2.93    0.78
  12 -14  -2    2.17    0.76
  12  14  -2   -0.02    0.31
  11 -14  -2   39.64    2.49
  11  14  -2   36.28    1.91
  10 -14  -2   30.69    2.23
  10  14  -2   30.30    1.80
   9 -14  -2    1.39    0.69
   9  14  -2    0.94    0.70
   8 -14  -2  139.94    4.61
   8  14  -2  144.70    3.90
  -8  14   2  133.03    4.01
  -7  14   2    1.39    0.57
   7  14  -2    0.97    0.52
   7 -14  -2    0.72    0.46
   6  14  -2   18.85    1.42
   6 -14  -2   18.39    1.61
  -6  14   2   18.72    1.32
  -6  14   2   19.42    1.59
   5  14  -2   35.65    1.89
   5 -14  -2   31.87    2.06
  -5  14   2   34.74    1.79
  -5  14   2   34.07    2.06
  -4  14   2   75.08    2.65
  -3  14   2    1.71    0.47
  -2  14   2  307.01    5.40
  -1  14   2  630.84    7.75
   0  14   2    0.73    0.29
   1  14   2    1.35    0.48
   2  14   2   17.51    1.33
   3  14   2   93.66    3.02
   4  14   2   52.55    2.27
  -4 -14  -2   47.40    2.18
   4  14   2   51.87    2.33
   5  14   2   15.32    1.24
   5 -14   2   16.67    1.48
   5  14   2   16.08    1.38
  -5 -14  -2   16.81    1.35
  -6 -14  -2  139.25    3.84
   6 -14   2  142.37    4.33
   6  14   2  147.03    3.74
   6  14   2  145.63    4.11
   7 -14   2  411.97    7.57
  -7 -14  -2  409.19    6.58
   7  14   2  401.36    6.96
   8 -14   2  102.90    3.87
   8  14   2   98.89    3.51
  -8 -14  -2   96.27    3.23
  -9 -14  -2   14.85    1.26
   9 -14   2   16.26    1.62
   9  14   2   14.25    1.36
  10 -14   2    5.71    1.04
 -10 -14  -2    8.50    0.96
  11 -14   2  112.41    4.02
  12 -14   2    6.45    1.03
  13 -14   2    0.33    0.44
  14 -14   2    0.56    0.42
  15 -14   2   22.17    1.30
  16 -14   2   55.60    1.63
  16 -15  -2    7.08    0.63
  15 -15  -2    1.10    0.37
  15 -15  -2    1.35    0.41
  14 -15  -2    0.13    0.37
  13 -15  -2   55.68    2.58
  13  15  -2   59.83    2.08
  12 -15  -2   93.01    3.54
  12  15  -2   95.09    2.87
  11 -15  -2    9.00    1.20
  11  15  -2    9.73    1.02
  10 -15  -2   30.60    2.21
  10  15  -2   32.34    1.86
   9  15  -2  210.97    4.76
   9 -15  -2  212.07    5.73
  -9  15   2  219.48    5.12
   8 -15  -2   22.28    1.88
  -8  15   2   19.27    1.60
   8  15  -2   21.38    1.53
   7  15  -2   14.16    1.26
   7 -15  -2   13.90    1.49
  -7  15   2   12.03    1.29
   6  15  -2  157.39    4.08
   6 -15  -2  154.13    4.66
  -6  15   2  145.23    4.36
   5  15  -2   29.92    1.78
   5 -15  -2   29.59    2.02
  -5  15   2   28.84    1.72
  -5  15   2   29.02    1.97
   4  15  -2   35.44    1.90
  -4  15   2   34.87    1.89
   4 -15  -2   34.02    2.09
  -4  15   2   34.69    2.15
   3  15  -2  390.62    6.13
  -3  15   2  392.60    6.35
  -3  15   2  387.78    7.06
  -2  15   2   47.43    2.23
  -2  15   2   47.94    2.50
  -1  15   2  237.60    4.97
   0  15   2    0.31    0.37
   1  15   2  174.24    4.29
   2  15   2  292.16    5.54
   2  15   2  280.83    5.30
   3  15   2   33.47    1.90
  -3 -15  -2   35.90    1.95
   3  15   2   36.08    1.97
  -4 -15  -2   23.18    1.59
   4  15   2   20.60    1.50
   4  15   2   19.44    1.50
   5  15   2   27.27    1.72
   5 -15   2   28.27    1.91
  -5 -15  -2   30.49    1.84
   5  15   2   28.05    1.82
   6 -15   2  355.07    6.91
   6  15   2  343.33    5.91
   6  15   2  359.36    6.59
  -6 -15  -2  355.41    6.27
   7 -15   2   56.59    2.85
   7  15   2   59.21    2.73
  -7 -15  -2   55.22    2.48
   8  15   2  252.57    5.63
   8 -15   2  251.66    6.05
  -8 -15  -2  250.42    5.21
   9 -15   2   72.60    3.27
   9  15   2   68.19    2.91
  -9 -15  -2   71.25    2.72
 -10 -15  -2  144.56    3.69
  10 -15   2  142.44    4.54
  11 -15   2    0.65    0.57
  12 -15   2   15.02    1.39
  13 -15   2    1.97    0.58
  14 -15   2    0.07    0.31
  15 -15   2   70.90    2.10
  15 -16  -2    5.60    0.62
  14 -16  -2    5.47    0.74
  13  16  -2    2.23    0.43
  13 -16  -2    3.37    0.69
  12 -16  -2   10.32    1.21
  12  16  -2   10.93    0.99
  11  16  -2    1.52    0.51
  11 -16  -2    1.22    0.57
  10 -16  -2   92.16    3.68
  10  16  -2   86.68    2.99
  -9  16   2   14.93    1.39
   9 -16  -2   14.96    1.53
   9  16  -2   16.92    1.38
   8  16  -2   11.29    1.07
   8 -16  -2   11.29    1.37
  -8  16   2   10.25    1.21
   7 -16  -2    9.46    1.23
   7  16  -2    8.60    1.01
  -7  16   2    8.37    1.13
   6 -16  -2    3.13    0.81
   6  16  -2    2.17    0.65
  -6  16   2    3.58    0.79
  -5  16   2   31.78    2.11
  -5  16   2   31.55    1.86
   5 -16  -2   34.18    2.19
   5  16  -2   32.22    1.89
  -4  16   2   45.24    2.26
  -4  16   2   41.69    2.41
   4 -16  -2   43.52    2.40
   4  16  -2   44.04    2.15
  -3  16   2    1.23    0.61
   3  16  -2    0.88    0.45
  -3  16   2    0.56    0.37
   2  16  -2  121.63    3.47
  -2  16   2  121.23    3.68
  -2  16   2  121.73    4.09
   2  16  -2  126.80    3.77
   1  16  -2  132.73    3.58
  -1  16   2  132.77    4.26
  -1  16   2  138.27    3.95
   1  16  -2  135.38    3.98
   0  16  -2   41.79    1.97
   0  16   2   44.82    2.49
   0  16   2   43.30    2.23
   1  16   2   30.22    1.88
   1  16   2   28.08    1.70
   2  16   2   38.87    2.05
   2  16   2   37.56    2.10
  -3 -16  -2   56.47    2.51
   3  16   2   59.75    2.63
   3  16   2   63.57    2.65
   4  16   2    0.70    0.43
   4  16   2    1.53    0.56
  -4 -16  -2    1.19    0.50
   5  16   2  106.42    3.47
  -5 -16  -2  112.76    3.56
   5  16   2  105.13    3.57
   6 -16   2   27.10    1.92
   6  16   2   26.17    1.84
  -6 -16  -2   26.12    1.74
   7 -16   2    0.37    0.49
  -7 -16  -2    0.57    0.40
   7  16   2    0.82    0.58
   8 -16   2   36.51    2.30
   8  16   2   34.95    2.12
  -8 -16  -2   33.77    1.93
   9 -16   2    3.11    0.82
   9  16   2    3.03    0.68
  -9 -16  -2    5.30    0.80
 -10 -16  -2   17.61    1.28
  10 -16   2   18.19    1.62
  11 -16   2   77.15    3.11
 -12  16  -2    0.42    0.29
  12 -16   2    0.61    0.45
  13 -16   2   26.54    1.59
  14 -16   2    1.44    0.43
  15 -16   2    0.97    0.29
  15 -17  -2    1.98    0.35
  14 -17  -2   52.57    1.86
  13 -17  -2    3.45    0.66
  13  17  -2    1.99    0.39
  12  17  -2   13.53    1.04
  12 -17  -2   12.92    1.26
  11 -17  -2    4.33    0.78
  11  17  -2    5.00    0.72
 -10  17   2   -0.04    0.36
  10  17  -2    1.42    0.54
  10 -17  -2    0.47    0.48
  -9  17   2   28.01    1.83
   9 -17  -2   25.99    1.98
  -9 -17   2   29.83    1.64
   9  17  -2   28.31    1.74
  -8  17   2   11.75    1.26
   8 -17  -2   14.36    1.51
   8  17  -2   10.36    1.03
   7 -17  -2   77.38    3.38
  -7  17   2   73.87    3.18
   7  17  -2   75.27    2.90
   6 -17  -2   16.94    1.60
   6  17  -2   14.98    1.31
  -6  17   2   14.35    1.46
   5  17  -2    0.26    0.44
   5 -17  -2    0.38    0.45
  -5  17   2    0.20    0.44
   4 -17  -2   22.18    1.74
  -4  17   2   23.53    1.69
  -4  17   2   22.08    1.81
   4  17  -2   23.10    1.61
   3  17  -2  381.15    6.29
  -3  17   2  377.43    6.71
  -3  17   2  380.37    7.37
   3 -17  -2  378.70    6.03
   2  17  -2   58.04    2.45
  -2  17   2   58.10    2.65
  -2  17   2   58.90    2.92
   2  17  -2   64.50    2.76
   2 -17  -2   61.06    2.48
   1  17  -2  126.72    3.52
  -1  17   2  128.61    3.96
   1 -17  -2  131.70    3.72
  -1  17   2  127.62    4.28
   1  17  -2  126.73    3.95
   0  17  -2  100.48    3.09
   0  17   2  101.42    3.78
   0  17   2  103.25    3.56
   0  17  -2  106.03    3.68
   0 -17  -2  100.38    3.29
   1  17   2  125.41    3.95
  -1 -17  -2  135.29    3.85
   1  17   2  126.50    3.61
   2  17   2   25.73    1.79
  -2 -17  -2   27.36    1.79
   2  17   2   27.50    1.76
   3  17   2   14.48    1.35
  -3 -17  -2   13.79    1.31
   3  17   2   14.47    1.31
  -4 -17  -2   24.73    1.70
   4  17   2   21.82    1.65
  -5 -17  -2   16.51    1.41
   5  17   2   16.11    1.44
   6 -17   2  437.02    7.49
  -6 -17  -2  428.23    6.97
   6  17   2  426.32    7.25
   7  17   2   87.86    3.30
   7 -17   2   85.93    3.40
  -7 -17  -2   86.09    3.08
   8 -17   2  255.72    5.83
   8  17   2  257.19    5.57
  -8 -17  -2  264.21    5.25
   9 -17   2  128.80    4.11
  -9 -17  -2  122.86    3.44
  10 -17   2   87.48    3.30
 -10 -17  -2   91.17    2.76
  11 -17   2    3.40    0.70
 -11  17  -2    3.49    0.65
  12 -17   2    7.05    0.88
 -12  17  -2    8.14    0.79
  13 -17   2    2.84    0.54
  14 -17   2   48.71    1.66
  14 -18  -2   38.03    1.35
  13 -18  -2    0.70    0.33
  12  18  -2   10.05    0.84
  12 -18  -2   12.26    1.13
  11 -18  -2    1.47    0.59
  11  18  -2    1.58    0.43
  10 -18  -2    6.58    1.00
  10  18  -2    8.31    0.92
  -9 -18   2   19.89    1.31
   9 -18  -2   22.02    1.78
  -9  18   2   16.54    1.37
   9  18  -2   21.10    1.47
   8 -18  -2   19.94    1.69
   8  18  -2   22.06    1.56
  -8  18   2   20.66    1.63
   7 -18  -2   87.73    3.51
  -7  18   2   83.79    3.38
   7  18  -2   89.93    3.13
  -6  18   2  174.91    4.96
   6  18  -2  182.27    4.50
   6 -18  -2  183.40    5.01
   5  18  -2   30.72    1.87
   5 -18  -2   28.71    1.99
  -5  18   2   32.22    2.19
   4  18  -2   50.66    2.38
  -4  18   2   48.29    2.68
  -3  18   2   23.21    1.89
   3 -18  -2   24.52    1.57
   3  18  -2   25.13    1.67
  -2  18   2    9.80    1.26
   2  18  -2    9.31    1.10
   2  18  -2    9.56    1.03
   2 -18  -2    9.42    1.03
   1  18  -2   23.82    1.57
  -1  18   2   21.86    1.83
   1  18  -2   22.74    1.70
   1 -18  -2   23.71    1.62
   0  18  -2    0.98    0.57
   0  18  -2    1.25    0.45
   0 -18  -2    2.30    0.64
  -1  18  -2   48.16    2.58
   1  18   2   44.85    2.21
  -1 -18  -2   43.84    2.26
   2  18   2   16.94    1.38
  -2 -18  -2   16.54    1.43
  -3 -18  -2    8.75    1.08
   3  18   2    9.28    1.08
   4  18   2    5.71    0.88
  -4 -18  -2    6.23    0.92
  -5 -18  -2  113.39    3.62
   5  18   2  113.11    3.71
  -6 -18  -2   34.98    2.00
   6  18   2   37.06    2.15
   7 -18   2   14.86    1.41
  -7 -18  -2   14.27    1.27
   7  18   2   14.30    1.35
  -8 -18  -2    3.78    0.68
   8 -18   2    3.29    0.73
   8  18   2    3.64    0.79
   9 -18   2   13.18    1.26
  -9  18  -2   13.18    1.30
  -9 -18  -2   12.70    1.09
  10 -18   2   13.00    1.21
 -10 -18  -2   11.20    0.94
 -10  18  -2   11.62    1.13
  11 -18   2   96.26    3.02
 -11  18  -2   96.08    2.80
 -12  18  -2   31.11    1.36
  12 -18   2   31.89    1.60
  13 -18   2    1.76    0.38
  13 -19  -2    4.04    0.48
  12 -19  -2    1.41    0.33
  12  19  -2    1.75    0.38
  11  19  -2   17.09    1.13
  10  19  -2   43.52    1.91
  -9 -19   2    8.24    0.82
   9  19  -2    9.67    1.00
  -8 -19   2    1.24    0.41
  -8  19   2    1.29    0.46
   8  19  -2    1.82    0.51
  -7  19   2   12.84    1.31
   7  19  -2   15.15    1.31
   6  19  -2    8.96    1.00
  -6  19   2   13.57    1.40
  -5  19   2  228.72    5.68
   5  19  -2  232.93    5.04
  -4  19   2  127.37    4.30
   4  19  -2  120.89    3.63
  -3  19   2  128.21    4.32
   3 -19  -2  134.84    3.56
   3  19  -2  126.16    3.69
   2  19  -2    2.84    0.67
   2  19  -2    2.88    0.63
  -2  19   2    2.62    0.75
   2 -19  -2    3.60    0.68
   1  19  -2   20.08    1.43
   1  19  -2   20.37    1.61
   1 -19  -2   22.36    1.57
   0  19  -2   17.39    1.53
   0 -19  -2   17.93    1.46
   0  19  -2   19.09    1.38
  -1  19  -2  286.21    6.19
   1  19   2  274.60    5.35
  -1 -19  -2  280.22    5.68
  -2  19  -2  100.23    3.75
   2  19   2   96.32    3.23
  -2 -19  -2  103.04    3.46
  -3  19  -2    1.95    0.70
   3  19   2    1.32    0.52
  -3 -19  -2    0.63    0.43
   4  19   2   19.23    1.53
  -4 -19  -2   20.78    1.58
  -4  19  -2   18.79    1.69
  -5  19  -2   38.20    2.34
   5  19   2   41.40    2.21
  -5 -19  -2   39.21    2.11
  -6  19  -2   16.11    1.54
  -6 -19  -2   16.31    1.37
   6  19   2   16.31    1.42
  -7  19  -2   11.96    1.29
   7 -19   2   11.11    1.13
   7  19   2   10.88    1.15
  -7 -19  -2   11.59    1.13
   8 -19   2   21.33    1.51
  -8  19  -2   21.61    1.62
  -8 -19  -2   20.60    1.40
   9 -19   2    6.24    0.85
  -9 -19  -2    6.74    0.77
  -9  19  -2    6.21    0.88
 -10  19  -2   14.87    1.17
  10 -19   2   12.97    1.10
 -10 -19  -2   13.74    0.95
  11 -19   2   14.68    1.08
 -11  19  -2   14.17    0.99
  12 -19   2    2.01    0.42
 -12  19  -2    2.48    0.39
  11 -20  -2   54.94    1.70
  11  20  -2   59.42    1.90
  10  20  -2   11.01    0.92
  -9 -20   2   38.01    1.59
   9  20  -2   38.47    1.81
   8  20  -2    4.48    0.72
  -8 -20   2    5.61    0.70
   7  20  -2    0.70    0.46
   6  20  -2   11.88    1.14
   5  20  -2   63.21    2.58
  -5  20   2   68.67    3.06
   4  20  -2   57.82    2.47
   3 -20  -2   65.55    2.43
   3  20  -2   64.31    2.58
   2  20  -2   34.61    1.99
   2 -20  -2   33.60    1.84
   2  20  -2   31.64    1.80
   1  20  -2   29.37    1.90
   1 -20  -2   28.27    1.73
   1  20  -2   28.30    1.66
   0  20  -2   22.50    1.73
   0 -20  -2   22.82    1.61
   0  20  -2   21.72    1.42
   1  20   2    0.44    0.38
  -1  20  -2    0.79    0.42
  -1 -20  -2    0.41    0.35
  -2  20  -2   46.56    2.51
   2  20   2   44.97    2.17
  -2 -20  -2   45.89    2.28
  -3  20  -2   29.07    2.00
   3  20   2   27.49    1.75
  -3 -20  -2   30.17    1.86
   4  20   2   49.63    2.35
  -4 -20  -2   53.97    2.44
  -4  20  -2   52.92    2.68
  -5  20  -2    0.85    0.44
   5  20   2    0.54    0.41
  -5 -20  -2    0.45    0.41
  -6  20  -2   52.91    2.61
  -6 -20  -2   53.64    2.32
   6  20   2   51.83    2.37
  -7  20  -2    1.94    0.60
  -7 -20  -2    2.21    0.56
   8 -20   2  107.29    3.00
  -8  20  -2  104.05    3.31
  -8 -20  -2  113.94    3.05
   9 -20   2    3.61    0.60
  -9 -20  -2    3.52    0.52
  -9  20  -2    3.63    0.62
  10 -20   2    0.69    0.33
 -10  20  -2    0.33    0.28
 -10 -20  -2    0.15    0.23
 -11  20  -2   14.39    0.89
  11 -20   2   14.77    0.91
  11  21  -2   48.77    1.51
  10  21  -2   14.46    0.97
   9  21  -2    0.86    0.36
  -9 -21   2    0.60    0.25
  -8 -21   2   41.09    1.68
   8  21  -2   43.48    1.88
   7  21  -2    0.82    0.42
  -7 -21   2    0.44    0.36
   6  21  -2    0.55    0.39
   5  21  -2   26.39    1.60
   4  21  -2    1.84    0.54
   3 -21  -2   35.40    1.70
   3  21  -2   33.80    1.81
   2  21  -2   43.16    2.11
   2 -21  -2   42.88    1.99
   2  21  -2   41.55    1.97
   1  21  -2    1.85    0.45
   1  21  -2    2.01    0.65
   1 -21  -2    2.01    0.53
   0  21  -2   59.27    2.65
   0 -21  -2   61.21    2.50
   0  21  -2   57.68    2.18
  -1  21  -2  111.87    3.70
  -1 -21  -2  112.23    3.42
  -2 -21  -2  258.48    5.22
   2  21   2  239.44    4.74
  -2  21  -2  250.93    5.55
  -3  21  -2    4.96    0.85
  -3 -21  -2    6.07    0.90
   3  21   2    5.61    0.78
   4  21   2    1.84    0.53
  -4  21  -2    2.34    0.65
  -4 -21  -2    1.91    0.54
  -5  21  -2    7.87    1.04
  -5 -21  -2    7.92    0.92
  -6  21  -2    5.10    0.82
  -6 -21  -2    3.55    0.63
  -7  21  -2   61.32    2.50
  -7 -21  -2   63.21    2.26
  -8  21  -2    3.13    0.60
  -8 -21  -2    2.99    0.51
  -9 -21  -2    6.68    0.63
  -9  21  -2    6.32    0.72
 -10  21  -2   69.07    1.99
 -10 -21  -2   64.09    1.53
  10  22  -2   74.67    1.86
  -9 -22   2   45.27    1.33
   9  22  -2   51.11    1.74
   8  22  -2    0.26    0.31
  -8 -22   2    0.21    0.24
  -7 -22   2   32.27    1.49
   7  22  -2   31.34    1.56
  -6 -22   2   16.34    1.16
   6  22  -2   14.27    1.10
   5  22  -2   22.73    1.40
   4  22  -2   32.50    1.68
   3  22  -2   12.76    1.07
   2 -22  -2   24.13    1.41
   2  22  -2   23.80    1.41
   1  22  -2    0.28    0.31
   1  22  -2    0.25    0.36
   1 -22  -2    0.12    0.30
   0 -22  -2   62.16    2.40
   0  22  -2   65.46    2.65
  -1  22  -2   10.08    1.09
  -1 -22  -2    8.45    0.93
  -2  22  -2    6.59    0.91
  -2 -22  -2    6.60    0.85
  -3  22  -2   -0.07    0.40
  -3 -22  -2    0.16    0.36
  -4 -22  -2    5.44    0.76
  -4  22  -2    5.57    0.84
  -5 -22  -2   18.76    1.28
  -5  22  -2   18.26    1.41
  -6 -22  -2   11.83    0.98
  -6  22  -2   12.06    1.12
  -7  22  -2    1.58    0.48
  -7 -22  -2    1.66    0.41
  -8  22  -2   16.18    1.11
  -8 -22  -2   16.43    0.97
  -9  22  -2    9.36    0.77
  -9 -22  -2    8.23    0.59
   9  23  -2    9.95    0.69
   8  23  -2    2.60    0.42
  -8 -23   2    2.58    0.36
  -7 -23   2   28.19    1.23
   7  23  -2   28.44    1.34
   6  23  -2  105.24    2.65
  -6 -23   2  105.55    2.58
  -5 -23   2    6.66    0.74
   5  23  -2    6.77    0.74
  -4 -23   2   37.56    1.72
   4  23  -2   36.04    1.62
   3  23  -2   83.51    2.43
   2  23  -2    6.48    0.71
   2 -23  -2    7.41    0.73
   1 -23  -2   15.32    1.08
   1  23  -2   13.12    0.93
   0 -23  -2   25.31    1.41
  -1  23  -2    2.77    0.59
  -1 -23  -2    2.51    0.53
  -2  23  -2   20.61    1.44
  -2 -23  -2   21.19    1.34
  -3  23  -2   18.87    1.37
  -3 -23  -2   17.54    1.22
  -4  23  -2   14.27    1.18
  -4 -23  -2   14.71    1.09
  -5  23  -2    1.26    0.44
  -5 -23  -2    1.86    0.47
  -6 -23  -2   21.62    1.18
  -6  23  -2   21.78    1.32
  -7 -23  -2    4.83    0.54
  -7  23  -2    5.02    0.62
  -8  23  -2    0.33    0.24
  -8 -23  -2    0.38    0.20
  -7 -24   2   61.50    1.50
   7  24  -2   60.58    1.66
   6  24  -2   13.00    0.84
  -6 -24   2   14.63    0.85
  -5 -24   2   22.62    1.15
   5  24  -2   20.04    1.07
   4  24  -2   34.74    1.39
  -4 -24   2   37.30    1.53
   3  24  -2   31.56    1.32
  -3 -24   2   34.03    1.51
   2  24  -2   31.22    1.27
  -2 -24   2   34.36    1.55
   1 -24  -2    6.60    0.63
  -1 -24   2    7.26    0.75
   0 -24  -2    5.82    0.64
   0 -24   2    5.99    0.68
  -1 -24  -2   12.24    0.93
   1 -24   2   14.12    0.95
  -2 -24  -2   84.55    2.35
   2 -24   2   80.51    2.10
  -3 -24  -2   33.30    1.47
   3 -24   2   29.36    1.14
  -4  24  -2    6.83    0.75
  -4 -24  -2    8.24    0.75
  -5  24  -2    6.16    0.69
  -5 -24  -2    5.33    0.58
  -6 -24  -2   19.47    0.97
  -7 -24  -2    0.67    0.21
  -5 -25   2   -0.16    0.17
  -4 -25   2   11.21    0.74
  -3 -25   2   16.24    0.92
  -2 -25   2    8.51    0.69
   1 -25  -2    0.24    0.21
  -1 -25   2    0.00    0.23
   0 -25  -2    0.17    0.22
   0 -25   2    0.26    0.22
  -1 -25  -2   23.68    1.07
   1 -25   2   22.31    0.99
  -2 -25  -2   14.13    0.85
   2 -25   2   11.84    0.65
  -3 -25  -2   12.44    0.78
  -4 -25  -2    8.52    0.62
  -5 -25  -2   25.18    0.97
  19   0  -3    0.38    0.32
  18   0  -3    0.38    0.40
  17   0  -3    0.03    0.41
  16   0  -3    0.24    0.52
  15   0  -3    0.39    0.48
  14   0  -3   -0.02    0.45
  13   0  -3   -0.30    0.58
  12   0  -3    0.75    0.53
 -12   0   3    0.25    0.33
 -11   0   3    0.70    0.33
 -10   0   3    0.10    0.21
  -9   0   3    0.81    0.29
   9   0  -3    0.31    0.30
  -8   0   3    0.32    0.20
   8   0  -3    0.36    0.28
   7   0  -3    0.33    0.27
   6   0  -3    0.22    0.19
   5   0  -3    0.25    0.17
   5   0  -3    1.53    0.31
   4   0  -3    0.28    0.20
   3   0  -3    0.69    0.19
   3   0  -3    0.07    0.15
   2   0  -3    0.09    0.14
   1   0  -3    0.16    0.16
   0   0  -3    0.17    0.15
  -1   0  -3    0.70    0.21
  -2   0  -3    0.15    0.17
  -3   0  -3    0.19    0.19
  -4   0  -3    0.37    0.21
  -5   0  -3    0.46    0.27
  -6   0  -3    0.92    0.35
  -7   0  -3    1.58    0.43
  -8   0  -3    2.52    0.51
  -9   0  -3   -0.06    0.32
 -10   0  -3   -0.07    0.30
 -11   0  -3    0.26    0.34
  11   0   3    0.52    0.37
 -12   0  -3   -0.15    0.44
  12   0   3    0.13    0.39
  13   0   3   -0.08    0.38
  14   0   3   -0.03    0.36
  15   0   3    0.96    0.54
  16   0   3    0.53    0.54
  17   0   3    0.76    0.42
  18   0   3    0.32    0.32
  19  -1  -3   19.45    1.15
  19   1  -3   18.36    1.15
  18   1  -3    1.72    0.54
  18  -1  -3    2.08    0.56
  17  -1  -3   74.83    2.99
  17   1  -3   76.60    3.07
  16   1  -3   31.89    2.16
  16  -1  -3   29.76    2.05
  15   1  -3    1.40    0.61
  15  -1  -3    2.34    0.70
  14   1  -3  143.11    4.70
  14  -1  -3  150.12    4.76
  14  -1  -3  154.42    4.26
  13   1  -3  147.81    4.71
  13  -1  -3  145.04    4.59
  13  -1  -3  144.62    4.18
  12   1  -3  148.03    4.56
  12  -1  -3  149.02    4.52
 -12   1   3  155.35    3.86
 -11  -1   3  470.23    6.11
 -11   1   3  476.04    6.34
 -10   1   3   42.27    1.79
 -10  -1   3   40.73    1.68
  -9  -1   3  231.00    3.68
   9  -1  -3  233.78    4.17
  -9   1   3  238.41    3.94
  -8  -1   3   88.60    2.09
   8   1  -3   90.30    2.32
   8  -1  -3   88.85    2.42
  -8   1   3   90.15    2.24
  -7  -1   3 1641.81    8.28
   7   1  -3 1645.50    9.36
   6   1  -3    2.63    0.38
   6  -1  -3    3.17    0.43
   6   1  -3    2.60    0.42
   5  -1  -3  153.77    2.61
   5   1  -3  156.35    2.46
   4  -1  -3  166.15    2.59
   4  -1  -3  168.72    2.47
   4   1  -3  170.07    2.62
   3  -1  -3    0.37    0.18
   3   1  -3    0.48    0.17
   3  -1  -3    0.21    0.17
   2   1  -3  315.60    2.96
   2  -1  -3  307.41    3.29
   1   1  -3 1129.60    5.49
   1  -1  -3 1107.41    6.18
   0  -1  -3    3.95    0.40
   0   1  -3    3.56    0.34
  -1   1  -3  110.82    1.80
  -1  -1  -3  111.33    2.01
  -2  -1  -3   14.03    0.77
  -2   1  -3   13.35    0.69
  -3  -1  -3  406.07    4.34
  -3   1  -3  404.74    4.04
  -4  -1  -3  153.68    2.87
  -4   1  -3  158.78    2.75
  -5  -1  -3   13.49    0.93
  -5   1  -3   12.11    0.84
  -6   1  -3   86.23    2.39
  -6  -1  -3   86.97    2.48
  -7  -1  -3  332.64    5.21
  -7   1  -3  330.19    5.02
  -8  -1  -3   14.11    1.17
  -8   1  -3   15.14    1.18
  -9   1  -3    1.81    0.49
  -9  -1  -3    2.64    0.57
 -10   1  -3   64.12    2.73
 -10  -1  -3   62.18    2.75
 -11  -1  -3   78.87    3.29
 -11   1  -3   80.30    3.24
  11  -1   3   79.82    2.98
 -12   1  -3    1.30    0.51
  12  -1   3    1.82    0.56
 -12  -1  -3    1.15    0.54
  13   1   3   62.29    2.81
  13  -1   3   62.40    2.83
  13  -1   3   62.53    2.68
  14   1   3   61.29    2.78
  14  -1   3   62.42    2.81
  15   1   3   11.76    1.24
  15  -1   3   11.31    1.20
  16   1   3   39.11    2.07
  16  -1   3   35.23    1.97
  17  -1   3   57.28    2.26
  17   1   3   52.43    2.17
  18   1   3    0.57    0.33
  18  -1   3    0.88    0.32
  19   2  -3   76.78    2.30
  19  -2  -3   73.30    2.14
  18   2  -3    1.44    0.43
  18  -2  -3    1.14    0.43
  17   2  -3    0.69    0.53
  17  -2  -3   -0.28    0.43
  16   2  -3   18.21    1.62
  16  -2  -3   19.34    1.65
  15   2  -3    1.09    0.46
  15  -2  -3    1.91    0.63
  15  -2  -3    0.98    0.48
  14  -2  -3   -0.07    0.48
  14   2  -3    0.08    0.55
  14  -2  -3    0.05    0.39
  13   2  -3   31.36    2.21
  13  -2  -3   32.65    2.18
 -13   2   3   30.75    1.86
  12   2  -3   28.01    2.01
  12  -2  -3   31.23    2.09
 -12   2   3   31.73    1.79
 -11   2   3   19.82    1.34
 -10   2   3   45.94    1.90
  10  -2  -3   46.92    2.02
  -9   2   3   79.80    2.34
  -9  -2   3   80.30    2.13
   9  -2  -3   81.92    2.53
   8  -2  -3  160.00    3.31
  -8  -2   3  161.79    2.74
  -7  -2   3 1013.50    6.20
   7  -2  -3 1024.75    7.89
   7   2  -3 1020.12    7.08
   6   2  -3  125.77    2.29
   6  -2  -3  126.77    2.60
   6   2  -3  129.69    2.61
  -6  -2   3  120.96    1.95
   5   2  -3  242.77    2.93
   5   2  -3  239.47    3.36
   4   2  -3  108.11    1.81
   4  -2  -3  113.62    1.97
   4   2  -3  113.93    2.22
   4  -2  -3  110.73    2.21
   3  -2  -3  127.37    2.28
   3  -2  -3  125.76    1.92
   2  -2  -3  232.68    3.01
   2   2  -3  233.32    2.33
   2  -2  -3  237.40    2.48
   1  -2  -3  896.61    5.84
   1   2  -3  889.22    4.50
   0   2  -3   64.83    1.26
   0  -2  -3   66.70    1.62
  -1   2  -3  229.63    2.44
  -1  -2  -3  243.54    3.19
  -2   2  -3   35.58    1.06
  -2  -2  -3   35.49    1.27
  -3  -2  -3   27.09    1.18
  -3   2  -3   31.44    1.10
  -4   2  -3  175.66    2.85
  -4  -2  -3  178.21    3.19
  -5  -2  -3  215.33    3.75
  -5   2  -3  214.03    3.42
  -6  -2  -3  534.28    6.29
  -6   2  -3  531.69    5.84
  -7   2  -3  165.44    3.53
  -7  -2  -3  165.59    3.76
  -8  -2  -3  277.14    5.17
  -8   2  -3  282.08    4.98
  -9  -2  -3   58.28    2.56
  -9   2  -3   63.28    2.54
 -10   2  -3    0.14    0.36
 -10  -2  -3    0.38    0.34
 -11  -2  -3   38.07    2.33
 -11   2  -3   38.44    2.26
  11  -2   3   36.62    2.07
 -12   2  -3    0.94    0.43
  12   2   3    0.91    0.43
  12  -2   3    0.81    0.41
 -12  -2  -3    1.05    0.59
  13  -2   3    9.27    1.13
  13   2   3    8.29    1.07
  13  -2   3    9.50    1.10
  14   2   3  205.85    5.04
  14  -2   3  209.97    5.11
  14  -2   3  200.12    4.71
  15   2   3  527.29    7.83
  15  -2   3  543.48    7.94
  16   2   3   90.46    3.07
  16  -2   3   93.89    3.16
  17   2   3   40.48    1.87
  17  -2   3   40.86    1.90
  18   2   3   15.13    0.99
  18  -2   3   15.15    1.01
  19   3  -3    3.00    0.50
  19  -3  -3    3.13    0.48
  18   3  -3    0.29    0.38
  18  -3  -3    0.44    0.29
  17   3  -3   14.95    1.37
  17  -3  -3   15.38    1.33
  16  -3  -3   14.78    1.24
  16  -3  -3   14.05    1.39
  16   3  -3   13.70    1.43
  15  -3  -3   33.68    2.21
  15  -3  -3   34.09    2.00
  15   3  -3   35.86    2.37
  14   3  -3    1.33    0.68
  14  -3  -3    1.07    0.57
  14  -3  -3    0.55    0.47
  13   3  -3    1.40    0.62
  13  -3  -3    1.27    0.57
 -13   3   3    1.68    0.57
  12   3  -3  107.84    3.92
  12  -3  -3  110.84    3.87
 -12   3   3  114.96    3.45
 -11   3   3  424.40    6.25
  10  -3  -3    8.95    0.93
 -10   3   3    8.03    0.85
   9  -3  -3   28.74    1.55
  -9   3   3   30.08    1.49
   8  -3  -3   21.15    1.25
  -8  -3   3   21.93    0.99
  -7  -3   3  402.54    3.82
   7  -3  -3  415.26    5.13
   6  -3  -3   15.99    0.97
  -6  -3   3   16.76    0.69
   6   3  -3   15.47    0.96
  -5  -3   3  613.19    3.56
   5   3  -3  615.76    4.51
   4   3  -3   25.63    0.84
  -4  -3   3   23.76    0.59
   4  -3  -3   25.10    1.11
   4   3  -3   23.52    1.05
   3   3  -3    5.60    0.36
  -3  -3   3    5.29    0.22
   3  -3  -3    6.22    0.42
   3  -3  -3    6.07    0.55
   2   3  -3 1077.68    4.51
   2  -3  -3 1096.94    5.02
   2  -3  -3 1088.63    6.84
   1  -3  -3   92.26    1.98
   1   3  -3   92.36    1.29
   0   3  -3  168.40    1.72
   0  -3  -3  167.17    2.70
  -1   3  -3    1.21    0.19
  -1  -3  -3    1.18    0.28
  -1  -3  -3    1.31    0.31
  -2   3  -3  429.06    3.55
  -2  -3  -3  412.42    4.53
  -3   3  -3  473.41    4.19
  -3  -3  -3  474.11    5.08
  -4  -3  -3  453.64    5.30
  -4   3  -3  456.91    4.51
  -5   3  -3    9.76    0.73
  -5  -3  -3   10.21    0.86
  -6   3  -3    1.52    0.35
  -6  -3  -3    2.29    0.50
  -7  -3  -3  258.46    4.80
  -7   3  -3  248.00    4.28
  -8   3  -3  127.95    3.34
  -8  -3  -3  128.14    3.62
  -9   3  -3   77.04    2.77
  -9  -3  -3   79.12    3.03
 -10   3  -3   74.11    2.90
 -10  -3  -3   69.00    2.99
 -11  -3  -3  150.29    4.65
 -11   3  -3  146.54    4.35
  11  -3   3  144.99    4.14
  12   3   3   95.38    3.39
 -12   3  -3   88.28    3.52
 -12  -3  -3   88.08    3.71
  12  -3   3   89.34    3.34
  13   3   3   29.11    1.94
  13  -3   3   26.35    1.85
  13  -3   3   30.00    1.96
  14   3   3  175.39    4.60
  14  -3   3  173.43    4.61
  14  -3   3  180.33    4.55
  15   3   3  151.46    4.18
  15  -3   3  163.62    4.35
  15  -3   3  163.15    4.04
  16   3   3  231.37    4.84
  16  -3   3  243.08    4.97
  17   3   3   53.15    2.09
  17  -3   3   58.26    2.23
  18   3   3   82.39    2.16
  18  -3   3   86.70    2.30
  19  -4  -3   12.24    0.79
  19   4  -3   14.09    0.95
  18   4  -3    1.13    0.42
  18  -4  -3    1.12    0.40
  17   4  -3    3.34    0.71
  17  -4  -3    3.22    0.65
  17  -4  -3    2.96    0.55
  16  -4  -3   96.27    3.16
  16   4  -3  102.59    3.75
  16  -4  -3  102.17    3.56
  15  -4  -3   13.56    1.42
  15  -4  -3   12.40    1.26
  15   4  -3   11.82    1.39
  14  -4  -3   46.24    2.57
  14   4  -3   48.95    2.79
  13   4  -3   22.28    1.88
  13  -4  -3   21.62    1.75
 -13   4   3   22.15    1.63
  12   4  -3    0.35    0.52
  12  -4  -3    0.30    0.45
 -12   4   3    1.11    0.46
 -11   4   3  285.24    5.29
  11  -4  -3  282.19    5.39
  10  -4  -3    5.56    0.77
 -10   4   3    5.45    0.72
   9  -4  -3   22.85    1.40
   8  -4  -3    1.66    0.41
   7  -4  -3  878.33    7.67
   7   4  -3  861.05    7.36
   6  -4  -3  145.76    2.97
   6   4  -3  139.99    2.83
   5   4  -3 1217.21    6.01
   5  -4  -3 1220.65    8.24
   4  -4  -3  174.79    2.99
   4   4  -3  174.29    2.04
   3   4  -3  217.33    1.95
   3  -4  -3  218.46    3.29
   2   4  -3  144.74    1.38
   2  -4  -3  145.18    2.61
   1  -4  -3  230.45    3.27
   1  -4  -3  231.73    1.91
   1   4  -3  226.73    1.63
   0   4  -3  118.74    1.34
   0   4  -3  115.20    1.26
   0  -4  -3  121.34    2.38
  -1  -4  -3  114.36    2.37
  -1   4  -3  110.93    1.53
  -2   4  -3  452.61    3.60
  -2  -4  -3  459.73    5.05
  -3   4  -3  115.77    2.04
  -3  -4  -3  116.66    2.62
  -4   4  -3  578.01    5.03
  -4  -4  -3  590.56    6.27
  -5   4  -3    1.99    0.36
  -5  -4  -3    1.80    0.45
  -6  -4  -3   45.91    1.98
  -6   4  -3   42.16    1.64
  -7   4  -3    1.97    0.43
  -7  -4  -3    1.65    0.48
  -8   4  -3  161.07    3.71
  -8  -4  -3  158.76    4.12
  -9   4  -3   28.50    1.69
  -9  -4  -3   29.70    1.91
 -10  -4  -3    0.27    0.41
 -10   4  -3    0.65    0.40
  11   4   3    0.11    0.36
 -11   4  -3    0.69    0.42
 -11  -4  -3    0.77    0.50
  11  -4   3    0.11    0.42
  12   4   3    3.77    0.77
 -12  -4  -3    3.31    0.85
  12  -4   3    3.22    0.71
  13  -4   3    3.99    0.81
  13   4   3    2.56    0.63
  13  -4   3    3.28    0.72
  14   4   3   31.55    1.98
  14  -4   3   34.60    2.07
  14  -4   3   30.50    1.93
  15   4   3    1.68    0.56
  15  -4   3    1.38    0.53
  15  -4   3    2.07    0.55
  16   4   3    2.43    0.56
  16  -4   3    1.22    0.47
  16  -4   3    2.39    0.57
  17   4   3   53.73    2.03
  17  -4   3   56.11    2.14
  18   4   3   43.43    1.48
  18  -4   3   46.51    1.63
  19   5  -3   16.34    0.97
  18   5  -3   32.46    1.68
  18  -5  -3   34.76    1.56
  17  -5  -3   30.68    1.60
  17   5  -3   30.48    1.85
  17  -5  -3   27.76    1.65
  16  -5  -3   16.56    1.35
  16  -5  -3   16.25    1.40
  16   5  -3   17.10    1.55
  15  -5  -3  279.86    5.85
  15  -5  -3  274.84    5.95
  15   5  -3  269.55    6.28
  14  -5  -3  297.42    6.34
  14   5  -3  296.22    6.70
  13  -5  -3  142.59    4.38
  13   5  -3  142.35    4.65
  12   5  -3   92.87    3.69
  12  -5  -3   98.73    3.59
  11   5  -3    2.28    0.65
 -11   5   3    2.69    0.60
  11  -5  -3    3.07    0.66
 -10   5   3   25.57    1.55
  10  -5  -3   23.30    1.53
   9  -5  -3  181.53    4.01
   8  -5  -3   27.07    1.48
   7  -5  -3   46.75    1.84
   7   5  -3   45.29    1.74
   6   5  -3    0.26    0.23
   6  -5  -3    0.35    0.27
   5  -5  -3  369.48    4.69
   5   5  -3  362.55    4.50
   4  -5  -3   31.88    1.34
   3  -5  -3  214.57    3.39
   2  -5  -3  973.66    7.02
   1  -5  -3   19.72    1.02
   0  -5  -3  169.63    2.96
   0   5  -3  159.67    1.28
  -1   5  -3    0.75    0.14
  -1  -5  -3    0.86    0.28
  -1  -5  -3    0.57    0.07
  -2   5  -3   85.73    1.54
  -3   5  -3   59.09    1.45
  -3  -5  -3   58.82    1.96
  -4  -5  -3  140.06    3.16
  -4   5  -3  141.97    2.50
  -5  -5  -3  561.93    6.68
  -5   5  -3  555.00    5.39
  -6  -5  -3  206.51    4.30
  -6   5  -3  205.07    3.57
  -7   5  -3  420.02    5.56
  -7  -5  -3  419.62    6.48
  -8   5  -3  105.92    3.02
  -8  -5  -3  104.07    3.42
  -9  -5  -3  166.42    4.58
  -9   5  -3  166.70    4.07
 -10   5  -3  240.45    5.22
 -10  -5  -3  250.35    5.90
  10  -5   3  235.77    5.32
  11   5   3    4.63    0.82
 -11   5  -3    4.14    0.79
 -11  -5  -3    4.76    0.94
  11  -5   3    4.33    0.80
  12   5   3  166.31    4.41
  12  -5   3  169.96    4.70
  13  -5   3    3.82    0.79
  13  -5   3    3.76    0.77
  13   5   3    4.07    0.76
  14   5   3    6.84    0.95
  14  -5   3    5.83    0.92
  14  -5   3    6.13    0.95
  15   5   3   60.27    2.54
  15  -5   3   62.15    2.61
  15  -5   3   58.37    2.50
  16   5   3   49.42    2.13
  16  -5   3   47.56    2.00
  16  -5   3   49.16    2.17
  17   5   3   17.27    1.11
  17  -5   3   17.55    1.17
  18  -5   3    0.11    0.23
  19   6  -3   45.60    1.48
  18  -6  -3   12.64    0.84
  18  -6  -3   12.86    0.88
  18   6  -3   11.94    0.99
  17   6  -3   60.81    2.51
  17  -6  -3   61.96    2.27
  17  -6  -3   60.05    2.26
  16   6  -3    0.02    0.40
  16  -6  -3    0.72    0.45
  16  -6  -3    0.27    0.35
  15   6  -3   30.01    2.10
  15  -6  -3   33.20    2.05
  15  -6  -3   35.11    2.08
  14  -6  -3   86.21    3.34
  14   6  -3   87.75    3.63
  13  -6  -3  397.39    7.18
  13  -6  -3  389.66    6.99
  13   6  -3  374.13    7.51
  12  -6  -3  318.67    6.36
 -12   6   3  315.68    6.07
  12   6  -3  305.19    6.67
  12  -6  -3  303.84    6.23
 -11   6   3   13.92    1.24
  11  -6  -3   15.31    1.32
  11   6  -3   14.97    1.47
  11  -6  -3   14.96    1.41
 -10   6   3   47.19    2.15
  10  -6  -3   45.49    2.17
   9  -6  -3   16.40    1.26
   8  -6  -3    3.10    0.55
   7   6  -3    5.19    0.65
   7  -6  -3    5.07    0.66
   6   6  -3 1058.48    8.16
   6  -6  -3 1038.89    8.44
   5   6  -3    3.50    0.51
   5  -6  -3    3.48    0.53
   4  -6  -3  340.64    4.52
   3  -6  -3  167.63    3.10
   2  -6  -3  104.26    2.42
   1  -6  -3   32.20    1.36
   0  -6  -3  157.94    3.00
  -1  -6  -3  179.04    3.22
  -1   6  -3  179.70    1.85
  -2   6  -3    2.17    0.26
  -2  -6  -3    2.15    0.43
  -3   6  -3  201.54    2.69
  -3  -6  -3  212.67    3.93
  -4  -6  -3  392.12    5.51
  -4   6  -3  389.41    4.12
  -5   6  -3   71.45    1.94
  -5  -6  -3   43.32    1.93
  -6   6  -3   45.14    1.70
  -6  -6  -3   42.07    1.99
  -7   6  -3  171.72    3.58
  -7  -6  -3  168.65    4.24
  -8   6  -3    1.49    0.42
  -8  -6  -3    1.89    0.52
  -9  -6  -3   12.02    1.32
  -9   6  -3   10.08    1.03
  10   6   3  134.54    3.73
 -10   6  -3  134.62    3.90
 -10  -6  -3  128.99    4.33
  10  -6   3  128.12    4.03
  11   6   3   14.79    1.30
 -11   6  -3   15.27    1.42
  11  -6   3   14.18    1.42
 -11  -6  -3   14.85    1.57
  12   6   3  306.94    5.89
  12  -6   3  294.88    6.32
  13   6   3  344.20    6.27
  13  -6   3  355.89    6.50
  13  -6   3  334.23    6.62
  14   6   3  113.63    3.57
  14  -6   3  113.98    3.61
  14  -6   3  112.75    3.74
  15   6   3   64.48    2.56
  15  -6   3   62.50    2.59
  15  -6   3   67.10    2.65
  16   6   3    3.41    0.58
  16  -6   3    3.37    0.62
  16  -6   3    4.17    0.64
  17  -6   3    2.07    0.46
  17   6   3    2.08    0.41
  17  -6   3    2.02    0.42
  18  -6   3    0.67    0.25
  18   7  -3    2.24    0.48
  18  -7  -3    1.30    0.33
  17  -7  -3   62.87    2.28
  17   7  -3   62.39    2.45
  16   7  -3   59.35    2.64
  16  -7  -3   59.87    2.39
  16  -7  -3   57.68    2.48
  15   7  -3   35.55    2.20
  15  -7  -3   43.08    2.19
  14  -7  -3   41.86    2.27
  14   7  -3   39.96    2.43
  13  -7  -3  219.76    5.35
  13   7  -3  207.55    5.56
 -12   7   3   63.75    2.80
  12  -7  -3   60.15    2.85
  12   7  -3   60.58    2.98
  11  -7  -3   32.55    1.95
 -11   7   3   33.03    1.94
  11  -7  -3   29.21    1.98
  11   7  -3   28.86    2.01
 -10   7   3   57.60    2.46
  10  -7  -3   59.83    2.53
   9  -7  -3  243.29    4.86
   8  -7  -3   25.73    1.53
   7  -7  -3  200.64    4.02
   7   7  -3  191.96    3.68
   6  -7  -3    0.28    0.32
   6   7  -3    0.64    0.30
   5  -7  -3   83.84    2.41
   5   7  -3   80.91    2.25
   4  -7  -3   42.63    1.67
   3  -7  -3  402.37    5.00
   2  -7  -3   83.77    2.26
   1  -7  -3   38.75    1.55
   0  -7  -3   26.22    1.29
  -1  -7  -3   18.40    1.10
  -2  -7  -3   27.76    1.39
  -2   7  -3   31.45    0.93
  -3   7  -3  829.62    5.42
  -3  -7  -3  809.33    7.60
  -4  -7  -3  123.75    3.27
  -4   7  -3  119.88    2.31
  -5   7  -3    2.56    0.43
  -5  -7  -3    0.51    0.42
  -6  -7  -3   79.06    2.87
  -6   7  -3   80.25    2.28
  -7   7  -3   14.84    1.08
  -7  -7  -3   14.47    1.31
  -8   7  -3   36.06    1.79
  -8  -7  -3   34.11    2.08
  -9   7  -3    2.12    0.51
  -9  -7  -3    2.79    0.70
   9  -7   3    2.29    0.64
 -10  -7  -3   44.97    2.61
 -10   7  -3   46.47    2.32
  10  -7   3   45.37    2.46
 -11  -7  -3    6.69    1.10
  11   7   3    5.83    0.86
 -11   7  -3    6.16    0.94
  11  -7   3    5.04    0.89
  12   7   3  313.70    5.90
  12  -7   3  311.14    6.56
  13   7   3  131.19    3.83
  13  -7   3  128.21    3.84
  13  -7   3  125.80    4.11
  14  -7   3    7.39    0.96
  14   7   3    6.15    0.86
  14  -7   3    4.65    0.83
  15   7   3   73.89    2.62
  15  -7   3   75.11    2.73
  15  -7   3   72.11    2.77
  16   7   3   13.82    1.03
  16  -7   3   14.25    1.11
  16  -7   3   13.34    1.08
  17  -7   3    6.41    0.65
  17  -7   3    6.85    0.63
  18  -8  -3  115.16    2.39
  18   8  -3  120.05    2.61
  17  -8  -3   53.39    2.06
  17   8  -3   51.79    2.10
  16   8  -3    0.34    0.42
  16  -8  -3   -0.05    0.37
  15  -8  -3   17.48    1.40
  15   8  -3   12.78    1.31
  14   8  -3    0.17    0.39
  14  -8  -3    1.15    0.58
  13  -8  -3   24.46    1.86
  13   8  -3   26.67    1.98
  12  -8  -3   77.41    3.29
  12   8  -3   78.53    3.37
 -11   8   3  149.56    4.23
  11  -8  -3  144.99    4.45
  11  -8  -3  143.38    4.10
  11   8  -3  139.04    4.36
  10   8  -3    1.68    0.51
  10  -8  -3    2.80    0.64
  10  -8  -3    1.69    0.56
   9  -8  -3    6.66    0.87
   8  -8  -3   57.24    2.33
   7  -8  -3    8.34    0.88
   7   8  -3    7.95    0.79
   6   8  -3   16.29    1.08
   6  -8  -3   17.57    1.18
   5  -8  -3    4.41    0.62
   5   8  -3    4.31    0.55
   4  -8  -3   46.60    1.83
   3  -8  -3  472.15    5.67
   2  -8  -3   26.24    1.34
   1  -8  -3  349.20    4.80
   0  -8  -3   99.28    2.58
  -1  -8  -3 1039.59    8.44
  -2  -8  -3 1316.44    9.79
  -3  -8  -3 1066.33    9.07
  -3   8  -3 1110.28    6.39
  -4   8  -3  388.21    4.22
  -5  -8  -3    5.64    0.82
  -5   8  -3    5.87    0.60
  -6   8  -3   46.38    1.76
  -6  -8  -3   46.03    2.28
  -7  -8  -3  276.73    5.83
  -7   8  -3  278.32    4.61
  -8  -8  -3  118.66    3.97
  -8   8  -3  114.20    3.19
  -9   8  -3  146.65    3.88
  -9  -8  -3  145.24    4.60
   9  -8   3  147.81    4.35
 -10  -8  -3  147.46    4.80
  10  -8   3  138.70    4.37
 -10   8  -3  149.89    4.14
  11  -8   3    4.33    0.91
  12  -8   3  243.36    5.86
  13  -8   3    4.71    0.78
  13  -8   3    3.35    0.80
  14  -8   3    0.38    0.43
  14  -8   3   -0.20    0.39
  15  -8   3    1.93    0.53
  15  -8   3    1.38    0.54
  16  -8   3   28.21    1.45
  16  -8   3   28.70    1.54
  17  -8   3    6.31    0.59
  17  -8   3    6.67    0.61
  18  -9  -3   20.27    0.98
  17   9  -3    1.64    0.44
  17  -9  -3    1.78    0.41
  16  -9  -3   10.85    1.07
  16   9  -3    9.51    0.98
  15  -9  -3   11.19    1.13
  15   9  -3   11.71    1.18
  14   9  -3   11.34    1.24
  14  -9  -3   12.89    1.34
  13   9  -3    1.49    0.61
  13  -9  -3    0.43    0.46
  12   9  -3    7.12    1.04
  12  -9  -3    8.40    1.16
  11  -9  -3   51.90    2.52
 -11   9   3   52.18    2.56
  11  -9  -3   53.65    2.78
  11   9  -3   49.73    2.61
  10   9  -3    1.51    0.59
  10  -9  -3    0.58    0.47
  10  -9  -3    0.21    0.33
   9  -9  -3   26.33    1.70
   8  -9  -3  280.87    5.23
   7  -9  -3   76.99    2.63
   7   9  -3   71.82    2.37
   6  -9  -3    1.06    0.40
   6   9  -3    0.80    0.30
   5   9  -3   71.42    2.23
   5  -9  -3   72.99    2.42
   4  -9  -3   69.69    2.29
   3  -9  -3    1.82    0.44
   2  -9  -3  372.27    5.20
   1  -9  -3  450.20    5.63
   0  -9  -3   20.23    1.23
  -1  -9  -3  110.19    2.88
  -2  -9  -3    0.29    0.27
  -3  -9  -3    5.26    0.72
  -4  -9  -3   82.98    2.73
  -4   9  -3   84.78    2.00
  -5   9  -3   35.79    1.44
  -6   9  -3   81.42    2.34
  -7   9  -3   19.84    1.27
  -7  -9  -3   19.25    1.61
  -8   9  -3    5.03    0.71
  -8  -9  -3    5.33    0.95
   8  -9   3    4.63    0.82
  -9   9  -3    4.64    0.75
  -9  -9  -3    6.58    1.09
   9  -9   3    6.28    0.97
 -10   9  -3    2.82    0.65
 -10  -9  -3    1.61    0.66
  10  -9   3    1.24    0.52
  11  -9   3   16.04    1.56
  12  -9   3    0.66    0.47
  12  -9   3    0.43    0.49
  13  -9   3   25.19    1.64
  13  -9   3   23.48    1.80
  14  -9   3   11.97    1.10
  14  -9   3   11.60    1.23
  15  -9   3    0.22    0.28
  15  -9   3    0.08    0.35
  16  -9   3    9.90    0.81
  16  -9   3   10.43    0.93
  17  -9   3    1.80    0.33
  18 -10  -3   19.05    0.89
  17 -10  -3   11.00    0.90
  16  10  -3    0.73    0.37
  16 -10  -3    1.37    0.48
  15 -10  -3   14.56    1.27
  15  10  -3   15.20    1.28
  14  10  -3    0.56    0.46
  14 -10  -3    0.61    0.52
  13 -10  -3   19.05    1.64
  13  10  -3   20.28    1.63
  12  10  -3    8.00    1.08
  12 -10  -3    8.45    1.17
  11 -10  -3   14.86    1.52
  11 -10  -3   16.37    1.46
  11  10  -3   14.56    1.43
  10 -10  -3  255.38    5.49
  10 -10  -3  244.27    5.95
  10  10  -3  264.53    4.84
  10  10  -3  248.39    5.60
   9  10  -3   76.38    2.64
   9 -10  -3   74.08    2.88
   9 -10  -3   72.05    3.14
   8 -10  -3   64.33    2.59
   7 -10  -3  387.27    6.08
   7  10  -3  379.81    5.50
   6 -10  -3  309.51    5.23
   6  10  -3  303.43    4.78
   5  10  -3    9.59    0.86
   4  10  -3   84.45    2.46
   4 -10  -3   87.93    2.67
   3 -10  -3  552.87    6.56
   2 -10  -3    9.67    0.89
   1 -10  -3  472.95    6.02
   0 -10  -3    7.54    0.81
  -1 -10  -3  104.83    2.91
  -2 -10  -3   29.05    1.58
  -3 -10  -3  588.96    7.27
  -4 -10  -3  119.25    3.40
  -5 -10  -3  167.47    4.19
  -6  10  -3  214.33    3.86
  -6 -10  -3  208.42    4.89
  -7  10  -3    9.09    0.88
   8 -10   3  105.40    3.73
  -8  10  -3  106.57    3.16
  -8 -10  -3  104.98    3.23
  -9  10  -3   49.32    2.29
  -9 -10  -3   47.37    2.19
   9 -10   3   49.31    2.64
  10 -10   3   28.77    2.08
  11 -10   3    0.10    0.43
  12 -10   3   33.44    1.86
  12 -10   3   36.20    2.30
  13 -10   3   14.38    1.21
  13 -10   3   12.97    1.35
  14 -10   3   -0.21    0.48
  14 -10   3    0.04    0.32
  15 -10   3   72.55    2.25
  15 -10   3   73.54    2.65
  16 -10   3   22.65    1.28
  17 -11  -3   24.04    1.24
  16 -11  -3    2.40    0.56
  15 -11  -3    0.08    0.36
  15 -11  -3    0.13    0.41
  15  11  -3    0.21    0.36
  14 -11  -3   16.01    1.44
  14  11  -3   16.03    1.31
  13 -11  -3   11.60    1.32
  13  11  -3   11.25    1.18
  12 -11  -3   13.45    1.42
  12  11  -3   15.26    1.39
  11 -11  -3  289.28    6.60
  11  11  -3  304.18    5.29
  10  11  -3   50.54    2.21
  10 -11  -3   48.19    2.71
  10 -11  -3   46.77    2.40
   9 -11  -3   42.28    2.50
   9 -11  -3   43.15    2.23
   9  11  -3   46.94    2.15
   8  11  -3  151.48    3.72
   8 -11  -3  149.72    4.03
   8 -11  -3  150.52    4.52
   7 -11  -3    1.44    0.47
   7  11  -3    1.98    0.48
   6 -11  -3   20.74    1.41
   6  11  -3   20.33    1.29
   5  11  -3    4.83    0.65
   4 -11  -3  262.37    4.75
   4  11  -3  250.31    4.32
   3 -11  -3  289.12    4.88
   2 -11  -3   -0.10    0.34
   1 -11  -3   96.29    2.83
   0 -11  -3    1.70    0.46
  -1 -11  -3  115.65    3.20
  -2 -11  -3   20.53    1.38
  -3 -11  -3  203.19    4.43
  -4 -11  -3    0.68    0.41
  -5 -11  -3    3.60    0.71
  -6 -11  -3   24.54    1.74
  -7 -11  -3   52.22    2.61
   7 -11   3   49.48    2.54
   7  11   3   55.07    2.53
  -7 -11  -3   50.73    2.26
  -8 -11  -3  134.92    4.35
  -8 -11  -3  140.01    3.80
   8 -11   3  144.77    4.45
   9 -11   3   54.46    2.82
  -9 -11  -3   50.04    2.27
  -9 -11  -3   53.26    2.85
  10 -11   3  152.29    4.72
  11 -11   3   11.81    1.39
  12 -11   3   36.24    2.29
  13 -11   3   18.96    1.60
  14 -11   3    0.66    0.46
  15 -11   3    0.43    0.36
  16 -11   3    2.34    0.45
  17 -12  -3   44.36    1.57
  16 -12  -3    8.73    0.88
  15 -12  -3   48.51    2.18
  15 -12  -3   49.22    2.22
  14 -12  -3   84.80    3.18
  13 -12  -3  105.10    3.77
  12 -12  -3   80.72    3.45
  11 -12  -3  148.23    4.75
  11  12  -3  148.27    3.74
  10 -12  -3  119.86    4.28
  10  12  -3  128.70    3.53
   9 -12  -3   25.84    1.77
   9  12  -3   27.45    1.69
   9 -12  -3   24.38    1.96
   8  12  -3   61.59    2.46
   8 -12  -3   57.76    2.53
   8 -12  -3   57.42    2.89
   7  12  -3  153.24    3.81
   7 -12  -3  152.22    4.00
   7 -12  -3  153.45    4.55
   6 -12  -3   45.44    2.13
   6  12  -3   45.88    1.93
   5  12  -3    1.07    0.34
   4 -12  -3  569.24    7.24
   4  12  -3  543.68    6.53
   3 -12  -3  205.00    4.28
   2 -12  -3  251.27    4.69
   1 -12  -3  344.42    5.55
   0 -12  -3   -0.05    0.28
  -1 -12  -3   47.24    2.11
  -2 -12  -3  103.34    3.17
  -3 -12  -3 1277.02   11.41
  -4 -12  -3   28.18    1.78
  -5 -12  -3    6.29    0.93
   6  12   3   90.25    3.24
  -6 -12  -3   92.64    3.43
   6 -12   3   96.58    3.47
   6  12   3   97.02    2.89
  -6 -12  -3   89.99    3.02
  -7 -12  -3  506.29    8.28
  -7 -12  -3  528.38    7.43
   7  12   3  519.04    7.90
   7 -12   3  521.67    8.33
  -8 -12  -3  462.93    8.12
   8 -12   3  482.90    8.21
  -8 -12  -3  476.63    7.09
   9 -12   3    0.18    0.49
  -9 -12  -3    0.25    0.39
  10 -12   3   87.34    3.60
 -10 -12  -3   94.89    3.07
  11 -12   3   49.32    2.69
  12 -12   3   19.49    1.67
  13 -12   3   79.88    3.14
  14 -12   3   46.50    2.20
  15 -12   3    0.15    0.32
  16 -12   3    4.02    0.53
  17 -13  -3   37.20    1.30
  16 -13  -3    1.90    0.43
  15 -13  -3   16.11    1.24
  14 -13  -3    6.35    0.90
  13 -13  -3   25.80    1.87
  12 -13  -3   -0.29    0.44
  12  13  -3    0.26    0.37
  11 -13  -3   -0.21    0.50
  11  13  -3    0.41    0.36
  10 -13  -3  148.76    4.80
  10  13  -3  148.13    3.85
   9 -13  -3   -0.04    0.55
   9  13  -3    0.21    0.48
   9 -13  -3    0.23    0.39
   8  13  -3   75.42    2.79
   8 -13  -3   71.58    2.87
   8 -13  -3   67.85    3.19
   7 -13  -3    1.25    0.60
   7  13  -3    2.35    0.75
   7 -13  -3    1.14    0.52
  -7  13   3    1.52    0.60
   6  13  -3  123.65    3.47
   6 -13  -3  122.47    3.58
   6 -13  -3  125.52    4.13
  -6  13   3  123.22    3.85
  -6  13   3  128.32    3.42
   5  13  -3   39.05    1.79
   5 -13  -3   37.20    1.93
   4  13  -3  192.69    3.96
   3 -13  -3   56.79    2.32
   2 -13  -3   11.88    1.08
   1 -13  -3   57.06    2.32
   0 -13  -3   63.34    2.47
  -1 -13  -3   16.03    1.28
  -2 -13  -3   47.77    2.24
  -3 -13  -3   68.29    2.73
  -4 -13  -3   68.70    2.81
   5  13   3  136.91    3.61
  -5 -13  -3  132.96    4.02
   5 -13   3  137.40    4.07
  -5 -13  -3  129.06    3.67
   5  13   3  135.45    3.97
  -6 -13  -3  118.70    3.94
  -6 -13  -3  115.36    3.53
   6 -13   3  117.58    3.93
   6  13   3  112.68    3.23
   6  13   3  108.01    3.63
  -7 -13  -3   77.88    2.92
   7 -13   3   84.48    3.42
   7  13   3   77.65    3.13
   8 -13   3  132.57    4.36
  -8 -13  -3  129.21    3.76
  -9 -13  -3   55.25    2.43
   9 -13   3   54.69    2.85
  10 -13   3   23.91    1.91
 -10 -13  -3   24.20    1.57
  11 -13   3    1.05    0.58
  12 -13   3    0.47    0.44
  13 -13   3    6.48    0.96
  14 -13   3    1.69    0.49
  15 -13   3    9.62    0.87
  16 -13   3    0.95    0.27
  16 -14  -3   13.73    0.93
  15 -14  -3    5.68    0.71
  14 -14  -3   60.27    2.51
  13 -14  -3   88.78    3.30
  12 -14  -3  159.69    4.69
  12  14  -3  160.97    3.67
  11 -14  -3    0.86    0.50
  11  14  -3    2.61    0.57
  10 -14  -3    1.83    0.69
  10  14  -3    1.25    0.70
   9 -14  -3   57.04    2.98
   9  14  -3   55.60    2.40
   8 -14  -3  205.93    5.58
   8  14  -3  206.32    4.66
   7  14  -3   35.71    1.98
   7 -14  -3   33.11    1.95
   7 -14  -3   29.19    2.09
  -7  14   3   29.52    1.96
   6  14  -3  161.13    4.05
   6 -14  -3  165.71    4.18
  -6  14   3  164.95    4.00
  -6  14   3  152.27    4.43
   6 -14  -3  158.65    4.73
  -5  14   3    5.43    0.93
   5 -14  -3    4.85    0.87
   5  14  -3    5.50    0.86
   5 -14  -3    4.72    0.73
   4  14  -3  210.47    4.57
  -4  14   3  220.72    4.73
  -4  14   3  205.24    5.15
   4 -14  -3  216.39    5.26
   3  14  -3   46.15    2.12
   3 -14  -3   44.60    2.09
   2 -14  -3  203.81    4.46
   1 -14  -3  161.18    3.98
   0 -14  -3   33.09    1.83
  -1 -14  -3   28.75    1.74
  -2 -14  -3  105.59    3.35
   3  14   3  675.06    8.58
  -3 -14  -3  690.79    8.42
  -4 -14  -3  113.05    3.46
   4  14   3  114.02    3.62
   4  14   3  119.89    3.53
   5 -14   3   72.77    3.01
   5  14   3   70.64    2.69
  -5 -14  -3   71.45    2.80
   5  14   3   74.67    3.01
   6 -14   3    6.48    0.99
   6  14   3    5.58    0.89
  -6 -14  -3    6.57    0.89
   7  14   3  177.50    4.76
  -7 -14  -3  176.34    4.43
  -8 -14  -3  154.26    4.12
   8 -14   3  153.84    4.70
   9 -14   3   17.16    1.63
  -9 -14  -3   17.32    1.39
  10 -14   3    1.02    0.59
 -10 -14  -3    1.24    0.47
  11 -14   3   41.66    2.39
  12 -14   3    1.23    0.59
  13 -14   3  108.39    3.35
  14 -14   3    1.47    0.50
  15 -14   3    2.89    0.47
  16 -15  -3   81.23    1.94
  15 -15  -3   20.89    1.21
  14 -15  -3    0.04    0.30
  13 -15  -3    0.83    0.44
  12  15  -3   99.40    2.83
  12 -15  -3  100.43    3.62
  11 -15  -3   83.77    3.48
  11  15  -3   83.07    2.76
  10 -15  -3   65.20    3.13
  10  15  -3   56.49    2.36
   9 -15  -3  127.64    4.42
   9  15  -3  124.63    3.62
   8 -15  -3    1.14    0.60
  -8  15   3    1.71    0.59
   8  15  -3    1.40    0.63
   7  15  -3    4.66    0.94
   7 -15  -3    3.39    0.81
  -7  15   3    2.01    0.66
   6 -15  -3    0.45    0.43
  -6  15   3    0.42    0.43
   5 -15  -3    0.58    0.48
  -5  15   3   -0.02    0.44
  -5  15   3    0.09    0.35
  -4  15   3    0.23    0.44
   4 -15  -3    0.92    0.57
  -4  15   3    1.45    0.49
   3  15  -3   79.42    2.86
  -3  15   3   80.90    2.99
  -3  15   3   76.98    3.27
   2  15  -3    2.93    0.62
  -2  15   3    4.03    0.81
  -2  15   3    3.58    0.67
   2 -15  -3    2.93    0.57
   1  15  -3   22.93    1.53
   1 -15  -3   20.97    1.45
   0  15  -3  136.31    3.59
   0 -15  -3  134.55    3.67
   0  15   3  139.97    3.98
   1  15   3    2.94    0.66
  -1  15  -3    1.87    0.49
   1  15   3    2.09    0.57
  -1 -15  -3    3.04    0.62
   2  15   3   62.83    2.68
   2  15   3   60.79    2.59
  -2 -15  -3   62.79    2.60
   3  15   3    7.55    0.97
   3  15   3    6.43    0.93
  -3 -15  -3    5.49    0.85
   4  15   3  117.11    3.62
   4  15   3  119.12    3.76
  -4 -15  -3  111.04    3.54
   5  15   3   17.97    1.54
   5  15   3   17.24    1.40
  -5 -15  -3   19.20    1.50
   6 -15   3  224.34    5.43
  -6 -15  -3  215.47    4.94
   6  15   3  212.32    5.20
   7  15   3   -0.16    0.47
   7 -15   3    0.76    0.54
  -7 -15  -3    0.39    0.38
   8 -15   3    2.58    0.69
  -8 -15  -3    2.49    0.64
  -9 -15  -3   49.35    2.26
   9 -15   3   48.62    2.62
  10 -15   3   12.94    1.38
 -10 -15  -3   13.32    1.14
  11 -15   3    5.81    0.95
  12 -15   3   66.09    2.72
  13 -15   3   30.28    1.69
 -13  15  -3   30.81    1.39
  14 -15   3    8.72    0.82
  15 -15   3    5.50    0.54
  15 -16  -3  125.68    2.62
  14 -16  -3   20.36    1.25
  13 -16  -3   21.90    1.44
  13  16  -3   22.89    1.16
  12  16  -3    1.83    0.45
  12 -16  -3    1.36    0.59
  11 -16  -3   97.33    3.60
  11  16  -3   98.34    2.94
  10 -16  -3   42.01    2.48
  10  16  -3   41.13    2.02
   9 -16  -3    9.26    1.24
   9  16  -3    6.19    0.78
   8 -16  -3   68.61    3.23
  -8  16   3   66.93    2.90
   8  16  -3   69.28    2.75
   7 -16  -3   38.46    2.43
  -7  16   3   36.94    2.25
   7  16  -3   41.37    2.18
   6 -16  -3    0.05    0.47
  -6  16   3    0.16    0.50
   5  16  -3   49.20    2.38
  -5  16   3   47.54    2.33
   5 -16  -3   39.89    2.38
  -5  16   3   43.86    2.50
   4  16  -3   15.21    1.38
  -4  16   3   12.38    1.23
  -4  16   3   12.43    1.36
   3  16  -3   36.74    2.01
  -3  16   3   37.43    2.09
  -3  16   3   34.20    2.23
   2  16  -3    4.14    0.75
  -2  16   3    3.87    0.74
   2 -16  -3    3.63    0.71
   1  16  -3   13.34    1.21
  -1  16   3   11.19    1.18
   1 -16  -3   10.85    1.08
   0  16  -3    3.78    0.69
   0  16   3    3.88    0.71
   0 -16  -3    4.73    0.80
  -1  16  -3  416.77    6.23
   1  16   3  420.90    7.11
  -1 -16  -3  423.04    6.78
   1  16   3  404.35    6.58
   2  16   3   36.05    2.09
   2  16   3   34.47    2.00
  -2 -16  -3   38.30    2.08
   3  16   3  122.79    3.83
   3  16   3  124.78    3.84
  -3 -16  -3  126.73    3.81
   4  16   3  497.70    7.61
   4  16   3  485.47    7.70
  -4 -16  -3  500.87    7.61
   5  16   3  541.07    8.26
  -5 -16  -3  553.79    8.01
   6 -16   3    7.40    1.04
  -6 -16  -3    6.17    0.89
   6  16   3    7.67    1.04
   7 -16   3   11.12    1.29
  -7 -16  -3   11.65    1.18
   8 -16   3   65.56    2.98
  -8 -16  -3   68.94    2.73
   9 -16   3   14.72    1.46
  -9 -16  -3   14.25    1.23
  10 -16   3   94.51    3.42
 -10 -16  -3   92.46    2.83
  11 -16   3    1.05    0.54
 -11 -16  -3    1.01    0.37
  12 -16   3  115.50    3.34
 -12  16  -3  117.99    3.01
  13 -16   3   41.48    1.83
  14 -16   3   20.97    1.12
  14 -17  -3    6.99    0.67
  13  17  -3    8.69    0.68
  13 -17  -3   10.95    0.93
  12  17  -3    1.33    0.38
  12 -17  -3    1.52    0.46
  11  17  -3    9.14    0.90
  10  17  -3    0.94    0.43
  10 -17  -3    0.75    0.47
   9  17  -3   -0.70    0.90
   9 -17  -3    2.93    0.78
   8 -17  -3    4.96    0.95
   8  17  -3    1.97    0.55
   7  17  -3    5.01    0.81
   7 -17  -3    5.63    1.02
   6  17  -3    6.36    0.98
  -6  17   3    6.82    1.03
  -5  17   3    5.92    0.98
   5  17  -3    8.19    1.12
   4  17  -3    6.21    1.00
  -4  17   3    3.69    0.81
   3  17  -3   35.74    2.00
   2  17  -3    0.17    0.41
   2 -17  -3    0.68    0.43
   1  17  -3    9.50    1.04
  -1  17   3    9.67    1.16
   1  17  -3   11.22    1.23
   1 -17  -3    9.66    1.05
   0  17  -3   37.40    1.94
   0  17   3   32.65    2.06
   0 -17  -3   35.07    1.97
  -1  17  -3  102.26    3.11
   1  17   3   95.11    3.21
  -1 -17  -3   92.48    3.25
   2  17   3    7.53    0.97
  -2 -17  -3    7.29    0.97
   3  17   3   66.01    2.82
  -3 -17  -3   67.77    2.82
   4  17   3    2.38    0.65
  -4 -17  -3    0.04    0.37
  -5 -17  -3   46.11    2.32
   5  17   3   46.77    2.43
  -6 -17  -3   19.81    1.54
   7 -17   3    6.59    1.01
  -7 -17  -3    5.22    0.82
   8 -17   3   64.45    2.86
  -8 -17  -3   64.71    2.59
   9 -17   3   70.60    2.91
  -9 -17  -3   71.55    2.59
  10 -17   3   22.56    1.60
 -10 -17  -3   22.73    1.34
  11 -17   3    2.69    0.60
 -11 -17  -3    1.95    0.41
  12 -17   3   42.16    1.87
 -12  17  -3   41.98    1.65
  13 -17   3   16.02    1.03
  13 -18  -3  104.83    2.46
  12 -18  -3   23.19    1.32
  12  18  -3   25.42    1.24
  11 -18  -3   95.95    2.84
  11  18  -3   93.96    2.64
  10  18  -3    1.53    0.44
  -9 -18   3   24.52    1.39
   9  18  -3   22.20    1.48
   8  18  -3  135.93    3.70
   7  18  -3   34.09    1.91
   6  18  -3   25.56    1.70
   5  18  -3   10.35    1.12
   4  18  -3    2.71    0.76
   3  18  -3    0.85    0.54
   2  18  -3   69.01    2.71
   2 -18  -3   73.35    2.72
   1  18  -3   65.24    2.58
   1  18  -3   66.27    2.83
   1 -18  -3   63.54    2.62
   0  18  -3    0.89    0.45
   0  18  -3    1.26    0.57
   0 -18  -3    0.06    0.33
   1  18   3    1.10    0.46
  -1  18  -3    1.69    0.53
  -1 -18  -3    1.15    0.51
   2  18   3   87.68    3.14
  -2 -18  -3   96.18    3.34
   3  18   3   14.55    1.34
  -3 -18  -3   13.62    1.30
   4  18   3   81.78    3.14
  -4 -18  -3   86.31    3.17
  -5 -18  -3   14.90    1.34
  -6 -18  -3   21.66    1.58
   7 -18   3    0.40    0.46
  -7 -18  -3    0.70    0.42
   8 -18   3    1.78    0.57
  -8 -18  -3    1.80    0.49
   9 -18   3   11.46    1.12
  -9 -18  -3   12.73    1.07
  10 -18   3  137.97    3.57
 -10  18  -3  139.44    3.63
 -10 -18  -3  139.47    3.08
  11 -18   3  170.97    3.68
 -11  18  -3  171.20    3.55
  12 -18   3  142.15    2.99
 -12  18  -3  137.78    2.60
  12 -19  -3   14.37    0.89
  12  19  -3   14.58    0.86
  11  19  -3    0.25    0.26
  11 -19  -3    0.34    0.31
  10 -19  -3   19.50    1.21
  10  19  -3   18.60    1.22
   9  19  -3    4.50    0.68
  -9 -19   3    5.23    0.65
   8  19  -3   76.89    2.70
   7  19  -3   41.26    2.04
   6  19  -3    4.53    0.68
   5  19  -3   45.09    2.21
   4  19  -3   11.19    1.15
   3  19  -3   33.38    1.90
   2 -19  -3   20.02    1.43
   2  19  -3   20.49    1.50
   1  19  -3  125.40    3.81
   1 -19  -3  123.68    3.61
   1  19  -3  123.75    3.48
   0  19  -3  104.40    3.14
   0  19  -3  107.46    3.66
   0 -19  -3  104.34    3.39
  -1  19  -3   55.43    2.71
  -1 -19  -3   51.83    2.43
  -1  19  -3   52.77    2.16
  -2  19  -3   75.59    3.22
  -2 -19  -3   72.39    2.88
  -3 -19  -3  201.03    4.79
  -4 -19  -3   15.76    1.37
  -5 -19  -3   39.25    2.08
  -6 -19  -3    0.39    0.37
  -7 -19  -3   24.35    1.55
  -8  19  -3    0.14    0.43
   8 -19   3    0.57    0.43
  -8 -19  -3    0.16    0.29
   9 -19   3   22.52    1.38
  -9  19  -3   22.15    1.49
  -9 -19  -3   22.80    1.31
  10 -19   3   20.41    1.23
 -10  19  -3   20.76    1.31
 -10 -19  -3   20.10    1.08
  11 -19   3   26.55    1.26
 -11  19  -3   24.94    1.23
  11  20  -3   47.71    1.60
  10  20  -3   11.22    0.89
   9  20  -3   47.91    1.93
  -9 -20   3   45.32    1.62
   8  20  -3    0.55    0.48
  -8 -20   3    0.19    0.26
   7  20  -3  207.85    4.36
   6  20  -3   97.18    3.06
   5  20  -3   50.36    2.26
   4  20  -3   47.26    2.20
   3  20  -3   15.97    1.30
   2  20  -3   23.03    1.54
   2 -20  -3   25.93    1.57
   1  20  -3    7.58    0.91
   1  20  -3    6.99    0.94
   1 -20  -3    7.96    0.96
   0  20  -3   15.18    1.37
   0 -20  -3   15.69    1.31
   0  20  -3   17.28    1.27
  -1  20  -3    1.92    0.60
  -1 -20  -3    1.45    0.50
  -2  20  -3   49.17    2.53
  -2 -20  -3   50.22    2.36
  -3  20  -3   40.32    2.30
  -3 -20  -3   40.25    2.11
  -4 -20  -3  271.00    5.32
  -4  20  -3  262.33    5.79
  -5  20  -3  103.86    3.60
  -5 -20  -3   98.51    3.15
  -6 -20  -3   58.51    2.36
  -6  20  -3   55.36    2.58
  -7  20  -3   20.22    1.52
  -7 -20  -3   19.66    1.33
  -8  20  -3   87.71    2.91
  -8 -20  -3   86.36    2.54
  -9 -20  -3    4.93    0.58
  -9  20  -3    4.05    0.63
 -10  20  -3    2.88    0.49
  10 -20   3    2.34    0.39
 -10 -20  -3    2.34    0.36
 -11  20  -3   11.12    0.71
  11  21  -3   37.39    1.23
  10  21  -3   33.81    1.37
   9  21  -3    2.50    0.49
  -9 -21   3    2.38    0.39
  -8 -21   3   14.80    0.97
   8  21  -3   14.89    1.09
  -7 -21   3   14.92    1.07
   7  21  -3   14.89    1.13
   6  21  -3    8.84    0.93
   5  21  -3   48.52    2.10
   4  21  -3   13.60    1.15
   3  21  -3    4.80    0.67
   2  21  -3    3.51    0.60
   2 -21  -3    4.54    0.65
   1  21  -3   26.74    1.66
   1 -21  -3   25.13    1.53
   1  21  -3   23.42    1.43
   0  21  -3   36.07    1.98
   0 -21  -3   35.62    1.88
   0  21  -3   37.60    1.73
  -1  21  -3   87.82    3.12
  -1 -21  -3   91.08    3.02
  -2  21  -3    0.27    0.43
  -2 -21  -3    1.02    0.51
  -3  21  -3   67.69    2.81
  -3 -21  -3   67.19    2.59
  -4  21  -3    0.29    0.51
  -4 -21  -3   -0.18    0.35
  -5  21  -3   51.34    2.38
  -5 -21  -3   52.19    2.19
  -6  21  -3   21.53    1.52
  -6 -21  -3   21.80    1.38
  -7  21  -3   20.10    1.40
  -7 -21  -3   19.87    1.23
  -8  21  -3   11.42    0.98
  -8 -21  -3   12.41    0.90
  -9  21  -3   15.91    1.04
  -9 -21  -3   16.64    0.90
 -10  21  -3   23.89    1.07
  10  22  -3    0.46    0.21
   9  22  -3    0.77    0.28
   8  22  -3    3.30    0.51
  -8 -22   3    2.43    0.40
  -7 -22   3  103.55    2.49
   7  22  -3  107.90    2.71
   6  22  -3    8.71    0.85
   5  22  -3    5.37    0.71
   4  22  -3   31.05    1.58
   3  22  -3    0.19    0.31
   2  22  -3    4.15    0.62
   2 -22  -3    3.69    0.55
   1  22  -3    8.99    0.91
   1 -22  -3    8.29    0.85
   1  22  -3    9.52    0.88
   0  22  -3    2.56    0.58
   0 -22  -3    2.45    0.53
  -1  22  -3    0.47    0.37
  -1 -22  -3    1.42    0.47
  -2  22  -3  115.82    3.41
  -2 -22  -3  124.05    3.31
  -3  22  -3   10.71    1.09
  -3 -22  -3   10.60    1.00
  -4  22  -3    4.06    0.70
  -4 -22  -3    3.54    0.61
  -5  22  -3    5.23    0.75
  -5 -22  -3    7.13    0.80
  -6  22  -3    0.56    0.36
  -6 -22  -3    0.63    0.31
  -7  22  -3   17.08    1.16
  -7 -22  -3   17.85    1.05
  -8 -22  -3   21.83    1.03
  -8  22  -3   20.91    1.16
  -9  22  -3    6.03    0.56
   9  23  -3    5.42    0.47
   8  23  -3    0.00    0.24
  -7 -23   3   22.05    1.02
   7  23  -3   22.78    1.14
  -6 -23   3    8.10    0.71
   6  23  -3    9.08    0.77
  -5 -23   3   49.83    1.80
   5  23  -3   47.52    1.75
   4  23  -3   10.58    0.85
   3  23  -3   24.10    1.26
   2  23  -3   36.89    1.52
   1 -23  -3   59.32    1.96
   1  23  -3   58.53    1.84
   0 -23  -3   10.35    0.88
  -1  23  -3  158.25    3.56
  -1 -23  -3  162.92    3.46
  -2  23  -3   44.60    1.94
  -2 -23  -3   43.67    1.80
  -3  23  -3   11.35    1.02
  -3 -23  -3   11.45    0.93
  -4  23  -3    1.02    0.40
  -4 -23  -3    0.81    0.35
  -5  23  -3   18.07    1.19
  -5 -23  -3   18.03    1.08
  -6  23  -3    1.52    0.40
  -6 -23  -3    1.04    0.30
  -7  23  -3   24.82    1.20
  -7 -23  -3   25.65    1.07
   7  24  -3    2.37    0.34
   6  24  -3    2.09    0.36
  -6 -24   3    1.68    0.30
  -5 -24   3   10.42    0.74
   5  24  -3    9.38    0.70
  -4 -24   3   43.65    1.56
   4  24  -3   41.76    1.43
   3  24  -3    3.16    0.44
  -3 -24   3    2.88    0.47
   2  24  -3    0.27    0.23
   1 -24  -3    2.77    0.41
   0 -24  -3   62.94    1.83
  -1 -24  -3   42.69    1.56
  -2 -24  -3   10.73    0.81
  -3  24  -3  107.96    2.60
  -3 -24  -3  104.92    2.42
  -4  24  -3    1.47    0.36
  -4 -24  -3    1.93    0.39
  -5  24  -3   24.50    1.17
  -5 -24  -3   24.80    1.09
  -6 -24  -3   17.35    0.82
  -4 -25   3    1.37    0.28
  -3 -25   3    8.05    0.61
  -2 -25   3   15.88    0.85
  -1 -25   3   41.07    1.35
   0 -25   3   75.49    1.77
  -1 -25  -3    0.84    0.23
   1 -25   3    0.74    0.24
  -2 -25  -3    5.80    0.50
  -3 -25  -3    1.07    0.25
  19   0  -4   20.88    1.13
  18   0  -4   49.91    2.10
  17   0  -4    7.14    0.95
  16   0  -4    1.21    0.55
  15   0  -4  419.90    7.83
  14   0  -4   51.24    2.46
  14   0  -4   48.33    2.74
  13   0  -4  178.92    4.67
  13   0  -4  179.68    5.21
  12   0  -4    0.64    0.50
  12   0  -4    0.94    0.48
  11   0  -4   20.72    1.71
  10   0  -4  447.33    6.18
  -9   0   4   76.47    2.18
   9   0  -4   75.56    2.44
  -8   0   4 1006.77    7.29
   8   0  -4  991.46    8.28
   7   0  -4  141.78    2.95
   6   0  -4  547.19    5.47
   6   0  -4  571.39    5.69
   5   0  -4 1350.31    8.34
   4   0  -4  102.38    2.17
   4   0  -4  103.40    2.24
   3   0  -4  169.43    2.72
   2   0  -4  139.30    2.43
   1   0  -4 1213.97    7.19
   0   0  -4  584.21    5.07
  -1   0  -4  465.69    4.64
  -1   0  -4  481.68    4.66
  -2   0  -4  119.73    2.42
  -3   0  -4   14.64    0.93
  -4   0  -4    8.10    0.75
  -5   0  -4   92.90    2.63
  -6   0  -4  185.17    3.93
  -7   0  -4  501.19    6.88
  -8   0  -4  419.19    6.68
  -9   0  -4  147.98    4.23
 -10   0  -4   50.65    2.63
 -11   0  -4   53.65    2.83
  12   0   4   21.60    1.61
  13   0   4   83.74    3.21
  13   0   4   83.85    3.04
  14   0   4    4.34    0.79
  15   0   4  387.29    6.43
  16   0   4   16.63    1.27
  17   0   4  224.02    4.00
  18   0   4   76.62    1.89
  19  -1  -4    2.64    0.45
  19   1  -4    2.13    0.43
  18   1  -4    0.58    0.39
  18  -1  -4    0.26    0.31
  17   1  -4   14.92    1.34
  17  -1  -4   14.90    1.32
  16   1  -4    4.13    0.86
  16  -1  -4    3.92    0.78
  15  -1  -4   48.78    2.32
  15   1  -4   46.68    2.66
  15  -1  -4   41.68    2.48
  14  -1  -4   24.24    1.73
  14   1  -4   24.53    2.00
  14  -1  -4   20.69    1.78
  13  -1  -4   62.93    2.84
  13   1  -4   60.53    3.06
  13  -1  -4   60.72    3.05
  12   1  -4  167.87    4.42
  12  -1  -4  169.78    4.61
  12   1  -4  163.73    4.90
  12  -1  -4  171.69    4.95
  11  -1  -4    9.79    1.18
  11   1  -4   13.69    1.42
 -10   1   4  189.64    3.75
  10  -1  -4  188.35    4.11
  -9   1   4  338.72    4.71
   9  -1  -4  337.04    5.24
   9   1  -4  336.31    4.97
   8  -1  -4    9.09    0.84
  -8  -1   4    8.40    0.65
   8   1  -4    9.57    0.82
   7  -1  -4   47.86    1.76
   7   1  -4   47.88    1.66
   6  -1  -4    7.76    0.70
   6   1  -4    7.74    0.63
   6   1  -4    7.72    0.71
   5   1  -4   23.90    1.04
   5  -1  -4   25.45    1.13
   5   1  -4   24.67    1.16
   4   1  -4   90.36    1.94
   4  -1  -4   90.67    2.02
   4  -1  -4   94.00    2.17
   4   1  -4   91.73    2.16
   3  -1  -4  446.53    4.63
   3   1  -4  445.66    4.18
   3  -1  -4  454.51    4.34
   2   1  -4   75.29    1.69
   2  -1  -4   72.70    1.85
   1   1  -4  692.92    5.21
   1  -1  -4  674.50    5.60
   0  -1  -4   33.60    1.28
   0   1  -4   35.10    1.19
  -1   1  -4    2.29    0.34
  -1   1  -4    1.88    0.31
  -1  -1  -4    2.86    0.43
  -1  -1  -4    1.97    0.37
  -2  -1  -4   26.34    1.21
  -2   1  -4   25.24    1.09
  -3   1  -4   12.27    0.83
  -3  -1  -4   12.50    0.90
  -4   1  -4   18.66    1.08
  -4  -1  -4   19.48    1.17
  -5  -1  -4  135.90    3.24
  -5   1  -4  129.51    3.03
  -6   1  -4  275.64    4.69
  -6  -1  -4  275.30    4.91
  -7   1  -4  155.01    3.76
  -7  -1  -4  157.86    3.96
  -8   1  -4   11.01    1.10
  -8  -1  -4   11.42    1.17
  -9   1  -4  103.06    3.49
  -9  -1  -4  106.12    3.65
 -10   1  -4   87.41    3.40
 -10  -1  -4   89.77    3.52
 -11   1  -4   13.23    1.42
 -11  -1  -4   12.27    1.39
  12  -1   4    4.64    0.81
  12   1   4    4.22    0.76
  13   1   4    1.38    0.57
  13  -1   4    0.85    0.54
  13  -1   4    1.25    0.51
  14   1   4   28.31    1.84
  14  -1   4   29.99    1.91
  14  -1   4   27.71    1.71
  15   1   4   17.41    1.40
  15  -1   4   18.42    1.46
  16   1   4   82.26    2.73
  16  -1   4   83.43    2.75
  17   1   4   23.30    1.30
  17  -1   4   25.22    1.37
  18   1   4   39.14    1.32
  18  -1   4   40.40    1.39
  19  -2  -4   10.22    0.76
  19   2  -4    9.77    0.79
  18   2  -4   22.75    1.45
  18  -2  -4   23.43    1.39
  17   2  -4   23.76    1.65
  17  -2  -4   22.13    1.56
  16   2  -4   70.67    3.09
  16  -2  -4   70.09    2.59
  16  -2  -4   67.19    2.93
  15  -2  -4  129.68    3.86
  15   2  -4  128.51    4.35
  15  -2  -4  127.54    4.24
  14  -2  -4   34.86    2.12
  14   2  -4   34.97    2.36
  14  -2  -4   33.01    2.23
  13   2  -4   10.42    1.32
  13  -2  -4   12.22    1.30
  13  -2  -4   11.70    1.38
  12  -2  -4  232.07    5.44
  12   2  -4  233.43    5.88
  12  -2  -4  231.84    5.69
  11  -2  -4   89.85    3.45
 -11   2   4   96.47    2.93
  11  -2  -4   92.09    3.07
  11  -2  -4   93.19    3.38
  11   2  -4   93.02    3.58
 -10   2   4   21.44    1.33
  10  -2  -4   22.09    1.46
  -9   2   4   89.67    2.53
   9  -2  -4   90.01    2.76
   8  -2  -4   76.16    2.42
   8   2  -4   76.00    2.18
   7  -2  -4   39.72    1.66
   7   2  -4   37.37    1.45
   7   2  -4   43.05    1.71
   6   2  -4   20.06    0.98
   6   2  -4   19.58    1.12
   6  -2  -4   20.83    1.15
   5   2  -4  743.41    5.63
   5  -2  -4  744.58    6.57
   5  -2  -4  766.35    6.02
   5   2  -4  765.51    6.59
   4  -2  -4  148.88    2.83
   4  -2  -4  148.49    2.50
   4   2  -4  152.34    2.85
   3  -2  -4  814.01    5.58
   3   2  -4  822.15    5.29
   2   2  -4  111.66    1.95
   2  -2  -4  116.06    2.42
   1  -2  -4   37.18    1.39
   1   2  -4   37.06    1.14
   0  -2  -4   29.98    1.26
   0   2  -4   31.65    1.08
  -1   2  -4   27.72    1.05
  -1  -2  -4   26.76    1.22
  -1   2  -4   27.89    1.02
  -2  -2  -4    5.20    0.59
  -2   2  -4    3.54    0.41
  -3   2  -4   58.18    1.72
  -3  -2  -4   57.93    1.94
  -4   2  -4    4.31    0.51
  -4  -2  -4    2.79    0.52
  -5   2  -4   98.28    2.57
  -5  -2  -4  100.10    2.85
  -6   2  -4   41.82    1.81
  -6  -2  -4   43.45    2.00
  -7   2  -4   62.43    2.36
  -7  -2  -4   59.27    2.47
  -8   2  -4   43.90    2.11
  -8  -2  -4   44.29    2.27
  -9   2  -4    0.55    0.38
  -9  -2  -4    1.56    0.50
 -10   2  -4   11.86    1.29
 -10  -2  -4   12.62    1.37
 -10   2  -4   10.68    1.11
 -11  -2  -4   31.16    2.20
  11  -2   4   32.00    2.01
 -11   2  -4   32.65    2.16
  12  -2   4    5.72    0.92
  13   2   4    8.75    1.07
  13  -2   4    8.21    1.05
  14   2   4  178.53    4.51
  14  -2   4  174.66    4.53
  14  -2   4  171.59    4.29
  15   2   4  277.55    5.36
  15  -2   4  287.40    5.46
  15  -2   4  281.79    4.99
  16   2   4    3.73    0.68
  16  -2   4    2.50    0.56
  17   2   4    1.85    0.44
  17  -2   4    1.72    0.41
  18  -2   4    8.25    0.64
  19  -3  -4    1.25    0.28
  19   3  -4    1.31    0.34
  18  -3  -4    4.34    0.61
  18   3  -4    3.56    0.62
  17   3  -4    3.15    0.70
  17  -3  -4    2.78    0.62
  17  -3  -4    2.72    0.50
  16  -3  -4   44.71    2.12
  16   3  -4   47.52    2.54
  16  -3  -4   44.66    2.35
  15   3  -4    4.94    0.94
  15  -3  -4    5.67    0.96
  15  -3  -4    5.46    0.86
  14   3  -4    0.79    0.49
  14  -3  -4    2.02    0.67
  14  -3  -4    1.88    0.57
  13  -3  -4  101.09    3.68
  13   3  -4   97.94    3.90
  13  -3  -4  104.48    3.87
 -12   3   4   65.23    2.59
  12  -3  -4   64.86    2.93
  12   3  -4   62.91    3.10
  12  -3  -4   62.51    2.96
  11   3  -4    3.78    0.83
  11  -3  -4    3.38    0.76
 -11   3   4    5.58    0.77
  11  -3  -4    5.25    0.86
  11  -3  -4    3.84    0.71
 -10   3   4  181.94    3.94
  10  -3  -4  182.82    4.25
   9  -3  -4   50.66    2.13
   8  -3  -4    1.86    0.44
   7  -3  -4   84.25    2.49
   7   3  -4   88.13    2.12
   7   3  -4   86.86    2.48
   6   3  -4  289.23    3.56
   6   3  -4  282.95    4.27
   5   3  -4  327.33    3.51
   5  -3  -4  319.77    4.45
   5   3  -4  317.85    4.39
   4   3  -4    5.77    0.45
   4  -3  -4    5.24    0.59
   4  -3  -4    6.05    0.51
   3  -3  -4  367.64    4.58
   3  -3  -4  372.26    3.64
   2   3  -4  316.56    2.98
   2  -3  -4  311.59    4.13
   2  -3  -4  322.48    3.21
   1  -3  -4  968.06    7.29
   1   3  -4  997.35    5.31
   0   3  -4  107.10    1.83
   0  -3  -4  102.28    2.40
  -1   3  -4    3.04    0.33
  -1   3  -4    2.53    0.33
  -1  -3  -4    2.70    0.46
  -2  -3  -4  955.61    7.96
  -2   3  -4  964.21    6.23
  -2  -3  -4  970.65    7.77
  -3  -3  -4  255.05    4.23
  -3   3  -4  250.73    3.47
  -4   3  -4  468.20    5.11
  -4  -3  -4  465.31    5.91
  -5   3  -4  454.82    5.44
  -5  -3  -4  431.94    6.08
  -6   3  -4   51.53    1.99
  -6  -3  -4   49.56    2.20
  -7   3  -4   19.58    1.32
  -7  -3  -4   19.02    1.46
  -8   3  -4   39.75    2.00
  -8  -3  -4   39.72    2.21
  -9   3  -4   48.10    2.34
  -9  -3  -4   45.65    2.49
 -10   3  -4   33.60    2.07
 -10  -3  -4   33.18    2.24
 -10   3  -4   32.08    1.85
 -11   3  -4   21.55    1.75
  11  -3   4   21.14    1.66
  12   3   4    8.85    1.06
  12  -3   4    8.16    1.07
  13   3   4    6.71    0.98
  13  -3   4    6.44    0.93
  14   3   4   29.93    1.85
  14  -3   4   30.29    1.92
  14  -3   4   30.73    1.88
  15   3   4   51.23    2.29
  15  -3   4   55.44    2.41
  15  -3   4   50.30    2.17
  16   3   4   20.22    1.33
  16  -3   4   20.30    1.37
  17   3   4   42.20    1.64
  17  -3   4   45.39    1.79
  18  -3   4   10.46    0.69
  19   4  -4    9.79    0.75
  18  -4  -4    0.07    0.27
  18   4  -4    0.48    0.36
  17  -4  -4   52.28    2.01
  17   4  -4   52.81    2.40
  17  -4  -4   48.55    2.14
  16  -4  -4  254.78    5.09
  16   4  -4  265.70    5.85
  16  -4  -4  252.90    5.39
  15  -4  -4   19.42    1.56
  15   4  -4   20.85    1.78
  15  -4  -4   20.82    1.68
  14  -4  -4   55.68    2.72
  14   4  -4   54.07    2.91
  14  -4  -4   50.59    2.65
  13  -4  -4   43.94    2.47
  13   4  -4   42.62    2.60
  13  -4  -4   42.21    2.44
  12   4  -4    7.91    1.17
  12  -4  -4    7.79    1.11
 -12   4   4    6.68    0.90
  12  -4  -4    5.80    0.91
 -11   4   4   13.94    1.20
  11  -4  -4   16.08    1.34
  11   4  -4   15.10    1.49
  11  -4  -4   16.52    1.51
 -10   4   4  102.15    3.03
  10  -4  -4  100.28    3.21
   9  -4  -4  468.04    6.55
   8  -4  -4    5.10    0.71
   7  -4  -4   47.66    1.93
   7   4  -4   48.63    1.89
   6   4  -4  335.55    3.71
   6   4  -4  323.56    4.69
   5  -4  -4  239.96    3.99
   5   4  -4  243.41    2.91
   5   4  -4  242.57    3.94
   4   4  -4  106.11    1.72
   4  -4  -4   99.90    2.51
   3   4  -4   71.52    1.31
   3  -4  -4   68.23    2.05
   2   4  -4  194.83    2.05
   2  -4  -4  200.99    2.35
   1   4  -4    0.83    0.16
   1  -4  -4    1.28    0.21
   0  -4  -4  365.24    4.71
   0   4  -4  393.65    3.18
  -1   4  -4  506.13    3.95
  -1  -4  -4  506.44    5.67
  -2  -4  -4  277.61    4.27
  -2   4  -4  275.47    3.24
  -3  -4  -4    2.99    0.56
  -3   4  -4    1.02    0.27
  -4   4  -4  216.75    3.44
  -4  -4  -4  213.37    4.20
  -5   4  -4  190.65    3.49
  -5  -4  -4  179.23    4.01
  -6   4  -4    3.22    0.51
  -6  -4  -4    3.90    0.66
  -7   4  -4    2.64    0.53
  -7  -4  -4    2.86    0.63
  -8   4  -4  154.57    3.93
  -8  -4  -4  156.48    4.43
  -9   4  -4   31.81    1.91
  -9  -4  -4   31.72    2.11
 -10   4  -4  269.32    5.78
 -10  -4  -4  266.10    6.35
 -10   4  -4  259.06    5.38
  10  -4   4  269.89    5.79
 -11   4  -4   56.92    2.81
 -11  -4  -4   55.71    3.01
  11  -4   4   52.48    2.61
  12   4   4   85.85    3.14
  12  -4   4   85.49    3.32
  13   4   4   32.49    1.93
  13  -4   4   28.47    1.91
  14   4   4    0.52    0.43
  14  -4   4    1.05    0.46
  14  -4   4    1.61    0.56
  15   4   4    4.31    0.75
  15  -4   4    5.61    0.83
  15  -4   4    5.19    0.78
  16   4   4    0.33    0.30
  16  -4   4    0.38    0.34
  16  -4   4    0.37    0.29
  17   4   4   31.82    1.35
  17  -4   4   33.69    1.49
  18  -5  -4   30.88    1.22
  18  -5  -4   30.22    1.31
  17   5  -4    3.82    0.69
  17  -5  -4    3.77    0.60
  17  -5  -4    4.29    0.62
  16   5  -4   32.42    2.05
  16  -5  -4   33.99    1.89
  16  -5  -4   30.64    1.83
  15   5  -4    2.96    0.73
  15  -5  -4    1.84    0.58
  15  -5  -4    2.64    0.65
  14  -5  -4  133.75    4.25
  14   5  -4  141.51    4.64
  14  -5  -4  140.81    4.30
  13   5  -4    6.92    1.11
  13  -5  -4    6.72    1.04
  13  -5  -4    7.50    1.08
  12   5  -4    8.45    1.17
  12  -5  -4    7.11    1.03
 -12   5   4    7.31    0.93
 -11   5   4  381.39    6.32
  11  -5  -4  365.68    6.46
  11  -5  -4  366.67    6.75
  10  -5  -4   23.81    1.60
   9  -5  -4   40.74    2.00
   8  -5  -4   55.96    2.25
   7  -5  -4   94.33    2.78
   7   5  -4   90.18    2.62
   6   5  -4  101.56    2.71
   5  -5  -4   96.15    2.63
   5   5  -4   95.43    2.54
   4  -5  -4   48.05    1.81
   3  -5  -4    0.57    0.34
   2  -5  -4  360.66    4.80
   1  -5  -4  738.59    6.94
   1  -5  -4  733.77    3.70
   0  -5  -4    3.66    0.56
  -1  -5  -4   32.74    1.51
  -1   5  -4   31.42    0.92
  -2  -5  -4   85.14    2.48
  -2   5  -4   87.36    1.77
  -3   5  -4  689.41    5.54
  -3  -5  -4  706.65    7.66
  -4   5  -4    2.28    0.39
  -4  -5  -4    2.98    0.61
  -5   5  -4  550.24    5.88
  -5  -5  -4  536.69    7.27
  -6   5  -4  109.91    2.86
  -6  -5  -4  103.92    3.34
  -7   5  -4   77.26    2.58
  -7  -5  -4   74.15    2.95
  -8   5  -4  224.76    4.70
  -8  -5  -4  213.24    5.25
  -9   5  -4   14.42    1.30
  -9  -5  -4   15.07    1.52
  -9   5  -4   16.10    1.36
 -10   5  -4    1.89    0.59
 -10  -5  -4    1.79    0.63
  10  -5   4    0.63    0.46
  11   5   4  110.30    3.51
  11  -5   4  107.90    3.79
  12   5   4   81.98    3.05
  12  -5   4   82.91    3.32
  13   5   4    1.38    0.48
  13  -5   4    1.69    0.57
  14   5   4    1.12    0.47
  14  -5   4    1.23    0.52
  14  -5   4    1.59    0.55
  15   5   4   86.62    2.81
  15  -5   4   91.38    2.97
  15  -5   4   89.89    2.93
  16   5   4   44.90    1.81
  16  -5   4   46.90    1.97
  16  -5   4   45.58    1.79
  17   5   4    0.88    0.28
  17  -5   4    1.37    0.37
  18  -6  -4   67.28    1.81
  18   6  -4   73.01    2.26
  17  -6  -4   28.85    1.52
  17   6  -4   26.95    1.64
  17  -6  -4   28.74    1.44
  16  -6  -4   10.54    1.07
  16  -6  -4   10.13    1.02
  16   6  -4   10.04    1.15
  15  -6  -4   50.01    2.48
  15   6  -4   50.18    2.64
  15  -6  -4   46.52    2.30
  14  -6  -4   22.41    1.76
  14   6  -4   22.89    1.87
  14  -6  -4   24.17    1.77
  13  -6  -4   24.55    1.88
  13   6  -4   23.40    1.92
  13  -6  -4   23.52    1.78
 -12   6   4   88.81    3.23
  12  -6  -4   85.45    3.28
  12  -6  -4   81.63    3.18
  12   6  -4   84.85    3.58
 -11   6   4   27.34    1.76
  11  -6  -4   30.04    1.97
  11  -6  -4   28.69    1.86
  11   6  -4   26.51    1.98
  10  -6  -4   15.52    1.33
  10   6  -4   15.04    1.45
   9  -6  -4   45.81    2.16
   8  -6  -4   26.84    1.58
   8   6  -4   26.40    1.52
   7  -6  -4    4.40    0.66
   7   6  -4    4.62    0.65
   6   6  -4  100.02    2.74
   5  -6  -4  807.59    7.83
   5   6  -4  767.98    7.40
   4  -6  -4   51.62    1.95
   3  -6  -4    2.33    0.48
   2  -6  -4  119.25    2.87
   1  -6  -4  216.91    3.92
   0  -6  -4  191.86    3.68
  -1  -6  -4  340.83    4.98
  -2  -6  -4  111.82    2.94
  -3  -6  -4    9.73    0.93
  -3   6  -4   10.47    0.69
  -4  -6  -4  293.82    5.36
  -4   6  -4  294.61    3.95
  -5  -6  -4   74.18    2.81
  -5   6  -4   74.41    2.18
  -6   6  -4   90.96    2.60
  -6  -6  -4   90.87    3.24
  -7   6  -4   18.16    1.26
  -7  -6  -4   19.13    1.59
  -8   6  -4   11.03    1.06
  -8  -6  -4   12.38    1.35
  -9   6  -4   44.70    2.24
  -9  -6  -4   43.98    2.60
   9  -6   4   45.07    2.40
 -10   6  -4   19.97    1.59
 -10  -6  -4   19.27    1.79
  10  -6   4   20.75    1.69
  11   6   4   32.72    1.89
  11  -6   4   30.63    2.07
  12   6   4  124.27    3.68
  12  -6   4  126.60    4.13
  13   6   4    5.47    0.81
  13  -6   4    6.64    0.95
  13  -6   4    5.51    0.92
  14   6   4   18.58    1.37
  14  -6   4   21.72    1.55
  14  -6   4   18.55    1.49
  15   6   4   28.40    1.56
  15  -6   4   31.21    1.71
  15  -6   4   30.59    1.72
  16   6   4   77.39    2.20
  16  -6   4   82.63    2.50
  16  -6   4   78.38    2.34
  17  -6   4    0.04    0.22
  18  -7  -4   15.23    0.87
  18   7  -4   16.77    1.04
  17  -7  -4   22.43    1.33
  17   7  -4   22.95    1.44
  16  -7  -4   76.52    2.81
  16   7  -4   76.29    2.92
  15   7  -4    5.09    0.92
  15  -7  -4    5.97    0.93
  14  -7  -4   12.14    1.22
  14  -7  -4   12.35    1.33
  14   7  -4   11.50    1.33
  13   7  -4    1.36    0.61
  13  -7  -4    1.03    0.44
  12  -7  -4   35.48    2.19
  12   7  -4   36.77    2.36
  11  -7  -4    0.73    0.36
  11   7  -4    0.74    0.60
 -11   7   4    0.60    0.40
  11  -7  -4    1.86    0.74
  10  -7  -4  120.75    3.71
  10  -7  -4  109.58    3.76
  10   7  -4  114.43    3.94
   9  -7  -4    0.79    0.43
   8  -7  -4    1.42    0.43
   8   7  -4    0.92    0.40
   7  -7  -4   88.81    2.84
   7   7  -4   85.48    2.67
   6   7  -4   90.86    2.67
   5  -7  -4  122.05    3.15
   5   7  -4  114.16    2.93
   4  -7  -4   28.67    1.53
   3  -7  -4  392.24    5.45
   2  -7  -4 1245.87    9.61
   1  -7  -4   78.10    2.44
   0  -7  -4  137.41    3.23
  -1  -7  -4  135.88    3.29
  -2  -7  -4  534.52    6.69
  -3  -7  -4  123.32    3.29
  -4  -7  -4  291.56    5.28
  -4   7  -4  312.14    4.03
  -5   7  -4  230.23    3.81
  -5  -7  -4  221.52    5.04
  -6   7  -4  175.62    3.62
  -6  -7  -4  177.88    4.70
  -7  -7  -4  473.27    8.03
  -7   7  -4  499.70    6.55
  -8   7  -4  211.51    4.56
   8  -7   4  202.48    4.95
  -8  -7  -4  211.44    5.59
  -9   7  -4   97.05    3.29
  -9  -7  -4   94.12    3.87
   9  -7   4  101.54    3.64
 -10   7  -4  104.11    3.58
 -10  -7  -4  105.28    4.24
  10  -7   4  105.41    3.81
  11  -7   4   83.80    3.42
  12   7   4    7.82    0.94
  12  -7   4    7.80    1.09
  13   7   4  152.17    3.87
  13  -7   4  154.85    4.13
  13  -7   4  150.76    4.39
  14   7   4    0.28    0.33
  14  -7   4    0.67    0.37
  14  -7   4    0.37    0.40
  15   7   4    0.38    0.35
  15  -7   4   -0.15    0.31
  15  -7   4    0.17    0.31
  16  -7   4    7.95    0.77
  16  -7   4    8.34    0.79
  17  -7   4   69.31    1.75
  18  -8  -4   23.01    1.02
  17  -8  -4   13.72    1.03
  17   8  -4   13.17    1.04
  16  -8  -4    8.58    0.97
  16   8  -4    9.47    1.02
  15  -8  -4  244.15    5.35
  15   8  -4  240.32    5.37
  14  -8  -4   33.21    1.99
  14  -8  -4   33.99    2.14
  14   8  -4   32.56    2.11
  13  -8  -4  194.23    5.01
  13   8  -4  193.21    5.28
  12  -8  -4  131.12    4.24
  12   8  -4  130.78    4.35
 -11   8   4   53.62    2.56
  11  -8  -4   52.14    2.71
  11  -8  -4   53.58    2.59
  11   8  -4   56.19    2.83
  10  -8  -4  216.48    5.06
  10  -8  -4  209.37    5.29
  10   8  -4  206.13    5.29
   9  -8  -4   11.92    1.19
   9  -8  -4   11.08    1.26
   8  -8  -4   30.17    1.78
   8   8  -4   26.28    1.57
   7  -8  -4    7.83    0.93
   7   8  -4    7.11    0.81
   6   8  -4  204.20    4.09
   5  -8  -4   37.79    1.81
   5   8  -4   36.77    1.73
   4  -8  -4  656.30    7.37
   3  -8  -4  126.00    3.22
   2  -8  -4  506.25    6.40
   1  -8  -4    1.75    0.44
   0  -8  -4   41.02    1.85
  -1  -8  -4   14.82    1.15
  -2  -8  -4  365.49    5.71
  -3  -8  -4   75.34    2.69
  -4  -8  -4    2.35    0.55
  -5  -8  -4  191.28    4.62
  -7   8  -4   82.90    2.69
  -7  -8  -4   85.70    3.53
  -8   8  -4   75.62    2.75
  -8  -8  -4   75.50    3.46
   8  -8   4   73.66    3.09
  -8  -8  -4   74.43    2.72
  -9   8  -4    1.70    0.57
  -9  -8  -4    1.85    0.71
   9  -8   4    1.02    0.56
  -9  -8  -4    1.70    0.49
  10  -8   4  121.01    4.11
  11  -8   4   13.00    1.40
  12  -8   4   47.56    2.58
  13  -8   4    0.17    0.35
  13  -8   4    0.07    0.43
  14  -8   4    9.60    0.98
  14  -8   4   10.51    1.13
  15  -8   4   29.11    1.52
  15  -8   4   32.45    1.73
  16  -8   4    0.70    0.31
  16  -8   4    0.71    0.31
  18  -9  -4    3.49    0.40
  17  -9  -4  157.89    3.30
  16  -9  -4   80.96    2.77
  16   9  -4   78.87    2.66
  15   9  -4   27.23    1.74
  15  -9  -4   31.55    1.92
  14  -9  -4   17.59    1.46
  14  -9  -4   22.14    1.73
  14   9  -4   20.84    1.65
  13   9  -4    2.50    0.70
  13  -9  -4    1.88    0.63
  12  -9  -4   93.16    3.60
  12   9  -4   91.86    3.58
  11   9  -4    5.14    0.91
  11  -9  -4    6.81    1.08
  10  -9  -4   25.64    1.79
  10  -9  -4   24.23    1.89
  10   9  -4   24.54    1.83
   9  -9  -4   10.34    1.13
   9  -9  -4   10.10    1.19
   9   9  -4   10.97    1.22
   8  -9  -4  161.75    4.20
   8   9  -4  156.57    3.85
   7  -9  -4  273.35    5.29
   7   9  -4  261.19    4.85
   6   9  -4  124.43    3.26
   5  -9  -4  256.74    4.86
   5   9  -4  256.52    4.64
   4  -9  -4   12.53    1.08
   3  -9  -4   85.41    2.75
   2  -9  -4  435.61    6.14
   1  -9  -4   86.89    2.74
   0  -9  -4   22.52    1.45
  -1  -9  -4   61.12    2.37
  -2  -9  -4  407.97    6.26
  -3  -9  -4  504.04    7.17
  -4  -9  -4   38.17    2.06
  -5  -9  -4    2.90    0.69
  -6  -9  -4   28.78    1.94
   7  -9   4  156.69    4.39
  -7  -9  -4  151.18    3.91
  -7  -9  -4  150.43    4.58
   8  -9   4   69.38    3.03
  -8  -9  -4   62.68    2.56
   9  -9   4   27.39    1.98
  -9  -9  -4   27.75    1.71
  10  -9   4    2.38    0.74
  11  -9   4  319.80    6.71
  12  -9   4   60.60    2.88
  13  -9   4    1.18    0.43
  13  -9   4    2.15    0.71
  14  -9   4    0.29    0.33
  14  -9   4    0.89    0.47
  15  -9   4   -0.03    0.26
  15  -9   4    0.19    0.34
  16  -9   4   17.02    0.92
  16  -9   4   19.34    1.11
  17 -10  -4   19.52    1.13
  16 -10  -4    5.27    0.75
  15 -10  -4   46.58    2.26
  15  10  -4   42.70    2.05
  14  10  -4    0.85    0.45
  14 -10  -4    0.70    0.51
  13  10  -4    3.02    0.69
  13 -10  -4    1.62    0.65
  12  10  -4    0.55    0.44
  12 -10  -4    0.37    0.50
  11 -10  -4  100.85    3.83
  11  10  -4  100.63    3.66
  10 -10  -4   36.53    2.17
  10 -10  -4   37.42    2.36
  10  10  -4   35.19    2.16
  10  10  -4   41.94    1.97
   9  10  -4   21.10    1.46
   9 -10  -4   20.00    1.59
   9 -10  -4   20.93    1.76
   9  10  -4   18.40    1.54
   8  10  -4  199.11    4.24
   8 -10  -4  210.11    4.87
   8 -10  -4  201.47    5.22
   7 -10  -4   18.84    1.45
   7  10  -4   16.97    1.30
   6  10  -4  120.31    3.28
   5 -10  -4   32.94    1.80
   5  10  -4   32.46    1.70
   4 -10  -4   60.79    2.41
   3 -10  -4   26.61    1.60
   2 -10  -4    3.85    0.68
   1 -10  -4   36.39    1.85
   0 -10  -4  297.05    5.32
  -1 -10  -4   59.59    2.42
  -2 -10  -4    7.11    0.89
  -3 -10  -4   86.71    3.08
  -4 -10  -4   22.92    1.67
  -5 -10  -4   63.17    2.84
  -6 -10  -4   26.80    1.92
  -6 -10  -4   24.86    1.61
  -7 -10  -4    8.56    0.98
  -7 -10  -4    8.98    1.20
   7 -10   4    7.52    1.06
  -8 -10  -4   12.65    1.46
  -8 -10  -4   12.28    1.18
   8 -10   4   13.86    1.44
   9 -10   4  134.80    4.39
  -9 -10  -4  140.27    3.86
  10 -10   4   20.95    1.77
 -10 -10  -4   22.61    1.53
  11 -10   4    0.93    0.57
  12 -10   4    3.03    0.63
  12 -10   4    3.18    0.79
  13 -10   4    0.59    0.37
  13 -10   4    0.52    0.40
  14 -10   4    2.36    0.49
  14 -10   4    2.43    0.61
  15 -10   4   -0.29    0.31
  15 -10   4    0.70    0.37
  16 -10   4   35.37    1.40
  17 -11  -4   17.79    1.01
  16 -11  -4   19.77    1.29
  15 -11  -4    0.10    0.35
  14 -11  -4   57.82    2.64
  14  11  -4   56.01    2.38
  13  11  -4    7.92    1.00
  13 -11  -4    8.71    1.12
  12 -11  -4   91.72    3.62
  12  11  -4   94.44    3.39
  11 -11  -4  391.12    7.62
  11  11  -4  406.39    7.09
  10 -11  -4  164.88    4.97
  10  11  -4  171.02    4.61
  10  11  -4  178.88    4.05
   9 -11  -4   -0.19    0.56
   9 -11  -4    0.27    0.39
   8  11  -4   64.37    2.49
   8 -11  -4   62.88    2.71
   8 -11  -4   61.35    2.97
   7 -11  -4  129.85    3.82
   7  11  -4  131.89    3.54
   7 -11  -4  124.23    4.10
   7  11  -4  125.68    3.46
   6  11  -4   17.98    1.31
   6 -11  -4   19.76    1.47
   5 -11  -4   14.99    1.27
   5  11  -4   12.66    1.11
   4 -11  -4    8.19    0.96
   3 -11  -4   58.31    2.41
   2 -11  -4  131.51    3.61
   1 -11  -4  725.12    8.52
   0 -11  -4    1.60    0.48
  -1 -11  -4  178.71    4.37
  -2 -11  -4   42.83    2.18
  -3 -11  -4  197.58    4.77
  -4 -11  -4   99.08    3.50
  -5 -11  -4   58.45    2.81
  -5 -11  -4   55.26    2.40
  -6 -11  -4   67.11    3.09
   6 -11   4   71.71    3.00
  -6 -11  -4   67.78    2.67
  -7 -11  -4  376.74    7.48
   7 -11   4  396.05    7.19
  -7 -11  -4  396.75    6.57
  -8 -11  -4  242.95    6.16
   8 -11   4  256.29    5.98
  -8 -11  -4  247.81    5.18
   9 -11   4    4.90    0.95
  -9 -11  -4    3.45    0.69
  10 -11   4    5.29    0.94
 -10 -11  -4    6.20    0.84
  11 -11   4   52.19    2.72
  12 -11   4   45.32    2.00
  12 -11   4   46.81    2.49
  13 -11   4   11.83    0.98
  13 -11   4   10.93    1.16
  14 -11   4   21.27    1.46
  15 -11   4    0.11    0.32
  16 -11   4    0.21    0.22
  17 -12  -4    3.68    0.45
  16 -12  -4   14.03    1.03
  15 -12  -4    0.46    0.36
  14 -12  -4    1.58    0.57
  13 -12  -4    6.34    0.97
  13 -12  -4    7.12    1.02
  12 -12  -4   31.05    2.11
  11 -12  -4  107.12    3.99
  11  12  -4  109.33    3.13
  10 -12  -4    2.94    0.78
  10  12  -4    5.32    0.94
   9 -12  -4    1.36    0.47
   9  12  -4    3.18    0.85
   9 -12  -4    1.68    0.64
   8  12  -4   45.89    2.17
   8 -12  -4   46.06    2.38
   8 -12  -4   45.28    2.60
   7 -12  -4   28.16    1.84
   7  12  -4   32.56    1.83
   7 -12  -4   27.85    2.02
   7  12  -4   28.41    1.69
   6  12  -4   42.12    2.04
   6 -12  -4   42.31    2.41
   6  12  -4   38.35    1.94
   6 -12  -4   39.45    2.11
   5  12  -4    4.89    0.72
   4 -12  -4   47.89    2.28
   4  12  -4   44.63    2.07
   3 -12  -4    6.90    0.88
   2 -12  -4   15.52    1.30
   1 -12  -4  123.26    3.64
   0 -12  -4    0.88    0.42
  -1 -12  -4   51.13    2.39
  -2 -12  -4   55.83    2.57
  -3 -12  -4    3.69    0.75
  -4 -12  -4  104.81    3.69
  -4 -12  -4  104.79    3.30
   5 -12   4    8.20    1.06
  -5 -12  -4    7.83    0.96
  -5 -12  -4    8.30    1.13
   6 -12   4    0.38    0.54
  -6 -12  -4    0.92    0.45
   7 -12   4   51.43    2.68
  -7 -12  -4   50.17    2.80
  -7 -12  -4   51.47    2.42
   8 -12   4    1.91    0.69
  -8 -12  -4    0.70    0.41
   9 -12   4    3.47    0.82
  -9 -12  -4    2.46    0.62
  10 -12   4   33.70    2.21
 -10 -12  -4   32.62    1.81
  11 -12   4    0.10    0.48
  12 -12   4   61.10    2.78
  13 -12   4   18.29    1.46
  14 -12   4   45.85    2.02
  15 -12   4   13.40    0.96
  16 -13  -4    1.19    0.33
  15 -13  -4   17.57    1.25
  14 -13  -4   25.40    1.63
  13 -13  -4    7.85    1.02
  12 -13  -4    2.20    0.67
  11 -13  -4  346.13    7.11
  11  13  -4  350.52    5.57
  10 -13  -4   35.80    2.37
  10  13  -4   36.05    1.92
   9 -13  -4   52.95    2.88
   9  13  -4   57.45    2.48
   8 -13  -4    1.28    0.52
   8 -13  -4    0.59    0.49
   8  13  -4    2.25    0.77
   7  13  -4   10.30    1.10
   7 -13  -4   11.83    1.23
   7  13  -4   10.45    1.07
   7 -13  -4    8.86    1.20
   6 -13  -4   41.61    2.20
   6  13  -4   38.80    2.02
   6 -13  -4   40.69    2.42
   6  13  -4   39.40    1.98
   5  13  -4   54.14    2.37
   5  13  -4   52.52    2.27
   4  13  -4    0.46    0.33
   4 -13  -4    0.81    0.42
   3  13  -4  169.17    4.12
   3 -13  -4  166.25    4.30
   2 -13  -4   47.84    2.31
   1 -13  -4   29.80    1.84
   0 -13  -4   11.68    1.19
  -1 -13  -4    8.26    1.03
  -2 -13  -4  249.28    5.51
  -2 -13  -4  246.05    4.98
  -3 -13  -4  289.47    6.08
  -3 -13  -4  291.12    5.53
  -4 -13  -4   75.63    3.20
  -4 -13  -4   80.04    2.97
  -5 -13  -4  255.14    6.02
   5 -13   4  270.48    5.74
  -5 -13  -4  263.40    5.43
  -6 -13  -4    5.05    0.91
   6 -13   4    5.11    0.90
  -6 -13  -4    3.49    0.70
  -7 -13  -4  266.57    5.51
   7 -13   4  274.67    6.11
   8 -13   4   70.35    3.16
  -8 -13  -4   65.79    2.72
   9 -13   4    0.81    0.54
  -9 -13  -4    1.60    0.51
  10 -13   4   82.58    3.39
 -10 -13  -4   84.64    2.87
  11 -13   4   28.63    1.96
  12 -13   4  391.42    6.71
  13 -13   4   45.41    2.12
  14 -13   4  128.16    3.15
  15 -13   4    6.41    0.63
  16 -14  -4   14.22    0.87
  15 -14  -4    4.62    0.60
  14 -14  -4   15.42    1.21
  13 -14  -4    0.69    0.43
  12 -14  -4   32.99    2.01
  12  14  -4   32.42    1.58
  11 -14  -4    1.79    0.63
  11  14  -4   -1.49    0.89
  10 -14  -4   11.42    1.38
  10  14  -4    9.04    1.01
   9 -14  -4    9.29    1.25
   9  14  -4   10.43    1.23
   8  14  -4   31.95    1.93
   8 -14  -4   29.52    2.15
   7  14  -4   75.00    2.85
   7 -14  -4   68.33    2.91
   7 -14  -4   67.55    3.20
   6 -14  -4  302.07    6.00
   6  14  -4  307.97    5.71
  -6  14   4  316.46    5.76
   5  14  -4   37.14    2.00
   5 -14  -4   33.90    2.00
   4  14  -4    8.75    1.01
   4  14  -4    9.03    1.00
   3 -14  -4    8.10    1.00
   3  14  -4    7.35    0.96
   2  14  -4   45.01    2.18
   2 -14  -4   45.38    2.28
   2 -14  -4   43.34    2.04
   1  14  -4    3.81    0.74
   1 -14  -4    3.49    0.72
   1 -14  -4    4.53    0.72
   0 -14  -4    6.52    0.94
   0  14  -4    6.73    0.88
   0 -14  -4    6.59    0.86
  -1 -14  -4    1.28    0.54
  -1 -14  -4    1.06    0.45
  -2  14  -4   89.54    2.95
  -2 -14  -4   93.46    3.17
  -2 -14  -4   92.69    3.40
  -3 -14  -4   52.67    2.66
  -3 -14  -4   49.62    2.38
  -4 -14  -4    6.81    1.09
  -4 -14  -4    5.62    0.84
   5  14   4   84.31    3.06
  -5 -14  -4   81.14    3.42
  -5 -14  -4   83.97    3.13
  -6 -14  -4   46.98    2.36
   6 -14   4   56.32    2.73
   7 -14   4    9.10    1.15
  -7 -14  -4    6.78    0.95
   8 -14   4   79.35    3.32
  -8 -14  -4   82.14    3.03
  -9 -14  -4   53.18    2.36
   9 -14   4   55.02    2.76
  10 -14   4    4.22    0.84
 -10 -14  -4    4.66    0.70
  11 -14   4   11.25    1.22
 -11 -14  -4   12.15    0.99
  12 -14   4    2.62    0.64
  13 -14   4  111.08    3.11
  14 -14   4    7.03    0.71
  15 -15  -4   32.29    1.40
  14 -15  -4   25.36    1.43
  13 -15  -4   22.08    1.46
  12 -15  -4   53.72    2.41
  12  15  -4   54.40    1.98
  11 -15  -4  219.79    5.06
  11  15  -4  221.17    4.31
  10  15  -4   -0.58    0.76
   9  15  -4  161.84    4.06
   8  15  -4   14.13    1.37
   7  15  -4  123.04    3.66
   6  15  -4   68.20    2.75
   5 -15  -4   26.90    1.82
   5  15  -4   29.26    1.84
  -5  15   4   28.51    1.83
   4  15  -4    1.27    0.53
   3  15  -4   44.31    2.19
   3 -15  -4   46.56    2.36
   2  15  -4  106.38    3.37
   2 -15  -4  104.85    3.22
   2 -15  -4  104.25    3.52
   1  15  -4  324.50    5.84
   1 -15  -4  322.33    6.18
   1 -15  -4  328.40    5.78
   0 -15  -4   33.47    2.06
   0  15  -4   33.90    1.89
   0 -15  -4   35.10    1.94
  -1 -15  -4  119.32    3.87
  -1  15  -4  111.02    3.34
  -1 -15  -4  118.50    3.62
  -2  15  -4  161.96    3.94
  -2 -15  -4  169.21    4.35
  -3 -15  -4  366.13    6.47
   4  15   4  118.07    3.73
  -4 -15  -4  111.95    3.62
  -5 -15  -4   27.96    1.84
  -6 -15  -4   45.55    2.32
   6 -15   4   48.53    2.50
   7 -15   4  300.92    6.26
  -7 -15  -4  293.19    5.79
   8 -15   4   49.38    2.55
  -8 -15  -4   45.78    2.25
   9 -15   4    0.01    0.51
  -9 -15  -4    0.65    0.41
  10 -15   4    8.04    1.03
 -10 -15  -4    7.10    0.82
  11 -15   4   96.72    3.25
 -11 -15  -4  105.14    2.69
  12 -15   4  150.00    3.73
  13 -15   4   87.97    2.57
 -13  15  -4   86.64    2.10
  14 -15   4    3.28    0.48
  15 -16  -4   12.69    0.76
  14 -16  -4    1.38    0.37
  13 -16  -4   20.19    1.29
  12 -16  -4   19.42    1.38
  12  16  -4   20.21    1.18
  11 -16  -4   37.55    2.00
  11  16  -4   41.45    1.83
  10 -16  -4    4.81    0.80
  10  16  -4    1.52    0.70
   9 -16  -4  161.02    4.28
   9  16  -4  155.41    3.93
   8 -16  -4   50.98    2.42
   8  16  -4   51.05    2.37
   7  16  -4    9.00    1.25
   6  16  -4   57.56    2.56
   5  16  -4    2.77    0.80
   4  16  -4   78.48    2.96
   3  16  -4   13.32    1.29
   2  16  -4    0.79    0.47
  -2  16   4    0.06    0.40
   2 -16  -4    0.05    0.44
   1  16  -4    6.97    0.93
  -1  16   4    6.05    0.92
   1 -16  -4    6.58    0.89
   0  16  -4   19.66    1.45
   0  16   4   17.47    1.53
   0 -16  -4   17.79    1.42
  -1  16  -4    1.61    0.50
  -1 -16  -4    1.44    0.51
  -2  16  -4   44.85    2.08
  -2 -16  -4   44.16    2.27
  -3 -16  -4  141.95    4.08
  -4 -16  -4    3.68    0.76
  -5 -16  -4  112.49    3.63
  -6 -16  -4   58.79    2.64
   7 -16   4   82.71    3.21
  -7 -16  -4   83.24    3.06
   8 -16   4   38.67    2.18
  -8 -16  -4   35.20    1.94
   9 -16   4   25.58    1.75
  -9 -16  -4   27.57    1.62
  10 -16   4    3.11    0.66
 -10 -16  -4    3.61    0.57
  11 -16   4    2.27    0.57
 -11 -16  -4    1.89    0.40
  12 -16   4    9.51    0.92
  13 -16   4    1.82    0.42
  14 -17  -4    4.51    0.49
  13 -17  -4    2.07    0.42
  12 -17  -4   82.69    2.55
  12  17  -4   84.22    2.21
  11 -17  -4   13.47    1.12
  11  17  -4   12.39    0.98
  10 -17  -4    1.81    0.52
  10  17  -4    1.90    0.44
   9 -17  -4  327.08    5.71
   9  17  -4  313.93    5.45
   8  17  -4   13.93    1.25
   7  17  -4  103.91    3.32
   6  17  -4    4.43    1.03
   5  17  -4   49.32    2.39
   4  17  -4   28.26    1.84
   3  17  -4  109.13    3.48
   2  17  -4  160.98    4.17
   2 -17  -4  152.97    3.94
   1  17  -4    4.78    0.80
   1 -17  -4    3.46    0.68
   0  17  -4    4.47    0.75
   0 -17  -4    4.18    0.71
  -1  17  -4    5.23    0.77
  -1 -17  -4    5.64    0.85
  -2 -17  -4   55.08    2.53
  -3 -17  -4  162.87    4.38
  -4 -17  -4  170.24    4.45
  -5 -17  -4  102.74    3.44
  -6 -17  -4    2.90    0.66
   7 -17   4   76.90    2.93
  -7 -17  -4   81.48    2.94
   8 -17   4   96.48    3.24
  -8 -17  -4   92.66    3.00
   9 -17   4   82.93    2.91
  -9 -17  -4   82.15    2.66
  10 -17   4   37.77    1.88
 -10 -17  -4   37.94    1.64
  11 -17   4    4.23    0.64
 -11 -17  -4    4.76    0.53
  12 -17   4   40.35    1.59
 -12  17  -4   40.07    1.46
  13 -18  -4    5.77    0.54
  12 -18  -4   20.61    1.12
  12  18  -4   20.44    1.01
  11 -18  -4   96.43    2.63
  11  18  -4  100.75    2.55
  10 -18  -4   57.63    2.14
  10  18  -4   56.85    2.10
   9  18  -4    1.76    0.64
   8  18  -4   -1.19    0.91
   7  18  -4   91.73    3.06
   6  18  -4   25.26    1.69
   5  18  -4    5.52    1.02
   4  18  -4   79.42    2.96
   3  18  -4   31.37    1.91
   2  18  -4   34.15    1.95
   2 -18  -4   31.21    1.76
   1  18  -4   17.44    1.39
   1  18  -4   19.18    1.52
   1 -18  -4   16.05    1.34
   0  18  -4    1.21    0.49
   0 -18  -4    1.05    0.46
  -1  18  -4    0.55    0.36
  -1 -18  -4    0.95    0.47
  -2 -18  -4    2.05    0.59
  -3 -18  -4   16.01    1.39
  -4 -18  -4    1.18    0.47
  -5 -18  -4    8.24    0.99
  -6 -18  -4    2.13    0.58
  -7 -18  -4    0.18    0.34
   8 -18   4    6.23    0.82
  -8 -18  -4    4.89    0.71
   9 -18   4    1.68    0.42
  -9 -18  -4    1.73    0.44
  10 -18   4   21.67    1.28
 -10 -18  -4   20.82    1.12
  11 -18   4    0.82    0.32
 -11  18  -4    0.70    0.31
  12  19  -4    2.47    0.35
  11  19  -4   73.34    2.01
  10  19  -4   16.57    1.09
   9  19  -4  186.10    3.83
   7  19  -4   92.14    2.93
   6  19  -4   33.78    1.83
   5  19  -4   32.60    1.86
   4  19  -4   43.34    2.14
   3  19  -4   50.29    2.30
   2  19  -4   89.94    3.02
   2 -19  -4   89.78    2.92
   1  19  -4   29.91    1.75
   1  19  -4   28.68    1.78
   1 -19  -4   27.49    1.68
   0  19  -4    8.39    0.99
   0  19  -4    7.04    0.97
   0 -19  -4    6.00    0.85
  -1  19  -4    0.89    0.53
  -1  19  -4    2.11    0.64
  -1 -19  -4    1.55    0.50
  -2 -19  -4  153.97    4.12
  -3 -19  -4   74.00    2.85
  -4 -19  -4  157.71    4.11
  -5 -19  -4  107.80    3.34
  -6 -19  -4    0.48    0.39
  -7 -19  -4   22.30    1.43
  -8 -19  -4    1.15    0.36
  -9  19  -4   55.42    2.16
  -9 -19  -4   51.49    1.81
  10 -19   4   27.73    1.19
 -10  19  -4   28.58    1.40
 -10 -19  -4   27.09    1.13
 -11  19  -4   73.66    1.82
  11  20  -4    2.58    0.39
  10  20  -4   58.50    1.84
   9  20  -4  105.84    2.69
   8  20  -4   11.52    0.99
   7  20  -4   84.52    2.64
   6  20  -4    8.71    0.85
   5  20  -4   24.92    1.56
   4  20  -4   31.16    1.74
   3  20  -4   12.69    1.18
   2  20  -4    4.74    0.83
   2 -20  -4    4.80    0.69
   1 -20  -4   37.27    1.88
   1  20  -4   37.50    1.86
   0  20  -4    0.29    0.34
   0  20  -4    0.43    0.42
   0 -20  -4   -0.17    0.34
  -1  20  -4   14.43    1.10
  -1  20  -4   13.96    1.27
  -1 -20  -4   13.63    1.21
  -2  20  -4    9.21    1.09
  -2 -20  -4    9.48    1.04
  -3  20  -4  102.34    3.48
  -3 -20  -4   99.70    3.19
  -4  20  -4    1.33    0.59
  -4 -20  -4    1.86    0.56
  -5 -20  -4    2.74    0.62
  -5  20  -4    2.41    0.62
  -6  20  -4   68.23    2.69
  -6 -20  -4   72.24    2.49
  -7  20  -4   19.01    1.38
  -7 -20  -4   20.13    1.26
  -8  20  -4   12.97    1.07
  -8 -20  -4   13.25    0.95
  -9  20  -4    0.27    0.29
  -9 -20  -4    0.22    0.23
 -10  20  -4    2.91    0.43
  10  21  -4    0.03    0.20
   9  21  -4   89.20    2.25
  -8 -21   4   24.16    1.11
   8  21  -4   24.46    1.29
   7  21  -4    4.76    0.66
   6  21  -4   -1.25    0.69
   5  21  -4    7.97    0.82
   4  21  -4    0.58    0.64
   3  21  -4   20.57    1.34
   2 -21  -4   24.33    1.36
   2  21  -4   21.28    1.36
   1  21  -4    4.49    0.65
   1 -21  -4    6.72    0.78
   0  21  -4   12.87    1.12
   0 -21  -4   14.61    1.15
   0  21  -4   11.76    0.95
  -1  21  -4   10.92    1.07
  -1 -21  -4   10.83    1.02
  -2  21  -4  194.40    4.42
  -2 -21  -4  192.52    4.19
  -3  21  -4   62.00    2.53
  -3 -21  -4   60.81    2.35
  -4  21  -4   55.34    2.37
  -4 -21  -4   54.04    2.16
  -5  21  -4   18.74    1.36
  -5 -21  -4   19.65    1.27
  -6  21  -4    9.10    0.95
  -6 -21  -4   10.62    0.91
  -7  21  -4  153.26    3.46
  -7 -21  -4  154.19    3.13
  -8  21  -4    1.13    0.38
  -8 -21  -4    1.00    0.28
  -9  21  -4   15.23    0.90
   9  22  -4   57.63    1.59
  -8 -22   4  135.07    2.17
   8  22  -4  150.79    2.82
   7  22  -4    1.21    0.38
  -7 -22   4    1.04    0.30
   6  22  -4   31.22    1.45
   5  22  -4   -0.09    0.29
   4  22  -4    1.37    0.32
   2  22  -4    3.16    0.39
   1 -22  -4   13.32    0.97
   1  22  -4   10.78    0.84
   0  22  -4    6.43    0.62
   0  22  -4    8.56    0.85
   0 -22  -4    6.62    0.73
  -1  22  -4    2.30    0.52
  -1 -22  -4    2.30    0.48
  -2  22  -4   19.06    1.29
  -2 -22  -4   20.65    1.29
  -3  22  -4   76.45    2.55
  -3 -22  -4   82.18    2.51
  -4  22  -4    0.77    0.39
  -4 -22  -4    1.20    0.39
  -5  22  -4    7.95    0.82
  -5 -22  -4    9.23    0.82
  -6  22  -4    4.12    0.60
  -6 -22  -4    4.28    0.54
  -7  22  -4   26.10    1.27
  -7 -22  -4   26.09    1.14
  -8  22  -4   10.86    0.74
  -8 -22  -4   11.51    0.65
   8  23  -4    2.77    0.36
  -7 -23   4    5.71    0.46
   7  23  -4    6.51    0.58
  -6 -23   4   26.31    1.10
   6  23  -4   29.88    1.25
   5  23  -4    8.03    0.70
   4  23  -4    3.19    0.48
   3  23  -4    8.81    0.73
   2  23  -4    0.05    0.23
   1 -23  -4    5.83    0.58
   1  23  -4    5.53    0.56
   0 -23  -4    5.00    0.57
  -1  23  -4   20.14    1.14
  -1 -23  -4   20.53    1.14
  -2  23  -4    4.46    0.59
  -2 -23  -4    4.61    0.58
  -3  23  -4    0.38    0.28
  -3 -23  -4    0.54    0.29
  -4  23  -4   27.81    1.35
  -4 -23  -4   27.05    1.26
  -5  23  -4    3.23    0.49
  -5 -23  -4    3.90    0.49
  -6  23  -4   80.27    2.02
  -6 -23  -4   82.24    1.88
  -5 -24   4   37.17    1.19
   5  24  -4   35.63    1.17
  -4 -24   4   48.61    1.48
   4  24  -4   45.24    1.34
   3  24  -4   13.40    0.74
   0 -24  -4   28.00    1.05
  -1 -24  -4    2.89    0.40
  -2 -24  -4    0.46    0.22
  -3 -24  -4    3.01    0.40
  -4 -24  -4   30.86    1.11
  18   0  -5    0.35    0.28
  17   0  -5   -0.23    0.40
  16   0  -5    0.62    0.40
  15   0  -5    0.81    0.47
  15   0  -5    0.00    0.31
  14   0  -5    0.02    0.48
  14   0  -5   -0.15    0.36
  13   0  -5    0.73    0.57
  13   0  -5    0.67    0.47
  12   0  -5    0.02    0.50
  12   0  -5    0.51    0.49
  11   0  -5    0.10    0.42
  11   0  -5    0.34    0.41
  10   0  -5    0.18    0.41
  10   0  -5    0.53    0.28
   9   0  -5    0.28    0.28
   8   0  -5    0.51    0.26
   7   0  -5    0.20    0.22
   6   0  -5    0.04    0.19
   6   0  -5    0.37    0.29
   5   0  -5    0.56    0.28
   4   0  -5    0.64    0.26
   4   0  -5    0.48    0.26
   3   0  -5    0.12    0.22
   2   0  -5    0.42    0.23
   1   0  -5    0.15    0.22
   0   0  -5    0.32    0.24
  -1   0  -5    0.53    0.26
  -2   0  -5    1.32    0.36
  -2   0  -5    0.64    0.29
  -3   0  -5    0.32    0.29
  -4   0  -5    1.09    0.36
  -5   0  -5    0.24    0.33
  -6   0  -5    0.95    0.41
  -7   0  -5    0.15    0.31
  -8   0  -5    0.05    0.37
  -9   0  -5    0.10    0.36
  -9   0  -5    0.01    0.35
 -10   0  -5   -0.26    0.43
 -10   0  -5    0.40    0.45
 -11   0  -5   -0.05    0.38
  12   0   5   -0.09    0.35
  13   0   5   -0.07    0.41
  13   0   5   -0.20    0.41
  14   0   5    0.27    0.44
  14   0   5   -0.11    0.35
  15   0   5   -0.13    0.34
  16   0   5   -0.01    0.30
  17   0   5    0.01    0.22
  18  -1  -5    0.24    0.26
  18   1  -5    0.53    0.30
  17  -1  -5   17.20    1.31
  17   1  -5   20.26    1.45
  16  -1  -5   17.04    1.22
  16   1  -5   16.86    1.46
  16  -1  -5   17.26    1.46
  15  -1  -5   24.60    1.63
  15   1  -5   24.15    1.88
  15  -1  -5   26.02    1.92
  14   1  -5    4.42    0.93
  14  -1  -5    4.89    0.92
  14   1  -5    3.72    0.69
  14  -1  -5    4.86    0.83
  13  -1  -5  287.62    6.10
  13   1  -5  299.46    5.96
  13   1  -5  280.20    6.56
  13  -1  -5  292.29    6.56
  12   1  -5  261.76    5.71
  12  -1  -5  262.79    5.87
  12  -1  -5  250.59    6.04
  11  -1  -5   96.20    3.18
  11   1  -5   95.68    3.42
  11  -1  -5   92.94    3.48
  11   1  -5   97.71    3.73
  11  -1  -5   94.55    3.65
  10  -1  -5  199.29    4.97
  10   1  -5  210.74    4.30
  10  -1  -5  208.94    4.48
  10   1  -5  189.77    5.08
  10  -1  -5  197.80    5.11
   9  -1  -5  226.73    4.47
   9   1  -5  223.38    4.25
   8  -1  -5  169.06    3.70
   8   1  -5  168.19    3.49
   7   1  -5    3.33    0.50
   7  -1  -5    2.50    0.45
   7   1  -5    3.31    0.57
   6   1  -5    9.83    0.78
   6  -1  -5   11.18    0.86
   6   1  -5    9.64    0.84
   6  -1  -5    9.05    0.81
   5  -1  -5  325.35    4.59
   5  -1  -5  331.87    4.43
   5   1  -5  329.01    4.63
   5   1  -5  318.64    4.19
   4   1  -5  547.07    5.31
   4  -1  -5  525.86    5.69
   4  -1  -5  532.50    5.42
   4   1  -5  543.37    5.82
   3  -1  -5   18.82    1.09
   3   1  -5   18.49    0.98
   3  -1  -5   16.73    0.95
   2   1  -5   54.32    1.66
   2  -1  -5   51.68    1.76
   1  -1  -5  119.70    2.73
   1   1  -5  122.91    2.52
   0  -1  -5  385.96    4.91
   0   1  -5  401.33    4.62
  -1  -1  -5  299.31    4.46
  -1   1  -5  309.23    4.21
  -2   1  -5  188.60    3.41
  -2  -1  -5  195.99    3.71
  -2   1  -5  195.08    3.47
  -2  -1  -5  197.98    3.75
  -3   1  -5  135.48    3.00
  -3  -1  -5  135.09    3.23
  -4   1  -5  245.01    4.33
  -4  -1  -5  244.95    4.56
  -5   1  -5  215.45    4.31
  -5  -1  -5  206.34    4.40
  -6   1  -5    3.98    0.69
  -6  -1  -5    4.63    0.74
  -7   1  -5    0.70    0.43
  -7  -1  -5    1.17    0.52
  -8   1  -5   30.56    1.96
  -8  -1  -5   29.85    2.00
  -9   1  -5    2.15    0.63
  -9  -1  -5    2.42    0.66
  -9   1  -5    2.88    0.67
  -9  -1  -5    2.81    0.66
 -10   1  -5  168.89    4.97
 -10  -1  -5  168.75    5.10
 -10   1  -5  166.83    4.35
 -10  -1  -5  173.51    4.35
 -11  -1  -5  107.26    3.41
 -11   1  -5  110.44    3.53
  12  -1   5   68.80    2.86
  12   1   5   72.51    2.86
  13   1   5   43.13    2.22
  13  -1   5   40.79    2.13
  13   1   5   38.69    2.00
  14   1   5    4.41    0.71
  14  -1   5    5.34    0.81
  14  -1   5    6.75    0.90
  15   1   5    4.04    0.67
  15  -1   5    3.04    0.60
  15  -1   5    3.18    0.53
  16   1   5    0.59    0.34
  16  -1   5    0.32    0.30
  17   1   5   13.59    0.83
  17  -1   5   13.84    0.87
  18  -2  -5    1.35    0.38
  18   2  -5    1.84    0.46
  17  -2  -5    0.74    0.39
  17   2  -5    0.77    0.42
  16   2  -5    4.50    0.85
  16  -2  -5    4.45    0.81
  16  -2  -5    3.91    0.64
  15   2  -5    5.23    0.98
  15  -2  -5    4.99    0.88
  15  -2  -5    6.01    0.86
  14  -2  -5   76.77    3.11
  14   2  -5   72.23    3.31
  14  -2  -5   74.70    3.25
  13  -2  -5   47.43    2.53
  13   2  -5   47.23    2.34
  13   2  -5   48.16    2.75
  13  -2  -5   48.65    2.67
  12  -2  -5  104.18    3.77
  12   2  -5  101.83    3.49
  12   2  -5   98.63    3.88
  12  -2  -5  101.47    3.83
  11   2  -5  269.49    5.66
  11  -2  -5  272.76    5.44
  11  -2  -5  269.21    5.99
  11   2  -5  275.05    6.31
  11  -2  -5  275.16    6.15
  10  -2  -5   18.83    1.41
  10  -2  -5   17.52    1.51
  10   2  -5   19.03    1.64
  10  -2  -5   18.93    1.59
   9  -2  -5   64.76    2.46
   9   2  -5   65.12    2.22
   8  -2  -5  158.62    3.69
   8   2  -5  166.91    3.40
   7  -2  -5   46.52    1.92
   7   2  -5   45.29    1.67
   7   2  -5   47.62    1.94
   6   2  -5   18.45    1.02
   6   2  -5   19.13    1.20
   5   2  -5    7.83    0.64
   5  -2  -5    7.16    0.75
   5  -2  -5    7.35    0.66
   5   2  -5    7.00    0.73
   4  -2  -5   53.83    1.90
   4  -2  -5   49.16    1.60
   4   2  -5   51.80    1.85
   3  -2  -5   34.49    1.51
   3   2  -5   34.62    1.25
   3  -2  -5   35.58    1.34
   2   2  -5  526.05    4.88
   2  -2  -5  509.82    5.71
   1  -2  -5  820.74    7.39
   1   2  -5  773.45    5.96
   0  -2  -5  106.07    2.68
   0   2  -5  108.37    2.28
  -1  -2  -5  407.18    5.34
  -1   2  -5  399.80    4.61
  -2   2  -5    0.48    0.23
  -2   2  -5    0.40    0.24
  -2  -2  -5    0.41    0.29
  -3   2  -5   51.38    1.82
  -3  -2  -5   53.52    2.12
  -3  -2  -5   51.44    2.05
  -4   2  -5  170.76    3.55
  -4  -2  -5  170.49    3.92
  -5   2  -5   16.32    1.19
  -5  -2  -5   14.59    1.22
  -6   2  -5  546.80    7.16
  -6  -2  -5  545.91    7.70
  -7  -2  -5   25.25    1.78
  -7   2  -5   24.12    1.61
  -8   2  -5  128.39    3.91
  -8  -2  -5  132.45    4.24
  -8   2  -5  137.20    3.84
  -9   2  -5   32.49    2.09
  -9  -2  -5   31.08    2.17
  -9   2  -5   33.03    1.94
 -10   2  -5   11.09    1.33
 -10  -2  -5    9.99    1.28
 -10  -2  -5   12.83    1.21
 -10   2  -5    9.64    1.09
 -11   2  -5   45.93    2.30
  12  -2   5   12.04    1.27
  12   2   5   12.21    1.16
  13   2   5  142.28    3.96
  13  -2   5  134.73    3.91
  14   2   5    0.84    0.48
  14  -2   5   -0.04    0.40
  14  -2   5   -0.15    0.35
  15   2   5   66.41    2.40
  15  -2   5   68.08    2.48
  15  -2   5   61.25    2.16
  16   2   5    2.18    0.47
  16  -2   5    3.14    0.56
  17   2   5    1.94    0.33
  17  -2   5    2.44    0.40
  18  -3  -5   79.86    2.17
  18   3  -5   82.25    2.47
  17  -3  -5   28.37    1.39
  17  -3  -5   25.90    1.51
  17   3  -5   28.35    1.69
  16  -3  -5   79.96    2.73
  16   3  -5   81.66    3.13
  16  -3  -5   80.68    2.95
  15  -3  -5   90.14    3.21
  15   3  -5   93.00    3.59
  15  -3  -5   88.06    3.32
  14  -3  -5   21.48    1.69
  14   3  -5   22.42    1.87
  14  -3  -5   22.03    1.78
  13  -3  -5  290.91    6.30
  13   3  -5  279.23    6.58
  13  -3  -5  300.36    6.47
  12  -3  -5   20.07    1.69
  12   3  -5   20.82    1.80
  12  -3  -5   22.25    1.80
  11  -3  -5   89.71    3.18
  11   3  -5   85.46    3.12
  11  -3  -5   84.74    3.38
  11   3  -5   84.18    3.53
  11  -3  -5   81.54    3.33
 -10   3   5  151.38    3.63
  10  -3  -5  149.62    3.99
  10  -3  -5  146.68    4.34
  10   3  -5  143.03    4.43
  10  -3  -5  144.71    4.26
   9  -3  -5   34.92    1.85
   8  -3  -5    2.76    0.57
   7  -3  -5  249.09    4.54
   7   3  -5  252.61    3.79
   7   3  -5  256.51    4.56
   6   3  -5  358.12    4.29
   6   3  -5  351.32    5.19
   5  -3  -5   10.98    0.93
   5   3  -5   10.00    0.68
   5   3  -5   10.09    0.88
   4   3  -5  266.44    3.29
   4  -3  -5  263.09    3.58
   3  -3  -5  219.97    3.94
   3   3  -5  222.08    2.94
   3  -3  -5  223.59    3.16
   2   3  -5  106.53    2.02
   2  -3  -5  103.52    2.69
   2  -3  -5  105.92    2.12
   1  -3  -5  193.01    3.72
   1   3  -5  193.19    2.79
   0  -3  -5 1226.63    9.41
   0   3  -5 1241.17    7.36
  -1  -3  -5  261.92    4.44
  -1   3  -5  260.25    3.54
  -2   3  -5   72.76    1.99
  -2  -3  -5   68.40    2.34
  -2   3  -5   70.47    1.94
  -3  -3  -5   26.77    1.52
  -3   3  -5   23.69    1.21
  -3  -3  -5   25.64    1.53
  -4   3  -5   38.16    1.64
  -4  -3  -5   38.34    1.95
  -5   3  -5   58.81    2.18
  -5  -3  -5   58.72    2.50
  -6   3  -5   25.60    1.55
  -6  -3  -5   22.30    1.62
  -7  -3  -5  311.84    6.27
  -7   3  -5  318.48    5.73
  -8   3  -5   47.48    2.35
  -8  -3  -5   52.07    2.69
  -8   3  -5   45.77    2.26
  -9   3  -5   37.80    2.23
  -9  -3  -5   37.66    2.38
  -9   3  -5   36.18    2.07
 -10   3  -5   12.59    1.36
 -10  -3  -5   11.08    1.36
 -10   3  -5   12.88    1.28
 -10  -3  -5   12.87    1.22
 -11   3  -5   86.01    3.15
  11  -3   5   89.44    3.41
  12  -3   5   11.06    1.23
  13   3   5   85.50    3.04
  13  -3   5   85.93    3.15
  14   3   5  115.19    3.34
  14  -3   5  120.72    3.53
  14  -3   5  112.33    3.36
  15   3   5   40.98    1.84
  15  -3   5   42.22    1.95
  15  -3   5   42.47    1.84
  16   3   5   32.37    1.45
  16  -3   5   33.67    1.56
  17  -3   5   21.35    1.03
  18   4  -5    3.10    0.54
  17  -4  -5    1.98    0.45
  17   4  -5    1.54    0.50
  17  -4  -5    1.39    0.39
  16  -4  -5   22.97    1.51
  16   4  -5   24.25    1.73
  16  -4  -5   23.65    1.55
  15  -4  -5  188.33    4.67
  15   4  -5  189.39    5.08
  15  -4  -5  186.23    4.67
  14  -4  -5   28.76    1.96
  14   4  -5   30.29    2.16
  14  -4  -5   29.12    1.97
  13   4  -5    0.64    0.47
  13  -4  -5    1.51    0.64
  13  -4  -5    0.74    0.45
  12  -4  -5   85.92    3.50
  12   4  -5   80.18    3.53
  12  -4  -5   84.39    3.38
  11  -4  -5  235.37    5.25
  11  -4  -5  226.67    5.55
  11   4  -5  218.85    5.71
  11  -4  -5  228.92    5.49
 -10   4   5   58.05    2.34
  10  -4  -5   60.93    2.60
  10  -4  -5   59.30    2.78
  10   4  -5   56.07    2.83
  10  -4  -5   62.46    2.79
   9  -4  -5   16.79    1.34
   8  -4  -5   11.35    1.07
   8   4  -5    9.40    0.97
   7  -4  -5   74.26    2.55
   7   4  -5   74.88    2.53
   6   4  -5   90.79    2.71
   5   4  -5  284.63    4.68
   5  -4  -5  291.73    4.81
   4  -4  -5    3.64    0.57
   3  -4  -5  401.38    5.53
   3  -4  -5  404.87    4.05
   2  -4  -5    5.21    0.65
   2  -4  -5    5.32    0.47
   1  -4  -5    0.61    0.34
   1  -4  -5    0.53    0.18
   0  -4  -5    6.43    0.75
  -1  -4  -5 1320.86   10.28
  -2   4  -5  210.15    3.21
  -2  -4  -5  205.99    4.18
  -2   4  -5  205.92    3.17
  -3  -4  -5    6.74    0.83
  -3   4  -5    0.99    0.30
  -4   4  -5   74.03    2.25
  -4  -4  -5   81.26    2.94
  -5   4  -5   93.66    2.71
  -5  -4  -5   97.00    3.33
  -6   4  -5   31.75    1.70
  -6  -4  -5   28.28    1.89
  -7   4  -5  114.10    3.41
  -7  -4  -5  111.69    3.89
  -8   4  -5   12.56    1.24
  -8  -4  -5   10.00    1.25
  -8   4  -5   10.90    1.12
  -8  -4  -5   12.27    1.12
  -9   4  -5  117.72    3.86
  -9  -4  -5  119.01    4.34
  -9   4  -5  115.65    3.69
 -10   4  -5   53.11    2.71
 -10   4  -5   62.91    2.75
  11  -4   5   74.40    3.14
  12   4   5    1.86    0.56
  12  -4   5    1.58    0.62
  13   4   5   23.52    1.58
  13  -4   5   23.15    1.68
  14   4   5    1.35    0.46
  14  -4   5    1.90    0.58
  14  -4   5    1.05    0.46
  15   4   5   12.63    1.01
  15  -4   5   14.89    1.17
  15  -4   5   14.34    1.10
  16   4   5    8.28    0.71
  16  -4   5    9.08    0.82
  16  -4   5    7.86    0.67
  17  -4   5   34.39    1.25
  18  -5  -5   16.37    0.82
  17  -5  -5   12.89    0.97
  17  -5  -5   12.42    0.92
  17   5  -5   11.94    1.07
  16  -5  -5  196.34    4.33
  16  -5  -5  202.20    4.26
  16   5  -5  203.75    4.80
  15  -5  -5  248.72    5.39
  15   5  -5  253.73    5.78
  15  -5  -5  246.55    5.17
  14  -5  -5   85.41    3.36
  14   5  -5   83.00    3.50
  14  -5  -5   87.60    3.27
  13  -5  -5   42.63    2.46
  13   5  -5   38.99    2.46
  13  -5  -5   46.44    2.46
  12  -5  -5   38.66    2.37
  12   5  -5   38.67    2.46
  12  -5  -5   39.35    2.28
  11   5  -5    1.91    0.69
  11  -5  -5    2.48    0.70
 -11   5   5    2.29    0.57
  11  -5  -5    2.22    0.57
  11  -5  -5    1.55    0.63
  10  -5  -5  116.63    3.65
  10  -5  -5  116.82    3.92
  10   5  -5  113.81    4.02
   9  -5  -5    0.92    0.44
   9  -5  -5    0.78    0.49
   8  -5  -5    0.64    0.36
   8   5  -5    0.43    0.36
   7   5  -5   13.04    1.11
   7  -5  -5   13.77    1.18
   6   5  -5  984.88    9.09
   5   5  -5   94.79    2.78
   5  -5  -5   98.27    2.90
   4  -5  -5  136.02    3.34
   3  -5  -5    5.13    0.68
   2  -5  -5  141.96    3.36
   1  -5  -5    2.49    0.52
   0  -5  -5    5.87    0.75
  -1  -5  -5   20.71    1.38
  -2  -5  -5    7.50    0.89
  -3  -5  -5   36.55    1.88
  -4  -5  -5  225.23    4.82
  -4   5  -5  230.52    3.89
  -5   5  -5  123.42    3.07
  -5  -5  -5  119.60    3.83
  -6   5  -5   53.62    2.18
  -6  -5  -5   51.42    2.62
  -7   5  -5   22.89    1.53
  -7  -5  -5   25.56    1.95
  -8   5  -5    2.63    0.63
  -8  -5  -5    2.16    0.68
  -8   5  -5    1.76    0.54
  -8  -5  -5    2.60    0.59
  -9   5  -5   63.48    2.82
  -9  -5  -5   65.66    3.29
  -9   5  -5   64.52    2.82
  -9  -5  -5   69.43    2.66
 -10   5  -5    1.55    0.55
  10  -5   5    1.20    0.51
  11  -5   5   15.15    1.45
  12   5   5    2.22    0.59
  12  -5   5    2.22    0.63
  13   5   5   12.79    1.13
  13  -5   5   13.45    1.30
  14   5   5  176.12    3.90
  14  -5   5  183.88    4.21
  14  -5   5  176.99    4.24
  15   5   5   18.34    1.15
  15  -5   5   19.21    1.27
  15  -5   5   20.32    1.29
  16   5   5    3.48    0.45
  16  -5   5    4.71    0.59
  16  -5   5    4.14    0.51
  18  -6  -5    1.46    0.28
  17   6  -5    0.17    0.29
  17  -6  -5    0.30    0.30
  16  -6  -5  241.18    4.77
  16   6  -5  241.75    5.10
  15  -6  -5   10.92    1.19
  15  -6  -5    9.58    1.00
  15   6  -5   10.93    1.21
  14  -6  -5   11.20    1.27
  14   6  -5   10.69    1.29
  13  -6  -5   61.62    2.95
  13   6  -5   63.34    3.08
  12  -6  -5   25.53    1.95
  12   6  -5   25.05    1.97
 -11   6   5   64.78    2.70
  11  -6  -5   61.12    2.77
  11  -6  -5   63.63    3.00
  11   6  -5   62.38    3.04
  10   6  -5    7.38    1.10
  10  -6  -5    8.82    1.06
  10  -6  -5    8.85    1.17
   9   6  -5    0.94    0.42
   9  -6  -5    1.64    0.54
   9  -6  -5    1.50    0.54
   8  -6  -5   48.71    2.29
   8   6  -5   49.93    2.22
   7   6  -5   75.38    2.64
   7  -6  -5   71.34    2.66
   6   6  -5   90.76    2.84
   5  -6  -5    0.49    0.36
   5   6  -5    0.39    0.31
   4  -6  -5  157.40    3.69
   3  -6  -5  298.50    5.08
   2  -6  -5  521.32    6.65
   1  -6  -5  426.67    6.07
   0  -6  -5   28.43    1.60
  -1  -6  -5  112.81    3.21
  -2  -6  -5  176.40    4.12
  -3  -6  -5    0.59    0.36
  -4  -6  -5    1.18    0.51
  -5  -6  -5    3.48    0.71
  -6  -6  -5   -0.16    0.41
  -7   6  -5  171.07    4.09
  -7  -6  -5  175.85    5.16
  -7   6  -5  163.79    4.34
  -7  -6  -5  163.78    4.08
  -8   6  -5    8.36    1.02
  -8  -6  -5    7.17    1.17
  -8  -6  -5    7.68    0.92
  -9   6  -5   42.09    2.29
  -9  -6  -5   40.89    2.68
  -9   6  -5   36.36    2.15
   9  -6   5   38.25    2.27
  -9  -6  -5   39.76    2.03
  10  -6   5   10.96    1.28
  11   6   5    0.11    0.36
  11  -6   5    1.08    0.60
  12   6   5   10.61    1.05
  12  -6   5    9.78    1.19
  13   6   5   50.39    2.15
  13  -6   5   52.66    2.50
  14   6   5   11.20    0.97
  14  -6   5   13.06    1.14
  14  -6   5   12.64    1.19
  15   6   5    4.20    0.55
  15  -6   5    5.41    0.70
  15  -6   5    4.84    0.67
  16  -6   5    0.02    0.23
  16  -6   5    0.29    0.24
  18  -7  -5    0.32    0.19
  17  -7  -5   49.69    1.83
  16  -7  -5   39.50    1.93
  16   7  -5   40.34    2.02
  15   7  -5    5.03    0.90
  15  -7  -5    4.93    0.82
  14  -7  -5   22.57    1.74
  14   7  -5   24.48    1.85
  13  -7  -5   35.46    2.26
  13   7  -5   37.64    2.35
  12  -7  -5   57.58    2.89
  12   7  -5   56.72    2.91
  11   7  -5    1.50    0.62
 -11   7   5    0.94    0.44
  11  -7  -5    1.57    0.67
  10  -7  -5   33.61    2.05
  10  -7  -5   32.54    2.14
  10   7  -5   33.87    2.21
   9  -7  -5   20.02    1.55
   9  -7  -5   19.98    1.63
   9   7  -5   23.59    1.81
   8  -7  -5   14.31    1.28
   8   7  -5   12.63    1.17
   7  -7  -5    0.36    0.36
   7   7  -5    0.25    0.34
   6   7  -5  119.44    3.34
   5   7  -5   11.76    1.06
   5  -7  -5   12.58    1.12
   4  -7  -5  206.18    4.38
   3  -7  -5   38.15    1.89
   2  -7  -5  151.83    3.72
   1  -7  -5  137.13    3.57
   0  -7  -5    4.13    0.67
  -1  -7  -5   74.69    2.70
  -2  -7  -5   32.06    1.82
  -3  -7  -5   28.83    1.80
  -4  -7  -5   45.16    2.29
  -5  -7  -5  148.93    4.34
  -6  -7  -5  180.33    4.92
  -7   7  -5   58.81    2.65
  -7  -7  -5   56.83    2.44
  -8  -7  -5    3.73    0.70
  -9  -7  -5   89.71    3.99
   9  -7   5   89.51    3.49
  -9  -7  -5   88.14    3.04
  10  -7   5   75.63    3.24
  11  -7   5   26.92    1.95
  12  -7   5    0.55    0.53
  13  -7   5    6.40    0.87
  13  -7   5    5.01    0.84
  14  -7   5    6.76    0.81
  14  -7   5    7.68    0.96
  15  -7   5  110.11    2.78
  15  -7   5  106.15    2.85
  16  -7   5   40.87    1.44
  16  -7   5   41.25    1.44
  17  -8  -5    4.36    0.56
  16   8  -5    0.77    0.39
  16  -8  -5    0.44    0.33
  15  -8  -5  146.54    4.01
  15   8  -5  143.69    4.01
  14  -8  -5   23.10    1.73
  14   8  -5   21.16    1.68
  13  -8  -5   82.52    3.41
  13   8  -5   85.22    3.43
  12  -8  -5  143.95    4.55
  12   8  -5  142.37    4.53
  11  -8  -5  118.15    4.11
  11   8  -5  117.11    4.10
  10  -8  -5   76.29    3.11
  10  -8  -5   73.95    3.22
  10   8  -5   74.89    3.26
   9  -8  -5  132.79    4.01
   9  -8  -5  137.92    4.30
   9   8  -5  135.82    4.27
   8  -8  -5   40.37    2.19
   8  -8  -5   42.31    2.31
   8   8  -5   42.94    2.14
   8   8  -5   42.52    2.32
   7   8  -5  357.71    5.97
   7  -8  -5  351.56    6.19
   6   8  -5    7.24    0.89
   5  -8  -5   24.21    1.59
   5   8  -5   24.66    1.55
   4  -8  -5  132.32    3.63
   3  -8  -5  573.20    7.49
   2  -8  -5    2.74    0.60
   1  -8  -5   24.46    1.55
   0  -8  -5    0.61    0.35
  -1  -8  -5    2.60    0.60
  -2  -8  -5   33.49    1.93
  -3  -8  -5    0.57    0.36
  -4  -8  -5   25.07    1.79
  -5  -8  -5    6.23    0.98
  -6  -8  -5    9.01    1.19
  -6  -8  -5    9.73    1.04
  -7  -8  -5  349.80    7.20
  -7  -8  -5  354.53    6.18
  -8  -8  -5   16.01    1.63
   8  -8   5   15.98    1.50
  -8  -8  -5   15.26    1.32
   9  -8   5    0.18    0.48
  -9  -8  -5    0.43    0.43
  10  -8   5   94.17    3.63
 -10  -8  -5  100.54    3.18
  11  -8   5   55.74    2.77
  12  -8   5   23.54    1.76
  13  -8   5   28.24    1.63
  13  -8   5   25.76    1.74
  14  -8   5   22.00    1.34
  14  -8   5   22.57    1.49
  15  -8   5   34.61    1.49
  15  -8   5   36.20    1.64
  16  -8   5    7.97    0.63
  17  -9  -5    0.62    0.29
  16  -9  -5    7.86    0.85
  15   9  -5    1.53    0.52
  15  -9  -5    1.37    0.51
  14  -9  -5   17.73    1.51
  14   9  -5   15.42    1.38
  13  -9  -5   19.45    1.65
  13   9  -5   18.94    1.61
  12  -9  -5   16.83    1.58
  12   9  -5   18.19    1.61
  11   9  -5    6.58    1.05
  11  -9  -5    4.99    0.92
  10  -9  -5   14.96    1.51
  10   9  -5   15.99    1.52
   9   9  -5    2.46    0.68
   9  -9  -5    2.67    0.68
   9  -9  -5    4.15    0.82
   8  -9  -5   62.37    2.76
   8   9  -5   59.32    2.35
   8  -9  -5   60.17    2.77
   8   9  -5   59.52    2.55
   8   9  -5   61.57    2.80
   7  -9  -5  108.39    3.51
   7  -9  -5  114.08    3.70
   7   9  -5  105.56    3.33
   6   9  -5   43.50    2.11
   5  -9  -5   20.56    1.52
   5   9  -5   20.61    1.46
   4  -9  -5  343.74    6.00
   3  -9  -5   28.52    1.75
   2  -9  -5   48.10    2.25
   1  -9  -5   17.00    1.37
   0  -9  -5    9.25    1.04
  -1  -9  -5   89.01    3.15
  -2  -9  -5    8.54    1.04
  -3  -9  -5    6.97    1.01
  -4  -9  -5  175.79    4.79
  -5  -9  -5  230.29    5.67
  -5  -9  -5  229.84    4.89
  -6  -9  -5   14.12    1.49
   6  -9   5   14.58    1.39
  -6  -9  -5   13.22    1.22
  -7  -9  -5   27.07    2.10
   7  -9   5   25.62    1.87
  -7  -9  -5   25.38    1.70
  -8  -9  -5   81.97    3.68
   8  -9   5   84.66    3.41
  -8  -9  -5   82.87    3.04
   9  -9   5   46.66    2.57
  -9  -9  -5   46.66    2.26
  10  -9   5  137.40    4.39
 -10  -9  -5  139.18    3.75
  11  -9   5   13.00    1.37
  12  -9   5  224.35    5.28
  13  -9   5    0.49    0.38
  13  -9   5    0.61    0.48
  14  -9   5   15.12    1.05
  14  -9   5   16.12    1.25
  15  -9   5   28.38    1.23
  15  -9   5   28.30    1.41
  17 -10  -5   12.87    0.84
  16 -10  -5   70.15    2.33
  15 -10  -5   26.94    1.65
  14 -10  -5   23.99    1.71
  13  10  -5    3.92    0.76
  13 -10  -5    4.18    0.88
  12 -10  -5  157.93    4.66
  12  10  -5  152.87    4.45
  11 -10  -5   63.65    3.03
  11  10  -5   64.21    2.91
  10 -10  -5   59.62    2.90
  10  10  -5   63.52    2.93
   9  10  -5   63.78    2.46
   9 -10  -5   65.74    2.92
   9 -10  -5   63.02    2.93
   9  10  -5   63.16    2.89
   8 -10  -5  185.03    4.80
   8  10  -5  183.28    4.17
   8 -10  -5  180.73    4.82
   8  10  -5  180.53    4.45
   7 -10  -5  158.30    4.34
   7  10  -5  155.05    3.89
   7 -10  -5  158.96    4.40
   7  10  -5  165.10    4.20
   6  10  -5  231.85    4.79
   6  10  -5  234.70    4.96
   5 -10  -5    6.39    0.90
   5  10  -5    6.15    0.84
   4 -10  -5  227.32    5.03
   3 -10  -5  414.08    6.76
   2 -10  -5   38.52    2.09
   1 -10  -5   15.90    1.36
   0 -10  -5    5.77    0.86
  -1 -10  -5   10.28    1.15
  -2 -10  -5   50.85    2.53
  -3 -10  -5  455.87    7.68
  -4 -10  -5  100.76    3.71
  -4 -10  -5  101.55    3.29
  -5 -10  -5  280.16    6.39
   5 -10   5  291.18    5.86
  -5 -10  -5  278.07    5.52
  -6 -10  -5   84.29    3.64
   6 -10   5   91.98    3.41
  -6 -10  -5   90.82    3.19
  -7 -10  -5  162.40    5.13
   7 -10   5  154.90    4.55
  -7 -10  -5  153.37    4.17
   8 -10   5    5.64    0.96
  -8 -10  -5    5.76    0.85
   9 -10   5   11.00    1.30
  -9 -10  -5   11.21    1.15
  10 -10   5    8.56    1.17
 -10 -10  -5    9.35    1.01
  11 -10   5    8.15    1.10
  12 -10   5   25.41    1.52
  12 -10   5   24.17    1.76
  13 -10   5   65.44    2.23
  13 -10   5   65.57    2.62
  14 -10   5   58.65    1.89
  14 -10   5   59.12    2.24
  15 -10   5    4.29    0.56
  17 -11  -5    4.56    0.48
  16 -11  -5    7.87    0.78
  15 -11  -5   11.49    1.07
  14 -11  -5  109.16    3.45
  13 -11  -5   18.60    1.55
  12 -11  -5    6.59    1.01
  11 -11  -5   12.63    1.39
  10  11  -5   95.33    3.00
  10 -11  -5   90.07    3.55
   9  11  -5   25.66    1.62
   9 -11  -5   20.99    1.72
   8  11  -5   24.64    1.60
   8 -11  -5   23.45    1.76
   8 -11  -5   20.73    1.67
   8  11  -5   24.02    1.66
   7 -11  -5  102.27    3.57
   7  11  -5   99.68    3.18
   7 -11  -5  102.38    3.55
   7  11  -5   99.02    3.31
   6  11  -5  162.47    4.09
   6 -11  -5  169.23    4.42
   6  11  -5  160.04    4.16
   5  11  -5   16.42    1.32
   5 -11  -5   16.90    1.46
   5  11  -5   16.86    1.39
   4 -11  -5   42.90    2.26
   3 -11  -5  113.72    3.62
   2 -11  -5    7.16    0.96
   1 -11  -5   21.44    1.61
   0 -11  -5  134.06    4.03
  -1 -11  -5  117.78    3.86
  -2 -11  -5  137.35    4.23
  -3 -11  -5    3.48    0.74
  -3 -11  -5    3.42    0.67
  -4 -11  -5    7.85    1.14
  -4 -11  -5    8.29    1.00
  -5 -11  -5  212.14    5.64
   5 -11   5  222.33    5.19
  -5 -11  -5  216.07    4.96
  -6 -11  -5  139.47    4.71
   6 -11   5  144.44    4.33
  -6 -11  -5  143.99    4.07
   7 -11   5    1.48    0.57
  -7 -11  -5    0.82    0.42
   8 -11   5  105.76    3.83
  -8 -11  -5  103.99    3.43
   9 -11   5   36.06    2.26
  -9 -11  -5   33.47    1.92
  10 -11   5    1.88    0.63
 -10 -11  -5    1.78    0.52
  11 -11   5    1.01    0.59
  12 -11   5    0.84    0.35
  12 -11   5    1.19    0.54
  13 -11   5    8.55    0.77
  13 -11   5    9.76    1.03
  14 -11   5   31.92    1.59
  15 -11   5    8.88    0.72
  16 -12  -5   16.48    1.02
  15 -12  -5   36.47    1.73
  14 -12  -5    1.64    0.50
  13 -12  -5    7.39    0.97
  12 -12  -5   94.14    3.46
  11 -12  -5   34.98    2.18
  11  12  -5   36.45    1.78
  10 -12  -5   14.58    1.45
  10  12  -5   18.52    1.42
   9  12  -5   40.86    2.04
   9 -12  -5   40.49    2.35
   8  12  -5   10.79    1.14
   8 -12  -5   10.01    1.18
   7 -12  -5   66.74    2.93
   7  12  -5   65.14    2.61
   7 -12  -5   66.93    2.87
   7  12  -5   64.01    2.68
   6  12  -5   52.08    2.36
   6 -12  -5   53.85    2.53
   6  12  -5   52.29    2.42
   6 -12  -5   52.18    2.56
   5  12  -5   84.03    2.99
   5 -12  -5   82.23    3.20
   5  12  -5   81.26    3.02
   4 -12  -5    2.00    0.56
   4  12  -5    1.36    0.47
   4  12  -5    1.21    0.44
   3  12  -5  112.81    3.48
   3 -12  -5  111.21    3.68
   2  12  -5   97.93    3.26
   2 -12  -5   95.24    3.41
   1 -12  -5    0.98    0.49
   1  12  -5    0.97    0.46
   0  12  -5   94.96    3.20
   0 -12  -5   94.08    3.46
  -1  12  -5   30.96    1.83
  -1 -12  -5   31.04    2.04
  -1 -12  -5   33.11    1.86
  -2  12  -5   57.97    2.49
  -2 -12  -5   54.29    2.76
  -2 -12  -5   56.15    2.45
  -3  12  -5   22.06    1.52
  -3 -12  -5   22.56    1.81
  -3 -12  -5   20.65    1.53
  -4 -12  -5    5.35    0.97
  -4 -12  -5    4.38    0.79
  -5 -12  -5  266.32    6.41
   5 -12   5  282.16    5.89
  -5 -12  -5  270.16    5.60
  -6 -12  -5  400.34    8.01
   6 -12   5  413.62    7.32
  -6 -12  -5  406.73    6.91
   7 -12   5  180.17    4.93
  -7 -12  -5  180.06    4.57
   8 -12   5   56.55    2.80
  -8 -12  -5   58.61    2.57
   9 -12   5  120.17    4.05
  -9 -12  -5  117.36    3.54
  10 -12   5   94.44    3.52
 -10 -12  -5   93.57    2.98
  11 -12   5   31.90    1.98
 -11 -12  -5   31.47    1.59
  12 -12   5    1.05    0.47
  13 -12   5   20.81    1.39
  14 -12   5    6.75    0.73
  15 -12   5    0.72    0.24
  16 -13  -5    2.45    0.40
  15 -13  -5    1.04    0.34
  14 -13  -5    4.49    0.71
  13 -13  -5   24.69    1.65
  12 -13  -5    3.28    0.70
  11 -13  -5   34.98    2.13
  11  13  -5   36.34    1.76
  10 -13  -5   21.10    1.70
  10  13  -5   23.79    1.58
   9  13  -5   93.44    3.07
   9 -13  -5   89.26    3.40
   8  13  -5   78.82    2.87
   8 -13  -5   76.48    3.11
   7 -13  -5    1.65    0.57
   7  13  -5    2.39    0.70
   6  13  -5   45.52    2.24
   6  13  -5   44.55    2.24
   6 -13  -5   47.75    2.49
   5  13  -5    4.32    0.76
   5  13  -5    3.11    0.68
   4  13  -5    0.37    0.37
   4 -13  -5    0.52    0.48
   4  13  -5   -0.06    0.44
   3  13  -5    2.82    0.63
   3 -13  -5    2.94    0.67
   2  13  -5  269.70    5.46
   2 -13  -5  263.55    5.80
   2 -13  -5  258.22    5.00
   1  13  -5   71.39    2.81
   1 -13  -5   74.86    3.14
   1 -13  -5   71.36    2.69
   0  13  -5    2.55    0.60
   0 -13  -5    2.29    0.58
   0 -13  -5    3.97    0.76
  -1  13  -5    5.66    0.84
  -1 -13  -5    5.65    0.94
  -1 -13  -5    5.55    0.83
  -2 -13  -5    0.51    0.43
  -2  13  -5   -0.20    0.43
  -2 -13  -5    0.96    0.42
  -3 -13  -5    2.58    0.74
  -3  13  -5    1.30    0.52
  -3 -13  -5    1.97    0.52
  -4 -13  -5   25.10    2.00
  -4 -13  -5   26.17    1.77
   5 -13   5    8.50    1.08
  -5 -13  -5    7.79    0.99
   6 -13   5  148.88    4.39
  -6 -13  -5  140.05    4.07
   7 -13   5   -0.27    0.50
  -7 -13  -5    0.86    0.48
   8 -13   5    0.29    0.39
  -8 -13  -5    0.93    0.43
   9 -13   5    0.76    0.47
  -9 -13  -5    0.54    0.39
  10 -13   5   -0.09    0.42
 -10 -13  -5    0.53    0.39
  11 -13   5    1.53    0.58
 -11 -13  -5    1.58    0.42
  12 -13   5   45.48    2.11
  13 -13   5    1.62    0.42
  14 -13   5   56.71    1.82
  15 -14  -5   27.71    1.29
  14 -14  -5    0.53    0.33
  13 -14  -5   34.97    1.84
  12 -14  -5  149.43    4.01
  11 -14  -5   21.61    1.62
  11  14  -5   19.29    1.26
  10 -14  -5   28.93    1.90
  10  14  -5   28.52    1.68
   9 -14  -5   12.97    1.30
   9  14  -5   16.29    1.42
   8  14  -5   80.16    2.90
   8 -14  -5   85.47    3.22
   7  14  -5  210.26    4.77
   7 -14  -5  213.82    4.98
   6  14  -5   51.50    2.39
   5  14  -5   13.37    1.27
   4  14  -5   29.37    1.84
   4 -14  -5   29.11    1.96
   4  14  -5   26.10    1.78
   3  14  -5   51.77    2.43
   3 -14  -5   51.70    2.61
   2  14  -5  779.00    9.35
   2 -14  -5  761.61    9.96
   2 -14  -5  754.23    8.72
   1  14  -5   54.28    2.47
   1 -14  -5   50.26    2.62
   1 -14  -5   50.99    2.31
   0 -14  -5    0.07    0.44
   0  14  -5    0.97    0.45
   0 -14  -5    0.98    0.45
  -1 -14  -5   46.91    2.58
  -1  14  -5   52.36    2.40
  -1 -14  -5   48.22    2.34
  -2  14  -5  217.43    4.78
  -2 -14  -5  222.60    5.04
  -2 -14  -5  218.71    5.60
  -3  14  -5   13.89    1.22
  -3 -14  -5   14.49    1.55
  -3 -14  -5   15.00    1.36
  -4 -14  -5  102.61    3.50
  -5 -14  -5   67.89    2.85
   6 -14   5  108.32    3.69
  -6 -14  -5  103.96    3.51
   7 -14   5   11.92    1.28
  -7 -14  -5   12.09    1.22
   8 -14   5   27.52    1.89
  -8 -14  -5   26.73    1.74
   9 -14   5   18.44    1.54
  -9 -14  -5   18.46    1.37
  10 -14   5   10.69    1.17
 -10 -14  -5   10.03    0.94
  11 -14   5   70.40    2.66
 -11 -14  -5   73.49    2.19
  12 -14   5    6.25    0.79
  13 -14   5    1.14    0.37
  14 -14   5    0.10    0.20
  15 -15  -5    7.41    0.60
  14 -15  -5   22.00    1.22
  13 -15  -5    4.05    0.61
  12 -15  -5   11.90    1.09
  12  15  -5   13.11    0.91
  11 -15  -5   55.61    2.42
  11  15  -5   50.82    1.96
  10 -15  -5   57.43    2.54
  10  15  -5   55.17    2.21
   9 -15  -5    7.29    0.97
   9  15  -5   10.06    1.13
   8  15  -5  108.37    3.35
   8 -15  -5  109.60    3.52
   7  15  -5   28.34    1.83
   6  15  -5   12.18    1.27
   5  15  -5   63.48    2.69
   4  15  -5   19.53    1.52
   3  15  -5    5.28    0.86
   2  15  -5   51.85    2.43
   2 -15  -5   52.71    2.32
   2 -15  -5   51.49    2.65
   1  15  -5   10.00    1.11
   1 -15  -5    8.29    1.11
   1 -15  -5   10.44    1.10
   0 -15  -5    0.00    0.46
   0  15  -5    0.52    0.50
   0 -15  -5    0.35    0.39
  -1  15  -5   24.51    1.64
  -1 -15  -5   27.34    2.03
  -1 -15  -5   24.29    1.70
  -2  15  -5   43.23    2.13
  -2 -15  -5   43.19    2.26
  -3 -15  -5  129.41    3.92
  -4 -15  -5   99.52    3.45
  -5 -15  -5   57.16    2.61
   6 -15   5   87.80    3.22
  -6 -15  -5   93.07    3.29
   7 -15   5   11.16    1.19
  -7 -15  -5   13.16    1.25
   8 -15   5   45.94    2.33
  -8 -15  -5   44.07    2.13
   9 -15   5   78.68    2.96
  -9 -15  -5   77.55    2.66
  10 -15   5   19.79    1.46
 -10 -15  -5   21.68    1.29
  11 -15   5    6.17    0.77
 -11 -15  -5    6.16    0.62
  12 -15   5   57.31    2.03
  13 -15   5   13.45    0.86
  14 -16  -5   28.11    1.17
  13 -16  -5   20.19    1.17
  12 -16  -5   99.71    2.81
  12  16  -5  104.08    2.36
  11 -16  -5   50.46    2.15
  11  16  -5   53.39    1.93
  10 -16  -5  104.13    3.19
  10  16  -5   99.65    2.86
   9 -16  -5  331.49    5.80
   9  16  -5  334.02    5.52
   8  16  -5  108.13    3.28
   7  16  -5  274.98    5.31
   6  16  -5   36.27    2.07
   5  16  -5  146.44    4.04
   4  16  -5    9.46    1.12
   3  16  -5   58.74    2.59
   2  16  -5    8.93    1.05
   2 -16  -5   10.94    1.09
   1  16  -5    0.17    0.40
   1 -16  -5    0.74    0.40
   0  16  -5    1.09    0.47
   0 -16  -5    0.93    0.46
  -1  16  -5   -0.28    0.42
  -1 -16  -5    0.33    0.39
  -2  16  -5   54.92    2.34
  -2 -16  -5   53.02    2.52
  -3 -16  -5    0.40    0.42
  -4 -16  -5  201.33    4.86
  -5 -16  -5   88.08    3.20
  -6 -16  -5   66.73    2.74
   7 -16   5   70.92    2.77
  -7 -16  -5   71.05    2.73
   8 -16   5    5.71    0.84
  -8 -16  -5    5.38    0.77
   9 -16   5    0.83    0.37
  -9 -16  -5    0.88    0.37
  10 -16   5    0.12    0.31
 -10 -16  -5    0.10    0.22
  11 -16   5   54.13    1.98
 -11 -16  -5   52.80    1.56
  12 -16   5   61.29    1.85
 -12  16  -5   61.18    1.75
  13 -17  -5   47.17    1.49
  12 -17  -5   40.64    1.60
  12  17  -5   41.32    1.38
  11 -17  -5    6.49    0.73
  11  17  -5    5.27    0.60
  10 -17  -5  130.93    3.25
  10  17  -5  125.98    3.08
   9  17  -5    8.97    0.90
   8  17  -5    4.00    0.88
   7  17  -5   20.95    1.65
   6  17  -5   95.75    3.21
   5  17  -5   29.60    1.86
   4  17  -5   48.69    2.34
   3  17  -5   35.42    1.99
   2  17  -5   38.88    2.08
   2 -17  -5   40.11    1.99
   1  17  -5    2.76    0.65
   1 -17  -5    2.82    0.60
   0  17  -5    0.53    0.40
   0 -17  -5    0.37    0.40
  -1  17  -5    9.78    1.04
  -1 -17  -5   10.26    1.13
  -2  17  -5   33.18    1.76
  -2 -17  -5   31.75    1.93
  -3 -17  -5   10.66    1.16
  -4 -17  -5    1.35    0.51
  -5 -17  -5   32.17    1.90
  -6 -17  -5    6.41    0.90
  -7 -17  -5    1.83    0.52
   8 -17   5    0.13    0.31
  -8 -17  -5    0.20    0.29
   9 -17   5    0.48    0.30
  -9 -17  -5    1.06    0.37
  10 -17   5   10.10    0.86
 -10 -17  -5   10.39    0.78
  11 -17   5   29.97    1.28
  12  18  -5   66.81    1.53
  11  18  -5    9.89    0.76
  10  18  -5  222.82    3.85
   9  18  -5  142.20    3.32
   8  18  -5   26.58    1.52
   7  18  -5   11.73    1.18
   6  18  -5  175.00    4.15
   5  18  -5    6.78    1.12
   4  18  -5    2.74    0.94
   3  18  -5   58.09    2.50
   2  18  -5   53.93    2.39
   2 -18  -5   54.40    2.25
   1  18  -5   86.59    2.96
   1 -18  -5   83.05    2.87
   0  18  -5    8.84    0.98
   0 -18  -5    7.33    0.93
  -1  18  -5    0.77    0.41
  -1 -18  -5    1.00    0.48
  -2  18  -5   57.58    2.20
  -2 -18  -5   57.52    2.52
  -3 -18  -5    0.41    0.36
  -4 -18  -5   46.07    2.23
  -5 -18  -5   32.13    1.84
  -6 -18  -5    0.52    0.33
  -7 -18  -5   80.44    2.65
  -8 -18  -5    0.20    0.30
  -9 -18  -5   93.89    2.40
  10 -18   5    1.10    0.32
 -10 -18  -5    1.20    0.30
 -11  18  -5   81.66    1.89
  11  19  -5   55.05    1.54
  10  19  -5   19.44    1.07
   9  19  -5    2.99    0.53
   8  19  -5    6.28    0.60
   7  19  -5   26.52    1.52
   6  19  -5   23.78    1.54
   5  19  -5    2.39    0.77
   4  19  -5   11.45    1.23
   3  19  -5   15.13    1.35
   2  19  -5   10.41    1.18
   2 -19  -5    7.20    0.81
   1  19  -5   25.13    1.58
   1 -19  -5   23.49    1.50
   0  19  -5   41.83    1.95
   0  19  -5   42.21    2.09
   0 -19  -5   40.55    2.01
  -1  19  -5    2.75    0.63
  -1  19  -5    2.20    0.56
  -1 -19  -5    2.14    0.57
  -2 -19  -5   10.24    1.07
  -3 -19  -5   27.50    1.69
  -4 -19  -5    4.48    0.74
  -5 -19  -5    1.32    0.50
  -6 -19  -5    5.54    0.74
  -7 -19  -5    2.00    0.47
  -8 -19  -5    2.00    0.42
  -9 -19  -5   13.31    0.83
  -9  19  -5   15.22    1.04
 -10  19  -5    1.24    0.32
  10  20  -5   12.98    0.79
   9  20  -5   68.22    1.97
   8  20  -5   23.70    1.26
   7  20  -5   41.53    1.76
   6  20  -5    7.74    0.79
   5  20  -5    4.89    0.72
   4  20  -5    1.52    0.57
   3  20  -5   34.72    1.78
   2 -20  -5   46.31    1.87
   2  20  -5   47.26    2.04
   1 -20  -5    5.04    0.68
   1  20  -5    6.87    0.88
   0  20  -5   21.00    1.39
   0 -20  -5   18.91    1.31
   0  20  -5   21.87    1.35
  -1  20  -5    9.52    1.00
  -1 -20  -5    9.74    0.98
  -1  20  -5    8.45    0.85
  -2  20  -5   27.97    1.70
  -2 -20  -5   28.06    1.61
  -3  20  -5   33.48    1.86
  -3 -20  -5   33.41    1.75
  -4  20  -5   23.36    1.56
  -4 -20  -5   21.57    1.38
  -5  20  -5    4.84    0.75
  -5 -20  -5    4.33    0.63
  -6  20  -5   69.71    2.48
  -6 -20  -5   69.28    2.26
  -7  20  -5    0.70    0.36
  -7 -20  -5    0.23    0.26
  -8  20  -5   35.51    1.54
  -8 -20  -5   37.54    1.39
  -9  20  -5   34.24    1.31
   9  21  -5   46.03    1.45
  -8 -21   5   12.81    0.69
   8  21  -5   16.29    0.96
   7  21  -5  122.36    2.76
   6  21  -5    4.59    0.52
   5  21  -5    0.20    0.65
   4  21  -5   -0.87    0.68
   3  21  -5    0.87    0.53
   2  21  -5   -0.19    0.52
   1  21  -5    5.52    0.69
   1 -21  -5    5.32    0.64
   0 -21  -5   58.10    2.09
   0  21  -5   55.79    1.90
  -1  21  -5   92.91    2.68
  -1 -21  -5   91.55    2.68
  -2  21  -5    1.75    0.46
  -2 -21  -5    1.59    0.44
  -3  21  -5   71.94    2.44
  -3 -21  -5   70.65    2.33
  -4  21  -5   67.53    2.35
  -4 -21  -5   69.12    2.25
  -5  21  -5    2.08    0.48
  -5 -21  -5    2.65    0.47
  -6  21  -5    0.50    0.34
  -6 -21  -5    0.03    0.25
  -7  21  -5  175.74    3.23
  -7 -21  -5  168.54    2.87
  -8  21  -5    8.76    0.66
  -8 -21  -5    9.25    0.59
   8  22  -5   12.87    0.74
  -7 -22   5  268.17    3.05
   7  22  -5  296.03    3.79
   6  22  -5    0.09    0.25
   5  22  -5   18.32    1.05
   4  22  -5   -0.81    0.59
   3  22  -5   37.30    1.50
   2  22  -5   10.57    0.81
   1  22  -5   -0.37    0.45
   1 -22  -5    1.26    0.32
   0  22  -5   -0.74    0.43
   0 -22  -5    0.03    0.23
  -1  22  -5   17.94    1.06
  -1 -22  -5   16.72    1.04
  -2  22  -5    0.15    0.24
  -2 -22  -5    0.20    0.24
  -3  22  -5    7.42    0.73
  -3 -22  -5    8.59    0.76
  -4  22  -5    0.31    0.25
  -4 -22  -5    0.14    0.23
  -5  22  -5   79.77    2.13
  -5 -22  -5   80.31    2.05
  -6  22  -5   78.98    1.98
  -6 -22  -5   79.95    1.87
   6  23  -5    0.44    0.21
   5  23  -5  115.09    2.23
   4  23  -5   21.17    0.99
   3  23  -5    3.08    0.42
   2  23  -5    2.35    0.38
   1  23  -5   37.41    1.18
   0 -23  -5   40.57    1.31
  -1 -23  -5   28.44    1.15
  -2 -23  -5    8.27    0.65
  -3  23  -5    0.77    0.24
  -3 -23  -5    0.64    0.25
  -4 -23  -5   11.28    0.70
  -3 -24   5    5.92    0.48
  16   0  -6   25.61    1.65
  15   0  -6   15.58    1.23
  15   0  -6   15.90    1.45
  14   0  -6  592.17    8.08
  14   0  -6  584.10    8.93
  13   0  -6  177.38    4.69
  13   0  -6  181.95    5.12
  12   0  -6   80.84    3.26
  12   0  -6   77.22    3.38
  11   0  -6  137.44    4.27
  11   0  -6  140.83    3.82
  11   0  -6  136.54    4.43
  10   0  -6  843.73    9.10
  10   0  -6  830.89   10.39
  10   0  -6  841.82   10.77
   9   0  -6  163.38    3.87
   9   0  -6  153.47    4.40
   9   0  -6  150.26    4.46
   8   0  -6    8.78    0.88
   7   0  -6    2.41    0.49
   6   0  -6   82.91    2.49
   6   0  -6   80.33    2.53
   5   0  -6    5.23    0.66
   4   0  -6    9.09    0.83
   4   0  -6    8.61    0.79
   3   0  -6   24.40    1.32
   3   0  -6   23.65    1.29
   2   0  -6   60.63    2.08
   1   0  -6 1129.05    8.92
   0   0  -6   12.39    0.99
  -1   0  -6  103.22    2.87
  -2   0  -6   17.42    1.22
  -3   0  -6  362.29    5.72
  -4   0  -6  270.49    5.13
  -4   0  -6  280.90    5.37
  -5   0  -6    5.23    0.82
  -5   0  -6    7.28    0.91
  -6   0  -6   16.88    1.45
  -7   0  -6  412.47    7.34
  -7   0  -6  398.97    6.45
  -8   0  -6    9.23    1.07
  -8   0  -6    9.76    1.06
  -9   0  -6  938.89   11.90
  -9   0  -6 1000.13   10.88
 -10   0  -6  134.36    3.99
 -11   0  -6  481.38    7.33
  12   0   6   76.93    2.92
 -12   0  -6   78.26    2.79
  13   0   6    9.19    1.00
  13   0   6    8.61    0.94
  14   0   6   22.77    1.43
  14   0   6   22.33    1.30
  15   0   6  126.45    2.97
  16   0   6   41.99    1.46
  17   1  -6    0.22    0.32
  16  -1  -6   33.39    1.60
  16  -1  -6   33.07    1.84
  16   1  -6   35.81    1.96
  15  -1  -6   14.67    1.24
  15   1  -6   13.77    1.11
  15  -1  -6   14.16    1.34
  15   1  -6   12.62    1.28
  14   1  -6   43.15    2.14
  14  -1  -6   41.00    2.20
  14  -1  -6   41.13    2.37
  14   1  -6   38.96    2.39
  13  -1  -6   14.12    1.41
  13   1  -6   16.51    1.44
  13   1  -6   16.15    1.60
  13  -1  -6   17.38    1.63
  12  -1  -6   19.15    1.63
  12   1  -6   17.72    1.53
  12   1  -6   18.23    1.69
  12  -1  -6   20.00    1.72
  11  -1  -6  592.76    8.01
  11  -1  -6  590.32    8.89
  11   1  -6  594.81    8.71
  11   1  -6  595.17    9.33
  11  -1  -6  585.04    9.11
  10  -1  -6   86.82    3.01
  10  -1  -6   83.08    3.34
  10   1  -6   83.09    3.26
  10   1  -6   85.22    2.99
  10   1  -6   81.37    3.44
  10  -1  -6   83.03    3.38
   9   1  -6    8.21    1.07
   9  -1  -6   10.12    1.01
   9   1  -6    8.58    1.07
   9  -1  -6    7.03    0.99
   9   1  -6    9.77    1.03
   9  -1  -6   10.80    1.22
   8   1  -6    4.90    0.63
   8  -1  -6    5.03    0.72
   7  -1  -6   26.35    1.52
   7   1  -6   28.51    1.47
   7   1  -6   29.10    1.63
   6  -1  -6    4.39    0.64
   6   1  -6    3.96    0.56
   6  -1  -6    4.59    0.62
   6   1  -6    4.38    0.65
   5  -1  -6    8.21    0.83
   5  -1  -6    7.78    0.76
   5   1  -6    8.63    0.85
   4   1  -6   24.78    1.28
   4  -1  -6   26.78    1.44
   4  -1  -6   25.17    1.31
   4   1  -6   24.25    1.39
   3  -1  -6   50.84    1.96
   3   1  -6   52.67    1.84
   3  -1  -6   53.28    1.86
   2  -1  -6   44.99    1.85
   2   1  -6   45.03    1.71
   1  -1  -6  189.25    3.79
   1   1  -6  191.69    3.53
   0  -1  -6  191.13    3.91
   0   1  -6  199.08    3.73
  -1  -1  -6   18.38    1.26
  -1   1  -6   19.78    1.23
  -2  -1  -6   52.50    2.16
  -2   1  -6   50.13    2.00
  -3   1  -6   14.27    1.13
  -3  -1  -6   13.48    1.15
  -3   1  -6   15.56    1.18
  -4   1  -6    6.60    0.85
  -4  -1  -6    5.55    0.80
  -4   1  -6    5.97    0.78
  -4  -1  -6    5.72    0.80
  -5   1  -6   49.26    2.27
  -5  -1  -6   51.65    2.47
  -5  -1  -6   50.50    2.37
  -6   1  -6   46.57    2.33
  -6  -1  -6   48.79    2.49
  -7   1  -6    3.52    0.76
  -7  -1  -6    2.65    0.66
  -7   1  -6    3.13    0.69
  -7   1  -6    2.56    0.59
  -7  -1  -6    1.82    0.54
  -8   1  -6    1.52    0.59
  -8  -1  -6    1.25    0.54
  -8   1  -6    1.33    0.53
  -8   1  -6    2.69    0.59
  -8  -1  -6    1.03    0.46
  -9   1  -6   45.39    2.57
  -9   1  -6   54.08    2.57
  -9  -1  -6   50.63    2.46
 -10   1  -6   22.36    1.69
 -10  -1  -6   25.98    1.76
 -11   1  -6    0.11    0.38
 -11  -1  -6    0.35    0.43
 -12   1  -6    2.29    0.57
 -12  -1  -6    2.08    0.50
  12  -1   6    1.47    0.54
  12   1   6    1.83    0.59
  13   1   6    0.52    0.41
  13  -1   6    0.37    0.35
  13   1   6    0.39    0.35
  14  -1   6    7.36    0.86
  14   1   6    6.07    0.76
  14  -1   6    5.88    0.73
  14   1   6    5.52    0.66
  15   1   6    0.27    0.27
  15  -1   6    0.36    0.32
  15  -1   6    0.62    0.32
  16   1   6    4.19    0.47
  16  -1   6    4.79    0.53
  17  -2  -6    1.32    0.33
  16  -2  -6  120.15    3.08
  16  -2  -6  121.57    3.40
  16   2  -6  129.20    3.70
  15  -2  -6   57.17    2.43
  15  -2  -6   51.03    2.43
  15   2  -6   54.53    2.62
  14   2  -6  173.09    4.12
  14  -2  -6  167.84    4.48
  14  -2  -6  169.90    4.68
  14   2  -6  169.95    4.90
  13  -2  -6    1.66    0.62
  13   2  -6    2.02    0.76
  13  -2  -6    2.14    0.66
  13   2  -6    1.85    0.50
  12   2  -6  226.89    5.24
  12  -2  -6  224.78    5.55
  12   2  -6  221.18    5.77
  12  -2  -6  224.08    5.60
  11  -2  -6   26.70    1.76
  11  -2  -6   24.08    1.85
  11   2  -6   24.27    1.78
  11   2  -6   24.39    1.95
  11  -2  -6   23.52    1.85
  10   2  -6    1.90    0.64
  10  -2  -6    2.57    0.75
  10  -2  -6    2.67    0.64
  10   2  -6    2.51    0.66
  10  -2  -6    1.96    0.65
  10   2  -6    2.75    0.65
   9  -2  -6    8.31    1.07
   9   2  -6    8.62    1.11
   9   2  -6    4.55    0.82
   9  -2  -6    5.26    0.89
   9   2  -6    8.97    1.00
   9  -2  -6    5.91    0.82
   8  -2  -6   63.94    2.49
   7  -2  -6  111.36    3.18
   7   2  -6  112.12    3.20
   6   2  -6   31.40    1.67
   5  -2  -6   46.31    1.96
   5  -2  -6   48.46    1.81
   5   2  -6   45.43    1.96
   4  -2  -6   30.08    1.57
   4  -2  -6   32.47    1.44
   4   2  -6   34.49    1.68
   3  -2  -6    0.06    0.26
   3   2  -6    0.26    0.18
   3  -2  -6    0.51    0.25
   2   2  -6    2.58    0.41
   2  -2  -6    2.94    0.54
   2  -2  -6    2.50    0.40
   1  -2  -6  267.62    4.72
   1   2  -6  285.08    4.10
   0  -2  -6    6.20    0.77
   0   2  -6    6.16    0.65
  -1   2  -6   24.24    1.29
  -1  -2  -6   25.75    1.52
  -2  -2  -6  462.72    6.58
  -2   2  -6  483.67    5.95
  -3   2  -6   31.18    1.60
  -3  -2  -6   31.14    1.79
  -3   2  -6   33.41    1.68
  -4   2  -6    9.79    0.94
  -4  -2  -6   10.99    1.11
  -4   2  -6    9.72    0.96
  -5  -2  -6   15.35    1.35
  -5   2  -6   13.99    1.20
  -5  -2  -6   14.41    1.36
  -6   2  -6  236.16    5.09
  -6  -2  -6  234.85    5.61
  -6   2  -6  236.77    5.11
  -7   2  -6  118.82    3.81
  -7  -2  -6  126.23    4.26
  -7   2  -6  123.32    3.78
  -7  -2  -6  120.18    3.56
  -8   2  -6    1.18    0.55
  -8  -2  -6    0.52    0.53
  -8   2  -6    0.19    0.38
  -8  -2  -6    0.62    0.43
  -9   2  -6   17.55    1.51
  -9  -2  -6   16.90    1.45
  -9  -2  -6   20.51    1.48
 -10   2  -6   54.20    2.58
 -10  -2  -6   55.56    2.55
 -11   2  -6  168.10    4.40
 -11  -2  -6  173.43    4.34
 -12  -2  -6    0.33    0.32
  12  -2   6    0.15    0.36
  12   2   6    0.38    0.40
  13   2   6   10.98    1.06
  13   2   6   11.23    1.00
  13  -2   6    9.93    1.04
  14   2   6  120.08    3.13
  14  -2   6  127.90    3.32
  14  -2   6  122.64    3.17
  15   2   6  138.75    3.00
  15  -2   6  146.76    3.21
  15  -2   6  139.64    2.81
  16   2   6   21.03    0.95
  16  -2   6   23.51    1.11
  17  -3  -6    0.63    0.27
  16  -3  -6    4.14    0.67
  16   3  -6    5.21    0.81
  16  -3  -6    4.27    0.63
  15  -3  -6   19.19    1.44
  15  -3  -6   18.85    1.46
  15   3  -6   18.55    1.58
  14   3  -6    7.86    1.12
  14  -3  -6    6.75    0.97
  14  -3  -6    9.21    1.14
  13  -3  -6  278.56    6.09
  13   3  -6  284.77    5.44
  13  -3  -6  279.67    6.07
  13   3  -6  274.44    6.39
  12   3  -6  119.60    3.74
  12  -3  -6  120.82    4.12
  12  -3  -6  116.13    3.98
  12   3  -6  122.58    4.32
  11  -3  -6   56.83    2.83
  11   3  -6   57.23    2.63
  11  -3  -6   56.47    2.76
  11   3  -6   53.45    2.85
  10  -3  -6  402.37    6.75
  10  -3  -6  412.40    7.52
  10   3  -6  394.54    6.85
  10   3  -6  416.35    6.36
  10  -3  -6  391.57    7.11
  10   3  -6  390.76    7.50
   9  -3  -6  551.13    7.67
   9   3  -6  538.74    7.94
   9  -3  -6  534.03    8.37
   9   3  -6  533.04    7.31
   9  -3  -6  534.20    8.10
   9   3  -6  546.83    8.63
   8  -3  -6  123.69    3.53
   8  -3  -6  117.21    3.82
   8   3  -6  118.46    3.93
   7  -3  -6   66.92    2.53
   7   3  -6   69.10    2.58
   6   3  -6   17.30    1.27
   5  -3  -6    5.28    0.72
   5   3  -6    4.86    0.69
   4  -3  -6   20.81    1.36
   4  -3  -6   23.14    1.17
   4   3  -6   20.13    1.32
   3  -3  -6   11.82    1.03
   3  -3  -6   10.16    0.77
   2  -3  -6   63.57    1.84
   2  -3  -6   60.69    2.29
   1  -3  -6   67.01    2.43
   0  -3  -6   23.42    1.47
  -1  -3  -6   31.77    1.74
  -2  -3  -6  348.60    5.89
  -3  -3  -6    4.51    0.76
  -4  -3  -6   60.47    2.64
  -5   3  -6   32.92    1.78
  -5  -3  -6   31.27    2.03
  -6   3  -6  445.01    6.85
  -6  -3  -6  447.78    7.95
  -6   3  -6  437.25    6.99
  -6  -3  -6  438.07    6.75
  -6  -3  -6  440.52    7.58
  -7   3  -6   45.86    2.35
  -7  -3  -6   46.88    2.67
  -7   3  -6   46.51    2.37
  -7  -3  -6   45.54    2.23
  -8   3  -6  257.96    5.80
  -8  -3  -6  258.80    6.46
  -8   3  -6  259.26    5.64
  -8  -3  -6  261.73    5.29
  -9   3  -6  134.76    4.09
  -9  -3  -6  138.02    3.80
 -10   3  -6  135.08    4.08
 -10  -3  -6  131.16    3.87
 -11   3  -6    0.49    0.36
 -11  -3  -6    0.59    0.41
  11  -3   6    0.42    0.38
  12  -3   6   52.17    2.48
  12   3   6   50.90    2.21
  13   3   6   89.86    2.86
  13  -3   6   87.86    3.01
  14   3   6    3.49    0.59
  14  -3   6    2.75    0.59
  14  -3   6    2.72    0.55
  15   3   6    0.37    0.27
  15  -3   6    0.86    0.37
  15  -3   6    0.49    0.29
  16  -3   6    1.92    0.36
  17  -4  -6    0.03    0.21
  16  -4  -6   19.36    1.29
  16   4  -6   22.40    1.54
  15  -4  -6   50.17    2.32
  15  -4  -6   49.61    2.23
  15   4  -6   51.49    2.53
  14  -4  -6    1.00    0.47
  14   4  -6    3.45    0.82
  14  -4  -6    2.67    0.64
  13  -4  -6   92.37    3.54
  13  -4  -6   94.88    3.44
  13   4  -6   93.18    3.70
  12  -4  -6  136.02    4.39
  12  -4  -6  140.11    4.25
  12   4  -6  138.98    4.58
  11  -4  -6  272.18    6.23
  11   4  -6  266.98    5.50
  11  -4  -6  279.47    5.99
  11   4  -6  263.64    6.29
  10  -4  -6  193.72    4.75
  10  -4  -6  181.53    5.06
  10   4  -6  186.89    4.66
  10  -4  -6  182.84    4.79
  10   4  -6  185.24    5.21
   9  -4  -6  142.93    4.03
   9  -4  -6  140.93    4.32
   9   4  -6  143.44    4.05
   9   4  -6  144.65    3.76
   9  -4  -6  145.06    4.20
   9   4  -6  141.87    4.44
   8  -4  -6  167.06    4.24
   8  -4  -6  157.11    4.46
   8   4  -6  167.56    4.16
   8   4  -6  159.23    4.58
   7  -4  -6   52.87    2.31
   7   4  -6   51.82    2.27
   6   4  -6   72.90    2.62
   5  -4  -6  230.35    4.65
   5   4  -6  229.49    4.59
   4  -4  -6  101.10    3.05
   3  -4  -6    4.22    0.66
   2  -4  -6   36.84    1.84
   1  -4  -6   30.68    1.72
   0  -4  -6   29.85    1.71
  -1  -4  -6  395.93    6.30
  -2  -4  -6    2.23    0.53
  -3  -4  -6    0.68    0.44
  -4  -4  -6  140.56    4.09
  -5  -4  -6   34.82    2.14
  -6   4  -6    6.51    0.92
  -6  -4  -6    8.01    1.10
  -6  -4  -6    8.56    1.00
  -7  -4  -6  714.85   10.59
  -7   4  -6  704.49    9.23
  -7  -4  -6  715.07    8.77
  -7  -4  -6  695.99   10.07
  -8  -4  -6   14.37    1.60
  -8   4  -6   14.88    1.39
  -8  -4  -6   16.04    1.35
  -9   4  -6  365.85    6.80
  -9  -4  -6  378.69    6.33
 -10   4  -6   13.58    1.33
 -10  -4  -6   16.04    1.39
  11  -4   6   11.37    1.25
 -11  -4  -6   11.23    1.12
  12   4   6    1.01    0.44
  12  -4   6    0.99    0.49
  13   4   6    8.47    0.89
  13  -4   6    8.13    0.99
  14   4   6    0.06    0.27
  14  -4   6   -0.27    0.36
  14  -4   6    0.15    0.29
  15   4   6  129.19    2.61
  15  -4   6  133.17    2.82
  16  -4   6   31.74    1.22
  17  -5  -6   14.07    0.92
  16  -5  -6    1.85    0.47
  15  -5  -6    0.11    0.31
  15   5  -6    0.35    0.45
  15  -5  -6    0.36    0.36
  14  -5  -6   -0.13    0.35
  14   5  -6   -0.39    0.53
  14  -5  -6   -0.25    0.50
  13  -5  -6    6.89    0.95
  13   5  -6    6.79    1.07
  13  -5  -6    9.55    1.18
  12  -5  -6   18.95    1.68
  12  -5  -6   16.45    1.45
  12   5  -6   15.52    1.57
  11  -5  -6   22.49    1.84
  11   5  -6   22.77    1.88
  10  -5  -6   69.29    2.93
  10   5  -6   66.70    2.75
  10  -5  -6   71.72    3.20
  10   5  -6   72.16    3.25
   9   5  -6  141.35    3.69
   9  -5  -6  140.46    4.06
   9  -5  -6  135.24    4.28
   9   5  -6  136.75    3.90
   9   5  -6  139.15    4.44
   8  -5  -6   27.19    1.77
   8   5  -6   26.94    1.73
   8  -5  -6   25.10    1.80
   8   5  -6   27.21    1.65
   8   5  -6   27.99    1.75
   8   5  -6   26.02    1.88
   7   5  -6  210.50    4.65
   7  -5  -6  208.95    4.71
   6   5  -6   41.05    2.02
   5   5  -6   12.50    1.13
   5  -5  -6   12.85    1.16
   4  -5  -6   82.99    2.86
   3  -5  -6  183.12    4.23
   2  -5  -6   55.43    2.33
   1  -5  -6   97.24    3.11
   0  -5  -6    2.20    0.52
  -1  -5  -6   28.62    1.75
  -2  -5  -6   34.02    1.96
  -3  -5  -6   36.72    2.08
  -4  -5  -6   24.68    1.78
  -5  -5  -6    0.76    0.40
  -6  -5  -6   67.08    3.10
  -6   5  -6   65.29    2.79
  -6  -5  -6   66.72    2.69
  -7  -5  -6  141.62    4.62
  -7   5  -6  141.75    4.21
  -7  -5  -6  150.88    4.08
  -8  -5  -6   12.41    1.45
  -8   5  -6   10.98    1.23
  -8  -5  -6   12.22    1.20
  -9   5  -6    0.49    0.43
  -9  -5  -6    0.61    0.36
  10  -5   6  315.13    6.47
 -10  -5  -6  324.57    5.66
 -11  -5  -6    2.15    0.51
  11  -5   6    2.70    0.70
  12   5   6   13.15    1.12
  12  -5   6   13.21    1.28
  13   5   6    4.00    0.61
  13  -5   6    4.58    0.76
  14   5   6    0.50    0.28
  14  -5   6    0.16    0.35
  14  -5   6   -0.26    0.33
  15  -5   6   10.12    0.82
  15  -5   6    9.51    0.78
  16  -5   6    0.34    0.18
  17  -6  -6    8.05    0.70
  16  -6  -6    1.14    0.39
  15  -6  -6   79.38    2.86
  15   6  -6   83.77    3.09
  14  -6  -6   47.51    2.43
  14   6  -6   47.66    2.50
  13   6  -6    1.73    0.62
  13  -6  -6    1.65    0.62
  12   6  -6    0.18    0.47
  12  -6  -6    0.34    0.45
  11  -6  -6  100.16    3.80
  11   6  -6  101.65    3.91
  10  -6  -6  488.87    7.85
  10  -6  -6  482.70    8.27
  10   6  -6  488.07    8.42
   9  -6  -6   37.71    2.15
   9   6  -6   33.73    1.91
   9  -6  -6   37.44    2.30
   9   6  -6   36.59    1.87
   9   6  -6   36.85    2.31
   8  -6  -6  216.28    5.01
   8   6  -6  210.44    4.72
   8  -6  -6  202.59    5.15
   8   6  -6  207.90    4.47
   8   6  -6  216.49    4.88
   8   6  -6  214.63    5.39
   7  -6  -6    1.93    0.57
   7  -6  -6    3.42    0.70
   7   6  -6    1.57    0.56
   6   6  -6  354.90    6.06
   5   6  -6   42.36    2.08
   5  -6  -6   41.44    2.10
   4  -6  -6   56.73    2.43
   3  -6  -6  188.92    4.41
   2  -6  -6  126.78    3.63
   1  -6  -6  133.82    3.72
   0  -6  -6  211.43    4.82
  -1  -6  -6    3.45    0.69
  -2  -6  -6   17.77    1.47
  -3  -6  -6   95.27    3.44
  -4  -6  -6   81.80    3.29
  -5  -6  -6   49.34    2.65
  -5   6  -6   53.08    2.50
  -5  -6  -6   51.25    2.37
  -6  -6  -6   22.40    1.85
  -6   6  -6   23.10    1.69
  -6  -6  -6   22.15    1.58
  -7  -6  -6  205.56    5.69
  -7   6  -6  204.76    5.12
  -7  -6  -6  206.23    4.83
  -8   6  -6   50.12    2.58
  -8  -6  -6   52.54    2.42
  -9  -6  -6   84.22    3.01
  10  -6   6    0.55    0.50
 -10  -6  -6    0.57    0.34
  11   6   6    2.31    0.57
 -11  -6  -6    2.92    0.61
  11  -6   6    1.22    0.52
  12   6   6   25.51    1.46
  12  -6   6   26.38    1.79
  13  -6   6   31.49    1.72
  13  -6   6   32.03    1.82
  14  -6   6    2.72    0.52
  14  -6   6    2.67    0.56
  15  -6   6    1.34    0.35
  15  -6   6    1.45    0.37
  17  -7  -6    0.76    0.28
  16  -7  -6    0.21    0.30
  15  -7  -6   12.64    1.17
  14   7  -6    1.88    0.59
  14  -7  -6    1.73    0.57
  13   7  -6    5.66    0.95
  13  -7  -6    5.59    0.95
  12   7  -6    9.92    1.26
  12  -7  -6   10.38    1.26
  11  -7  -6   34.18    2.25
  11   7  -6   33.25    2.24
  10   7  -6    1.50    0.68
  10  -7  -6    2.52    0.73
   9  -7  -6  222.74    5.30
   9  -7  -6  216.30    5.48
   9   7  -6  221.66    5.61
   8  -7  -6   70.61    2.94
   8   7  -6   72.19    2.73
   8  -7  -6   71.69    3.09
   8   7  -6   72.74    2.65
   8   7  -6   69.79    2.83
   7   7  -6  560.87    7.22
   7   7  -6  565.70    7.63
   7  -7  -6  558.76    8.37
   7   7  -6  546.14    7.28
   7   7  -6  577.07    7.97
   7  -7  -6  571.36    8.11
   6   7  -6   14.24    1.27
   5   7  -6   48.49    2.28
   5  -7  -6   48.40    2.34
   4  -7  -6    9.40    1.03
   3  -7  -6   45.52    2.26
   2  -7  -6   52.79    2.43
   1  -7  -6   55.47    2.49
   0  -7  -6  146.49    4.12
  -1  -7  -6  149.77    4.19
  -2  -7  -6   96.71    3.44
  -3  -7  -6  125.62    4.04
  -4  -7  -6   -0.44    0.46
  -4  -7  -6    0.33    0.43
  -5   7  -6    2.25    0.62
  -5  -7  -6    1.45    0.60
  -5  -7  -6    0.79    0.44
  -6  -7  -6  360.67    7.45
  -6   7  -6  361.62    6.76
  -6  -7  -6  369.73    6.44
  -7  -7  -6   41.76    2.61
  -7   7  -6   40.48    2.32
  -7  -7  -6   40.79    2.19
  -8  -7  -6  130.99    3.84
   9  -7   6    0.09    0.40
  -9  -7  -6    0.03    0.37
  10  -7   6   -0.39    0.48
 -10  -7  -6   -0.01    0.36
 -11  -7  -6    1.55    0.46
  11  -7   6    1.38    0.55
  12  -7   6    1.06    0.46
  13  -7   6    1.52    0.47
  13  -7   6    1.50    0.49
  14  -7   6    9.51    0.84
  14  -7   6    9.06    0.89
  15  -7   6    2.45    0.41
  15  -7   6    2.51    0.43
  17  -8  -6   34.89    1.32
  16  -8  -6   69.91    2.29
  15  -8  -6   82.11    2.82
  14  -8  -6   24.49    1.69
  13  -8  -6    0.92    0.50
  12  -8  -6   49.93    2.64
  11   8  -6    4.41    0.88
  11  -8  -6    5.67    0.97
  10  -8  -6   64.03    3.03
   9  -8  -6   21.93    1.72
   9  -8  -6   21.41    1.76
   8  -8  -6  127.16    4.00
   8   8  -6  121.65    3.38
   8   8  -6  121.57    3.40
   8  -8  -6  119.56    3.98
   8   8  -6  123.11    3.78
   7   8  -6  250.22    4.94
   7  -8  -6  248.13    5.60
   7   8  -6  252.46    4.95
   7   8  -6  260.76    5.43
   7  -8  -6  257.99    5.59
   6   8  -6   54.81    2.35
   6  -8  -6   55.74    2.59
   6   8  -6   57.20    2.36
   6   8  -6   57.80    2.58
   5  -8  -6   25.94    1.78
   5   8  -6   27.88    1.78
   4  -8  -6   22.72    1.64
   3  -8  -6   12.74    1.26
   2  -8  -6   16.71    1.42
   1  -8  -6    1.96    0.56
   0  -8  -6    8.89    1.08
  -1  -8  -6  289.22    6.01
  -2  -8  -6  126.50    4.04
  -3  -8  -6   17.47    1.58
  -3  -8  -6   18.32    1.42
  -4  -8  -6  310.59    6.68
  -4   8  -6  312.14    5.85
  -4   8  -6  308.42    6.05
  -4  -8  -6  302.80    5.76
  -5   8  -6    5.73    0.87
  -5  -8  -6    6.09    1.05
  -5  -8  -6    4.70    0.81
  -6  -8  -6    3.16    0.82
  -6  -8  -6    2.56    0.65
  -7  -8  -6   36.09    2.05
   8  -8   6  256.80    5.94
  -8  -8  -6  249.56    5.31
   9  -8   6   67.52    3.04
  -9  -8  -6   65.69    2.67
  10  -8   6   46.15    2.48
 -10  -8  -6   47.31    2.15
  11  -8   6   19.54    1.60
  12  -8   6    0.38    0.40
  13  -8   6    1.44    0.46
  13  -8   6    2.29    0.54
  14  -8   6   30.83    1.39
  14  -8   6   30.52    1.52
  15  -8   6    6.51    0.55
  15  -8   6    6.72    0.62
  17  -9  -6   68.65    1.73
  16  -9  -6   10.92    0.89
  15  -9  -6    4.00    0.68
  14  -9  -6    6.14    0.87
  13  -9  -6    0.82    0.51
  12  -9  -6   91.91    3.52
  11  -9  -6   66.99    3.09
  10  -9  -6  125.84    4.23
   9   9  -6  181.22    4.04
   9  -9  -6  173.01    4.88
   8  -9  -6  199.10    5.07
   8   9  -6  208.95    4.47
   8  -9  -6  195.47    5.10
   8   9  -6  195.02    4.27
   7   9  -6   41.96    2.08
   7  -9  -6   41.46    2.31
   7   9  -6   40.33    2.00
   7   9  -6   40.51    2.21
   7  -9  -6   43.72    2.37
   6   9  -6   23.88    1.61
   6  -9  -6   21.62    1.64
   6   9  -6   21.60    1.46
   6   9  -6   24.88    1.72
   5  -9  -6  128.98    4.00
   5   9  -6  131.01    3.73
   5  -9  -6  129.06    3.81
   5   9  -6  125.38    3.52
   5   9  -6  129.27    3.86
   4   9  -6  467.72    7.04
   4  -9  -6  469.78    7.53
   3  -9  -6    5.35    0.87
   2  -9  -6   43.18    2.32
   1  -9  -6   96.33    3.46
   0  -9  -6   31.83    2.03
  -1  -9  -6   80.22    3.29
  -2   9  -6  318.13    5.99
  -2  -9  -6  306.69    6.45
  -2  -9  -6  315.46    5.76
  -3   9  -6  612.68    8.29
  -3  -9  -6  625.86    9.47
  -3  -9  -6  640.08    8.38
  -4   9  -6  162.48    4.27
  -4  -9  -6  157.67    4.89
  -4  -9  -6  171.12    4.40
  -5  -9  -6  169.82    5.17
  -5   9  -6  160.46    4.22
  -5  -9  -6  161.34    4.33
   6  -9   6   15.40    1.46
  -6  -9  -6   14.47    1.60
  -6  -9  -6   15.97    1.39
   7  -9   6   26.10    1.88
  -7  -9  -6   26.67    1.79
   8  -9   6   40.24    2.34
  -8  -9  -6   41.35    2.19
   9  -9   6    7.24    1.05
  -9  -9  -6    7.32    0.95
  10  -9   6    1.07    0.51
 -10  -9  -6    0.55    0.36
  11  -9   6    0.42    0.42
  12  -9   6    4.89    0.79
  13  -9   6   13.81    1.00
  13  -9   6   14.86    1.19
  14  -9   6   18.41    1.00
  14  -9   6   19.56    1.18
  15  -9   6    2.11    0.36
  16 -10  -6    9.73    0.80
  15 -10  -6   54.68    2.15
  14 -10  -6    8.89    1.00
  13 -10  -6   20.74    1.60
  12 -10  -6    7.41    1.03
  11 -10  -6    4.52    0.86
  10 -10  -6    1.92    0.65
   9  10  -6  120.32    3.34
   9 -10  -6  111.32    3.90
   8  10  -6   90.44    3.01
   8 -10  -6   82.81    3.34
   7 -10  -6    0.65    0.46
   7 -10  -6    0.00    0.45
   7  10  -6    1.20    0.42
   7  10  -6    0.65    0.38
   7  10  -6   -0.08    0.39
   6 -10  -6    2.73    0.69
   6  10  -6    2.16    0.58
   6  10  -6    1.99    0.52
   6  10  -6    2.08    0.64
   5  10  -6  118.29    3.60
   5 -10  -6  120.94    3.95
   5  10  -6  114.73    3.41
   5  10  -6  115.72    3.74
   4  10  -6  287.86    5.63
   4  10  -6  286.58    5.36
   4 -10  -6  281.13    5.98
   3  10  -6  111.07    3.52
   3 -10  -6  111.27    3.79
   2 -10  -6   56.04    2.70
   2  10  -6   57.40    2.55
   1 -10  -6   66.87    2.98
   1  10  -6   68.48    2.80
   0 -10  -6    1.31    0.56
   0  10  -6    1.93    0.59
   0 -10  -6    2.35    0.55
  -1  10  -6   44.70    2.29
  -1 -10  -6   40.83    2.41
  -1 -10  -6   44.90    2.20
  -2  10  -6   39.37    2.15
  -2 -10  -6   43.53    2.53
  -2 -10  -6   43.55    2.18
  -3 -10  -6   80.05    3.48
  -3  10  -6   76.17    2.96
  -3 -10  -6   82.30    3.06
  -4  10  -6   19.56    1.51
  -4 -10  -6   16.53    1.64
   4 -10   6   20.97    1.61
  -4 -10  -6   21.22    1.61
  -5 -10  -6   31.02    2.27
   5 -10   6   29.49    1.95
  -5 -10  -6   31.32    1.94
   6 -10   6  189.32    4.94
  -6 -10  -6  193.03    4.78
   7 -10   6   49.74    2.58
  -7 -10  -6   42.65    2.25
   8 -10   6  137.15    4.29
  -8 -10  -6  131.91    3.88
   9 -10   6   18.30    1.60
  -9 -10  -6   18.31    1.42
  10 -10   6    1.40    0.60
 -10 -10  -6    0.65    0.36
  11 -10   6   24.89    1.72
 -11 -10  -6   23.71    1.36
  12 -10   6   41.51    1.78
  12 -10   6   41.62    2.06
  13 -10   6   22.68    1.17
  13 -10   6   23.16    1.41
  14 -10   6    9.04    0.62
  14 -10   6    8.99    0.78
  16 -11  -6    4.50    0.53
  15 -11  -6    2.11    0.48
  14 -11  -6    1.41    0.49
  13 -11  -6    4.46    0.74
  12 -11  -6    3.06    0.69
  11 -11  -6    4.06    0.82
  10  11  -6    9.56    1.04
  10 -11  -6    7.43    1.07
   9  11  -6  190.72    4.24
   9 -11  -6  197.44    5.13
   8  11  -6  479.17    6.89
   8 -11  -6  473.25    7.84
   7  11  -6   27.20    1.73
   7 -11  -6   24.82    1.78
   6 -11  -6    5.64    0.88
   6  11  -6    6.22    0.86
   6  11  -6    6.80    0.98
   5  11  -6   32.82    1.93
   5 -11  -6   33.36    2.15
   5  11  -6   32.17    2.02
   4  11  -6  118.73    3.66
   4 -11  -6  116.90    3.92
   4  11  -6  110.26    3.70
   3 -11  -6    2.27    0.62
   3  11  -6    3.72    0.74
   2  11  -6  165.98    4.37
   2 -11  -6  164.69    4.71
   2 -11  -6  168.77    4.07
   1 -11  -6   60.01    2.90
   1  11  -6   58.43    2.63
   1 -11  -6   61.50    2.51
   0  11  -6    8.66    1.04
   0 -11  -6    8.81    0.99
   0 -11  -6    8.60    1.13
  -1  11  -6   59.14    2.65
  -1 -11  -6   56.97    2.52
  -1 -11  -6   58.95    2.90
  -2 -11  -6    7.68    1.13
  -2  11  -6    8.07    1.01
  -2 -11  -6   10.48    1.12
  -3  11  -6   81.84    3.07
  -3 -11  -6   79.19    3.52
  -3 -11  -6   86.18    3.17
  -4  11  -6   91.83    3.19
  -4 -11  -6   92.15    3.85
  -4 -11  -6   95.11    3.37
   5 -11   6  231.03    5.34
  -5 -11  -6  228.11    5.21
   6 -11   6    0.27    0.40
  -6 -11  -6    0.84    0.49
   7 -11   6  380.63    7.02
  -7 -11  -6  369.20    6.58
   8 -11   6   81.79    3.30
  -8 -11  -6   79.68    3.00
   9 -11   6   34.37    2.11
  -9 -11  -6   35.46    1.91
  10 -11   6    5.65    0.89
 -10 -11  -6    6.13    0.77
  11 -11   6   14.63    1.29
 -11 -11  -6   12.32    0.96
  12 -11   6    1.91    0.40
  12 -11   6    1.87    0.55
  13 -11   6   68.94    1.79
  13 -11   6   73.62    2.34
  14 -11   6   11.32    0.81
  16 -12  -6    0.55    0.23
  15 -12  -6    0.20    0.29
  14 -12  -6    0.24    0.29
  13 -12  -6    2.71    0.60
  12 -12  -6   16.91    1.41
  11 -12  -6    6.82    0.99
  10 -12  -6    0.74    0.47
  10  12  -6    2.92    0.82
   9 -12  -6    4.08    0.80
   9  12  -6    2.66    0.67
   8  12  -6   56.03    2.40
   8 -12  -6   50.38    2.53
   7 -12  -6    5.15    0.86
   7  12  -6    5.73    0.86
   6  12  -6   62.61    2.64
   5  12  -6   43.16    2.22
   5 -12  -6   45.62    2.52
   4 -12  -6  112.53    3.93
   4  12  -6  109.68    3.56
   4  12  -6  113.37    3.77
   3 -12  -6    5.55    0.91
   3  12  -6    4.25    0.75
   2  12  -6  291.02    5.84
   2 -12  -6  285.30    6.31
   2 -12  -6  280.36    5.31
   1 -12  -6    1.81    0.67
   1  12  -6    2.27    0.63
   1 -12  -6    2.36    0.58
   0 -12  -6   25.19    1.94
   0  12  -6   26.63    1.79
   0 -12  -6   26.41    1.70
  -1  12  -6   20.85    1.61
  -1 -12  -6   20.09    1.54
  -1 -12  -6   21.80    1.82
  -2  12  -6   16.73    1.41
  -2 -12  -6   18.32    1.48
  -2 -12  -6   17.20    1.65
  -3  12  -6   14.52    1.32
  -3 -12  -6   10.87    1.37
  -3 -12  -6   12.32    1.23
  -4  12  -6   99.68    3.29
  -4 -12  -6  100.85    3.51
   5 -12   6    4.26    0.78
  -5 -12  -6    4.76    0.82
   6 -12   6    7.16    1.01
  -6 -12  -6    7.08    0.96
   7 -12   6    9.40    1.17
  -7 -12  -6    8.29    1.04
   8 -12   6   16.74    1.50
  -8 -12  -6   15.94    1.35
   9 -12   6    7.09    1.00
  -9 -12  -6    6.97    0.87
  10 -12   6   21.40    1.57
 -10 -12  -6   19.61    1.29
  11 -12   6   10.91    0.87
  11 -12   6    9.49    1.02
 -11 -12  -6    9.62    0.81
  12 -12   6    0.59    0.39
  13 -12   6    6.64    0.70
  14 -12   6    1.71    0.33
  15 -13  -6    0.98    0.31
  14 -13  -6    6.11    0.71
  13 -13  -6   61.33    2.35
  12 -13  -6   12.84    1.19
  11 -13  -6   23.04    1.63
  11  13  -6   25.18    1.40
  10 -13  -6    5.41    0.83
  10  13  -6    8.19    1.05
   9 -13  -6    6.62    0.97
   9  13  -6    7.49    1.00
   8  13  -6  464.87    6.80
   8 -13  -6  469.22    7.48
   7  13  -6    9.82    1.07
   7 -13  -6    8.84    1.06
   6  13  -6   60.66    2.60
   5  13  -6   -0.26    0.42
   4  13  -6  490.40    7.52
   3  13  -6  341.02    6.33
   3 -13  -6  332.41    6.86
   2 -13  -6    0.65    0.49
   2  13  -6   -0.09    0.42
   2 -13  -6    0.47    0.42
   1  13  -6   34.57    2.04
   1 -13  -6   34.09    2.25
   1 -13  -6   37.92    2.03
   0 -13  -6    6.77    1.02
   0  13  -6    8.59    1.08
   0 -13  -6    7.61    0.98
  -1  13  -6   17.92    1.50
  -1 -13  -6   18.30    1.48
  -1 -13  -6   17.39    1.65
  -2  13  -6   86.51    3.14
  -2 -13  -6   84.40    3.17
  -3  13  -6    1.04    0.43
  -3 -13  -6    0.94    0.46
  -4  13  -6    1.94    0.52
  -4 -13  -6    3.70    0.73
  -5 -13  -6   28.07    1.85
   6 -13   6   24.68    1.77
  -6 -13  -6   23.57    1.69
   7 -13   6   72.81    2.98
  -7 -13  -6   68.49    2.79
   8 -13   6    3.00    0.69
  -8 -13  -6    2.15    0.54
   9 -13   6   30.65    1.87
  -9 -13  -6   27.83    1.62
  10 -13   6    0.58    0.40
 -10 -13  -6   -0.01    0.26
  11 -13   6    0.10    0.35
 -11 -13  -6    0.21    0.24
  12 -13   6   20.29    1.24
  13 -13   6   32.60    1.34
  15 -14  -6   -0.11    0.18
  14 -14  -6   56.81    1.85
  13 -14  -6    2.72    0.51
  12 -14  -6    9.27    0.95
  11 -14  -6   17.91    1.38
  11  14  -6   16.10    1.09
  10 -14  -6   15.56    1.32
  10  14  -6   18.57    1.32
   9  14  -6    6.68    1.06
   9 -14  -6    2.93    0.69
   8  14  -6   14.28    1.29
   8 -14  -6   16.05    1.36
   7  14  -6   46.73    2.24
   6  14  -6  105.46    3.41
   5  14  -6   43.31    2.24
   4  14  -6   99.15    3.41
   3  14  -6   55.29    2.57
   2  14  -6   25.67    1.77
   2 -14  -6   29.45    1.74
   1  14  -6   48.54    2.42
   1 -14  -6   49.52    2.32
   0  14  -6  191.35    4.71
   0 -14  -6  190.27    4.60
  -1  14  -6   36.79    2.07
  -1 -14  -6   36.77    2.08
  -2  14  -6   21.90    1.58
  -2 -14  -6   21.01    1.60
  -3  14  -6   10.60    1.11
  -3 -14  -6   10.71    1.17
  -4 -14  -6    0.31    0.46
  -5 -14  -6    1.17    0.57
   6 -14   6    4.49    0.78
  -6 -14  -6    3.59    0.70
   7 -14   6    6.65    0.93
  -7 -14  -6    5.42    0.84
   8 -14   6   15.37    1.34
  -8 -14  -6   19.19    1.40
   9 -14   6    2.78    0.61
  -9 -14  -6    1.72    0.47
  10 -14   6   10.58    1.02
 -10 -14  -6    9.34    0.83
  11 -14   6    0.73    0.35
 -11 -14  -6    0.48    0.25
  12 -14   6   39.44    1.56
  14 -15  -6   17.21    0.88
  13 -15  -6   50.13    1.76
  12 -15  -6   67.17    2.25
  11 -15  -6    6.37    0.78
  11  15  -6    5.29    0.53
  10 -15  -6  147.43    3.71
  10  15  -6  140.09    3.25
   9 -15  -6  122.34    3.46
   9  15  -6  130.77    3.38
   8  15  -6  132.76    3.58
   7  15  -6   48.91    2.27
   6  15  -6   20.50    1.56
   5  15  -6   20.90    1.59
   4  15  -6  137.76    3.96
   3  15  -6   16.99    1.43
   2  15  -6    1.08    0.48
   2 -15  -6    1.22    0.49
   1  15  -6  175.16    4.49
   1 -15  -6  177.99    4.34
   0  15  -6   25.23    1.71
   0 -15  -6   23.51    1.64
  -1  15  -6   17.14    1.39
  -1 -15  -6   14.89    1.34
  -2  15  -6   28.37    1.74
  -2 -15  -6   26.85    1.80
  -3  15  -6  100.14    3.13
  -3 -15  -6  100.72    3.44
  -4 -15  -6    2.62    0.65
  -5 -15  -6   42.93    2.22
  -6 -15  -6   -0.08    0.37
   7 -15   6    4.99    0.77
  -7 -15  -6    6.16    0.85
   8 -15   6    0.65    0.41
  -8 -15  -6    0.01    0.32
   9 -15   6   17.03    1.25
  -9 -15  -6   19.91    1.26
  10 -15   6   18.72    1.22
 -10 -15  -6   18.19    1.06
  11 -15   6    4.63    0.58
 -11 -15  -6    4.05    0.42
  12 -15   6    3.89    0.45
  13 -16  -6    1.63    0.31
  12 -16  -6   25.78    1.24
  11 -16  -6   39.42    1.67
  11  16  -6   40.19    1.50
  10 -16  -6   14.69    1.09
  10  16  -6   10.91    0.91
   9  16  -6    5.47    0.87
   8  16  -6    4.26    0.94
   7  16  -6   17.56    1.44
   6  16  -6    8.18    1.08
   5  16  -6   33.72    1.94
   4  16  -6   20.64    1.56
   3  16  -6    1.69    0.57
   2  16  -6   11.70    1.18
   2 -16  -6   11.34    1.06
   1  16  -6    4.20    0.76
   1 -16  -6    4.64    0.75
   0  16  -6   11.86    1.17
   0 -16  -6    8.77    1.02
  -1  16  -6   22.17    1.54
  -1 -16  -6   22.50    1.60
  -2  16  -6    4.34    0.72
  -2 -16  -6    3.02    0.64
  -3  16  -6  104.89    3.04
  -3 -16  -6  104.39    3.43
  -4 -16  -6   16.77    1.40
  -5 -16  -6    0.07    0.40
  -6 -16  -6    2.96    0.64
  -7 -16  -6   -0.03    0.32
  -8 -16  -6   21.29    1.33
   8 -16   6   22.96    1.37
   9 -16   6   21.61    1.25
  -9 -16  -6   23.55    1.27
  10 -16   6    1.84    0.40
 -10 -16  -6    1.80    0.36
  11 -16   6    0.18    0.20
  11  17  -6    0.96    0.29
  10  17  -6   67.59    2.03
   9  17  -6  127.84    3.05
   8  17  -6  110.55    3.04
   7  17  -6   39.35    2.02
   6  17  -6   18.40    1.50
   5  17  -6  135.39    3.70
   4  17  -6    4.23    0.87
   3  17  -6    1.04    0.57
   2  17  -6   33.97    1.91
   2 -17  -6   34.77    1.78
   1  17  -6   28.64    1.74
   1 -17  -6   29.71    1.72
   0  17  -6  118.40    3.44
   0 -17  -6  120.69    3.52
  -1  17  -6    9.34    0.99
  -1 -17  -6    7.52    0.93
  -2  17  -6   52.45    2.15
  -2 -17  -6   48.88    2.30
  -3 -17  -6   86.95    3.06
  -4 -17  -6   11.04    1.11
  -5 -17  -6   16.54    1.31
  -6 -17  -6   15.22    1.22
  -7 -17  -6   35.18    1.72
  -8 -17  -6  105.71    2.74
  -9 -17  -6  102.79    2.39
 -10 -17  -6    3.50    0.39
  11  18  -6   21.33    0.91
  10  18  -6   36.04    1.39
   9  18  -6    0.00    0.63
   8  18  -6    1.35    0.48
   7  18  -6    4.55    0.87
   6  18  -6    3.90    0.93
   5  18  -6   10.60    1.21
   4  18  -6    4.53    0.95
   3  18  -6    6.74    1.05
   2  18  -6   11.54    1.16
   2 -18  -6   10.55    0.95
   1  18  -6    2.42    0.65
   1 -18  -6    3.59    0.58
   0  18  -6   86.49    2.79
   0 -18  -6   83.54    2.81
  -1  18  -6  119.83    3.17
  -1 -18  -6  118.67    3.41
  -2  18  -6   34.32    1.63
  -2 -18  -6   34.36    1.85
  -3 -18  -6    0.33    0.33
  -4 -18  -6    1.39    0.47
  -5 -18  -6    2.11    0.53
  -6 -18  -6   36.65    1.73
  -7 -18  -6    0.97    0.37
  -8 -18  -6    3.49    0.50
  -9 -18  -6    2.31    0.36
 -10  18  -6   69.45    1.71
  10  19  -6    4.07    0.45
   9  19  -6  109.98    2.44
   8  19  -6   53.22    1.85
   7  19  -6  113.61    2.85
   6  19  -6   16.12    1.21
   5  19  -6    4.57    0.88
   4  19  -6    4.50    0.94
   3  19  -6   65.27    2.43
   2  19  -6    2.33    0.75
   1  19  -6   16.94    1.26
   1 -19  -6   15.89    1.15
   0  19  -6   56.11    2.14
   0 -19  -6   51.50    2.10
  -1  19  -6   82.56    2.46
  -1  19  -6   85.26    2.74
  -1 -19  -6   82.79    2.69
  -2  19  -6    2.75    0.59
  -2 -19  -6    2.21    0.55
  -3 -19  -6    0.28    0.32
  -4 -19  -6   34.03    1.69
  -5 -19  -6    2.74    0.55
  -6 -19  -6    6.15    0.70
  -7 -19  -6   13.15    0.90
  -8 -19  -6    5.80    0.55
  -8  19  -6    6.60    0.67
  -9  19  -6   14.80    0.82
   9  20  -6   15.15    0.82
   8  20  -6   10.48    0.77
   7  20  -6   27.67    1.30
   6  20  -6   89.13    2.43
   5  20  -6   35.99    1.61
   4  20  -6   20.11    1.29
   3  20  -6   71.69    2.33
   2  20  -6   12.82    1.09
   1 -20  -6   21.11    1.19
   1  20  -6   24.20    1.35
   0 -20  -6  162.98    3.41
   0  20  -6  165.74    3.29
  -1  20  -6    5.43    0.66
  -1 -20  -6    4.92    0.63
  -1  20  -6    6.70    0.71
  -2  20  -6    0.37    0.30
  -2 -20  -6   -0.03    0.29
  -3  20  -6    5.06    0.68
  -3 -20  -6    4.48    0.62
  -4  20  -6   85.37    2.54
  -4 -20  -6   84.73    2.45
  -5  20  -6   72.87    2.28
  -5 -20  -6   73.17    2.16
  -6  20  -6    8.93    0.80
  -6 -20  -6    8.04    0.70
  -7  20  -6   10.00    0.76
  -7 -20  -6    9.28    0.67
   8  21  -6   33.38    1.16
   7  21  -6   82.64    2.00
   5  21  -6    0.75    0.45
   4  21  -6    0.30    0.50
   3  21  -6    1.66    0.36
   2  21  -6   38.96    1.55
   1 -21  -6   18.12    0.96
   1  21  -6   16.50    0.99
   0 -21  -6   21.54    1.12
   0  21  -6   20.27    1.03
  -1 -21  -6   11.25    0.85
  -2  21  -6    1.06    0.34
  -2 -21  -6    1.17    0.34
  -3  21  -6   16.57    1.00
  -3 -21  -6   16.91    1.02
  -4  21  -6   18.35    1.03
  -4 -21  -6   18.12    1.03
  -5  21  -6    3.46    0.47
  -5 -21  -6    3.08    0.43
  -6  21  -6    0.66    0.24
  -6 -21  -6    0.39    0.18
   6  22  -6   12.58    0.73
   5  22  -6    7.49    0.61
   4  22  -6   39.90    1.37
   3  22  -6   26.37    1.11
   2  22  -6   13.33    0.79
   1  22  -6   12.00    0.71
   0 -22  -6   48.35    1.38
  -1 -22  -6    1.83    0.33
  -2 -22  -6    3.76    0.45
  -3 -22  -6   18.22    0.90
  -4 -22  -6   31.49    1.12
  16   0  -7    0.29    0.24
  15   0  -7    0.14    0.28
  14   0  -7    0.15    0.35
  13   0  -7    0.15    0.46
  13   0  -7    0.02    0.35
  12   0  -7    0.57    0.48
  12   0  -7   -0.05    0.41
  12   0  -7    0.14    0.27
  11   0  -7    0.26    0.45
  11   0  -7    0.40    0.47
  11   0  -7    0.14    0.33
  10   0  -7    0.07    0.49
  10   0  -7    0.49    0.40
  10   0  -7    1.20    0.47
   9   0  -7    0.51    0.41
   9   0  -7   -0.03    0.35
   8   0  -7    0.15    0.39
   8   0  -7    0.40    0.38
   7   0  -7    0.25    0.38
   7   0  -7    0.75    0.39
   6   0  -7    0.17    0.34
   6   0  -7   -0.01    0.34
   5   0  -7    0.40    0.37
   4   0  -7   -0.02    0.26
   4   0  -7    0.40    0.25
   3   0  -7    0.26    0.27
   3   0  -7    0.22    0.29
   2   0  -7    0.29    0.27
   1   0  -7    0.03    0.32
   0   0  -7    0.34    0.35
  -1   0  -7    1.59    0.48
  -2   0  -7    0.17    0.31
  -3   0  -7    0.09    0.34
  -4   0  -7    0.63    0.34
  -4   0  -7    0.46    0.40
  -5   0  -7    0.59    0.45
  -5   0  -7    0.43    0.45
  -6   0  -7    1.91    0.64
  -6   0  -7    1.79    0.61
  -7   0  -7    0.89    0.55
  -7   0  -7    0.19    0.41
  -7   0  -7    0.33    0.43
  -7   0  -7   -0.29    0.42
  -8   0  -7    1.23    0.63
  -9   0  -7    1.84    0.62
 -10   0  -7    0.18    0.39
 -11   0  -7   -0.33    0.38
 -12   0  -7    0.13    0.31
  12   0   7    0.03    0.32
  13   0   7    0.20    0.34
  13   0   7    0.12    0.31
  14   0   7    0.13    0.26
  14   0   7    0.38    0.26
  15   0   7    0.20    0.21
  16  -1  -7   79.97    2.18
  15   1  -7   97.13    2.67
  15  -1  -7   98.94    2.89
  14  -1  -7    0.80    0.38
  14   1  -7    1.46    0.42
  13   1  -7   -0.30    0.57
  13   1  -7    0.45    0.37
  13  -1  -7    1.28    0.52
  12  -1  -7    2.40    0.66
  12   1  -7    2.89    0.73
  12   1  -7    2.80    0.66
  12  -1  -7    1.54    0.53
  12   1  -7    2.94    0.58
  12  -1  -7    1.71    0.49
  11   1  -7  159.17    4.55
  11  -1  -7  160.87    4.67
  11   1  -7  167.01    4.15
  11  -1  -7  161.50    4.22
  11  -1  -7  162.75    4.72
  11   1  -7  159.92    4.83
  10  -1  -7   12.61    1.35
  10   1  -7   13.69    1.38
  10   1  -7   13.04    1.23
  10  -1  -7   11.88    1.22
  10   1  -7   11.61    1.36
   9   1  -7    6.09    0.93
   9  -1  -7    6.14    0.98
   9   1  -7    5.71    0.90
   8  -1  -7  251.49    5.02
   8   1  -7  241.03    5.53
   8  -1  -7  244.07    5.63
   8   1  -7  245.60    5.27
   7  -1  -7   15.90    1.28
   7   1  -7   15.90    1.42
   7  -1  -7   15.71    1.45
   7   1  -7   14.91    1.31
   7   1  -7   14.67    1.24
   6  -1  -7   15.95    1.40
   6   1  -7   15.13    1.36
   6   1  -7   14.32    1.26
   6   1  -7   14.23    1.21
   6  -1  -7   13.48    1.13
   5  -1  -7  329.38    5.22
   5   1  -7  319.28    5.41
   4  -1  -7  131.17    3.22
   4   1  -7  132.16    3.46
   4  -1  -7  132.37    3.43
   3  -1  -7  256.23    4.79
   3  -1  -7  258.20    4.51
   3   1  -7  246.46    4.68
   2  -1  -7   72.00    2.56
   2  -1  -7   71.90    2.36
   1  -1  -7   24.68    1.53
   0  -1  -7  137.08    3.65
  -1  -1  -7  277.43    5.33
  -2  -1  -7   25.08    1.66
  -2   1  -7   26.21    1.59
  -3  -1  -7  100.21    3.41
  -3   1  -7  104.23    3.27
  -4  -1  -7  232.76    5.32
  -4   1  -7  227.56    5.05
  -4  -1  -7  229.35    5.07
  -5  -1  -7   38.15    2.24
  -5   1  -7   38.94    2.13
  -5  -1  -7   41.73    2.19
  -6  -1  -7  117.80    4.05
  -6   1  -7  119.02    3.82
  -6   1  -7  117.07    3.68
  -6  -1  -7  123.09    3.78
  -7   1  -7    4.42    0.84
  -7  -1  -7    3.53    0.82
  -7  -1  -7    3.35    0.70
  -8   1  -7 1048.03   11.54
  -8  -1  -7 1076.57   11.55
  -8  -1  -7 1067.94   10.88
  -9   1  -7  108.36    3.67
  -9  -1  -7  108.40    3.65
 -10   1  -7  198.79    4.86
 -10  -1  -7  202.49    4.85
 -11   1  -7  155.76    4.10
 -11  -1  -7  167.71    4.17
  12  -1   7  135.63    3.66
  12   1   7  126.46    3.41
 -12  -1  -7  128.12    3.33
  13   1   7   19.98    1.25
  13  -1   7   20.49    1.32
  13  -1   7   20.45    1.30
  13   1   7   19.02    1.19
  14   1   7   44.65    1.65
  14  -1   7   46.47    1.75
  14  -1   7   43.96    1.59
  15   1   7   65.41    1.65
  15  -1   7   68.92    1.78
  16  -2  -7   12.08    0.89
  15  -2  -7    0.84    0.39
  14   2  -7    3.58    0.60
  14  -2  -7    4.72    0.80
  13   2  -7    1.33    0.44
  13  -2  -7    0.99    0.48
  13  -2  -7    1.32    0.47
  12   2  -7   42.35    2.24
  12  -2  -7   44.93    2.46
  12  -2  -7   44.00    2.15
  12   2  -7   46.30    2.60
  11   2  -7   50.33    2.52
  11  -2  -7   46.43    2.54
  11   2  -7   49.58    2.24
  11  -2  -7   50.20    2.39
  11   2  -7   45.81    2.60
  10   2  -7  195.56    5.05
  10   2  -7  198.15    4.60
  10  -2  -7  195.66    5.20
  10   2  -7  196.23    5.34
   9  -2  -7   56.89    2.52
   9   2  -7   58.73    2.76
   9  -2  -7   57.44    2.81
   9   2  -7   59.81    2.58
   8  -2  -7   11.16    1.13
   8   2  -7   12.44    1.29
   8  -2  -7   12.48    1.32
   8   2  -7   13.78    1.28
   7  -2  -7   74.85    2.78
   7   2  -7   69.55    2.91
   7  -2  -7   72.15    3.05
   7   2  -7   74.09    2.88
   7   2  -7   75.71    2.82
   6  -2  -7  128.93    3.94
   6   2  -7  127.87    3.86
   6   2  -7  129.20    3.72
   6   2  -7  125.17    3.54
   5  -2  -7   24.38    1.56
   5  -2  -7   25.79    1.44
   5   2  -7   23.36    1.54
   4  -2  -7   43.37    2.06
   4   2  -7   43.02    2.03
   3  -2  -7   10.71    1.04
   2  -2  -7   65.96    2.55
   1  -2  -7    3.86    0.66
   0  -2  -7    7.31    0.91
  -1  -2  -7    3.64    0.70
  -2  -2  -7    3.57    0.70
  -3  -2  -7    4.31    0.81
  -4   2  -7    3.68    0.71
  -4   2  -7    2.46    0.62
  -4  -2  -7    3.03    0.62
  -4  -2  -7    2.45    0.61
  -5  -2  -7   28.78    2.00
  -5   2  -7   30.62    1.94
  -5  -2  -7   30.23    1.88
  -6  -2  -7   90.56    3.62
  -6   2  -7   88.96    3.32
  -6  -2  -7   91.75    3.27
  -7  -2  -7   13.30    1.47
  -7   2  -7   16.16    1.47
  -7  -2  -7   15.06    1.37
  -8   2  -7   66.91    2.96
  -8  -2  -7   67.12    2.77
  -9   2  -7   59.04    2.74
  -9  -2  -7   60.63    2.72
  -9  -2  -7   57.75    2.48
 -10   2  -7   33.22    2.02
 -10  -2  -7   35.42    2.02
 -11   2  -7    5.63    0.86
 -11  -2  -7    6.35    0.84
  11  -2   7    5.89    0.92
 -12  -2  -7    1.59    0.42
  12  -2   7    1.71    0.51
  12   2   7    1.39    0.44
  13   2   7   13.35    1.02
  13  -2   7   15.59    1.16
  13  -2   7   12.49    1.04
  13   2   7   13.34    0.96
  14   2   7   59.73    1.85
  14  -2   7   61.91    2.02
  14  -2   7   61.62    1.93
  15  -2   7    6.79    0.59
  17  -3  -7   29.62    1.08
  16  -3  -7   48.23    1.79
  15  -3  -7    0.69    0.32
  14   3  -7    0.12    0.30
  14  -3  -7    1.02    0.48
  13   3  -7   11.23    1.09
  13  -3  -7   13.27    1.34
  13  -3  -7   12.18    1.07
  12  -3  -7   12.84    1.35
  12   3  -7   13.05    1.24
  12  -3  -7   13.07    1.20
  11   3  -7   13.20    1.28
  11  -3  -7   14.11    1.47
  11   3  -7   14.78    1.24
  10   3  -7    3.31    0.73
  10  -3  -7    5.20    0.92
  10   3  -7    4.40    0.74
   9  -3  -7  103.33    3.46
   9   3  -7  100.70    3.56
   9   3  -7  105.89    3.40
   9  -3  -7  101.59    3.75
   8  -3  -7  109.41    3.51
   8   3  -7  109.05    3.67
   8  -3  -7  105.74    3.77
   8   3  -7  114.27    3.55
   7  -3  -7   53.63    2.42
   7   3  -7   55.73    2.60
   7  -3  -7   56.37    2.68
   7   3  -7   55.22    2.46
   7   3  -7   55.92    2.46
   6   3  -7   34.20    2.00
   6  -3  -7   29.46    1.92
   6   3  -7   31.26    1.84
   6   3  -7   33.19    1.87
   5  -3  -7   10.50    1.08
   5   3  -7   11.40    1.09
   4  -3  -7   17.03    1.34
   4   3  -7   16.81    1.32
   3  -3  -7   31.52    1.81
   2  -3  -7    0.19    0.32
   1  -3  -7   16.81    1.35
   0  -3  -7  105.13    3.40
  -1  -3  -7  379.66    6.55
  -2  -3  -7   71.34    2.92
  -3  -3  -7   19.75    1.60
  -3  -3  -7   19.87    1.49
  -4  -3  -7   74.47    3.15
  -4   3  -7   77.87    2.98
  -4  -3  -7   76.65    2.93
  -5  -3  -7  176.63    4.98
  -5   3  -7  175.07    4.60
  -5  -3  -7  179.04    4.55
  -6  -3  -7  415.22    7.83
  -6   3  -7  422.90    7.28
  -6  -3  -7  421.28    7.00
  -7   3  -7    3.62    0.78
  -7  -3  -7    4.45    0.80
  -8   3  -7   75.76    3.15
  -8  -3  -7   81.21    3.04
  -9   3  -7    1.79    0.59
  -9  -3  -7    2.43    0.62
  -9  -3  -7    2.03    0.59
 -10   3  -7   53.56    2.53
 -10  -3  -7   50.08    2.39
  11  -3   7  151.66    4.16
 -11  -3  -7  150.54    3.85
  12   3   7    0.66    0.38
 -12  -3  -7    1.22    0.42
  12  -3   7    0.22    0.38
  12   3   7    0.12    0.27
  13   3   7    3.03    0.51
  13  -3   7    3.20    0.61
  13  -3   7    2.79    0.57
  14   3   7   34.10    1.33
  14  -3   7   36.33    1.50
  15  -3   7   65.46    1.72
  17  -4  -7    2.01    0.31
  16  -4  -7   37.33    1.58
  15  -4  -7    2.59    0.55
  14  -4  -7    0.51    0.41
  13  -4  -7   27.93    1.90
  13  -4  -7   26.70    1.59
  13   4  -7   29.54    1.63
  12   4  -7  291.93    5.50
  12  -4  -7  290.03    6.23
  11   4  -7   12.57    1.23
  11  -4  -7   13.65    1.44
  11   4  -7   12.24    1.10
  10   4  -7   31.91    1.97
  10  -4  -7   31.82    2.13
  10   4  -7   30.76    1.79
   9  -4  -7  431.57    7.19
   9   4  -7  437.82    7.27
   9  -4  -7  429.05    7.72
   9   4  -7  442.18    6.85
   8  -4  -7  437.15    7.13
   8   4  -7  425.71    7.17
   8  -4  -7  431.96    7.65
   8   4  -7  443.67    6.93
   8   4  -7  443.20    7.11
   7  -4  -7   35.69    2.02
   7   4  -7   38.17    2.14
   7  -4  -7   37.24    2.20
   7   4  -7   38.43    2.06
   7   4  -7   39.80    2.11
   6   4  -7    0.34    0.32
   6  -4  -7    1.02    0.52
   6   4  -7    0.43    0.40
   6   4  -7    0.63    0.39
   5  -4  -7   20.43    1.50
   5  -4  -7   19.40    1.52
   5   4  -7   18.33    1.40
   5   4  -7   18.89    1.47
   5   4  -7   20.29    1.51
   4  -4  -7   90.95    3.13
   4   4  -7   89.56    3.08
   3  -4  -7   10.46    1.09
   2  -4  -7    8.55    1.03
   1  -4  -7   63.06    2.65
   0  -4  -7   53.06    2.48
  -1  -4  -7  219.33    5.17
  -2  -4  -7    4.97    0.84
  -3   4  -7   53.75    2.44
  -3  -4  -7   52.82    2.66
  -3  -4  -7   54.29    2.46
  -4  -4  -7   12.86    1.36
  -4   4  -7   11.22    1.19
  -4  -4  -7   12.06    1.20
  -5  -4  -7   27.87    2.05
  -5   4  -7   28.60    1.90
  -5  -4  -7   29.09    1.85
  -6  -4  -7  162.14    5.01
  -6   4  -7  159.44    4.53
  -6  -4  -7  154.24    4.25
  -7   4  -7    4.71    0.85
  -7  -4  -7    5.09    0.85
  -8   4  -7   22.17    1.74
  -8  -4  -7   24.76    1.72
  -9   4  -7    1.13    0.56
  -9  -4  -7    0.67    0.40
 -10   4  -7  121.37    3.79
  10  -4   7  121.78    3.91
 -10  -4  -7  121.08    3.63
 -10  -4  -7  128.57    3.47
  11  -4   7   74.88    2.94
 -11  -4  -7   77.48    2.72
  12   4   7    1.77    0.44
 -12  -4  -7    2.26    0.46
  12  -4   7    2.33    0.57
  12   4   7    3.06    0.55
  13   4   7   18.94    1.10
  13  -4   7   21.95    1.34
  13  -4   7   19.56    1.31
  14   4   7    8.65    0.64
  14  -4   7   10.61    0.84
  14  -4   7    9.55    0.79
  15  -4   7    1.80    0.32
  17  -5  -7    0.12    0.16
  16  -5  -7   16.80    1.07
  15  -5  -7   36.00    1.79
  14  -5  -7    0.31    0.35
  14  -5  -7    0.49    0.27
  13  -5  -7   82.75    3.20
  13  -5  -7   82.04    2.74
  12   5  -7    0.33    0.35
  12  -5  -7    0.53    0.52
  11   5  -7   21.26    1.52
  11  -5  -7   18.01    1.61
  10   5  -7   19.70    1.52
  10  -5  -7   19.09    1.68
  10   5  -7   19.33    1.40
   9  -5  -7   18.68    1.66
   9   5  -7   20.13    1.56
   9   5  -7   21.08    1.51
   8  -5  -7   25.68    1.79
   8   5  -7   20.13    1.57
   8  -5  -7   20.92    1.72
   8   5  -7   20.42    1.50
   8   5  -7   20.76    1.58
   7  -5  -7  441.64    7.23
   7   5  -7  445.07    7.18
   7  -5  -7  455.67    7.67
   7   5  -7  451.21    7.00
   7   5  -7  445.72    7.15
   6   5  -7  404.20    6.37
   6   5  -7  406.68    6.83
   6  -5  -7  400.69    7.01
   6   5  -7  401.59    6.54
   6   5  -7  400.65    6.71
   5  -5  -7   27.81    1.80
   5   5  -7   28.11    1.79
   5  -5  -7   28.31    1.84
   5   5  -7   30.23    1.80
   5   5  -7   29.15    1.84
   4   5  -7   88.08    3.02
   4  -5  -7   87.64    3.16
   4   5  -7   88.45    3.12
   3  -5  -7    0.91    0.46
   2  -5  -7    5.15    0.82
   1  -5  -7   15.84    1.39
   0  -5  -7  104.45    3.58
  -1  -5  -7  404.90    7.18
  -2  -5  -7   97.45    3.56
  -2  -5  -7  100.06    3.30
  -3  -5  -7    0.61    0.46
  -3   5  -7    0.61    0.37
  -3  -5  -7    0.88    0.43
  -4  -5  -7  226.40    5.72
  -4   5  -7  233.99    5.29
  -4  -5  -7  229.80    5.13
  -5  -5  -7  461.58    8.38
  -5   5  -7  482.96    7.78
  -5  -5  -7  488.14    7.56
  -6  -5  -7  372.44    7.71
  -6   5  -7  385.72    7.08
  -6  -5  -7  376.25    6.68
  -7   5  -7   23.85    1.82
  -7  -5  -7   25.55    1.76
  -8   5  -7    0.87    0.54
  -8  -5  -7    0.87    0.44
  -9   5  -7   30.73    2.01
  -9  -5  -7   34.61    1.92
 -10  -5  -7    3.36    0.65
  10  -5   7    4.05    0.82
 -10  -5  -7    4.16    0.68
  11   5   7  256.15    4.52
  11  -5   7  249.17    5.32
 -11  -5  -7  251.06    4.79
  12   5   7   12.80    0.96
  12  -5   7   15.40    1.28
 -12  -5  -7   15.46    1.08
  13  -5   7    2.88    0.52
  13  -5   7    2.63    0.57
  14  -5   7    9.47    0.78
  14  -5   7    9.16    0.77
  17  -6  -7   10.22    0.63
  16  -6  -7   76.66    2.22
  15  -6  -7    5.49    0.73
  14  -6  -7   75.67    2.84
  14  -6  -7   76.03    2.31
  13  -6  -7   26.20    1.81
  12  -6  -7    5.04    0.90
  11   6  -7   15.66    1.27
  11  -6  -7   15.49    1.50
  10  -6  -7    2.45    0.75
  10   6  -7    2.43    0.62
  10   6  -7    2.58    0.55
   9   6  -7   18.51    1.47
   9  -6  -7   17.97    1.61
   9   6  -7   18.92    1.42
   8  -6  -7   74.83    3.09
   8   6  -7   77.75    3.00
   8  -6  -7   78.64    3.26
   8   6  -7   77.55    2.89
   7   6  -7   32.42    1.80
   7   6  -7   33.52    1.98
   7  -6  -7   34.43    2.16
   7   6  -7   33.59    1.94
   7   6  -7   32.40    2.00
   7  -6  -7   32.86    2.04
   6   6  -7  288.56    5.45
   6   6  -7  292.34    5.76
   6  -6  -7  288.85    6.00
   6   6  -7  288.90    5.56
   6   6  -7  291.14    5.83
   5  -6  -7  216.09    5.14
   5   6  -7  204.57    4.70
   5  -6  -7  222.23    5.12
   5   6  -7  215.69    4.81
   5   6  -7  215.25    5.02
   4   6  -7   66.56    2.72
   4  -6  -7   70.53    2.80
   4   6  -7   69.86    2.70
   4  -6  -7   65.51    2.82
   4   6  -7   64.72    2.74
   3  -6  -7   45.73    2.38
   3   6  -7   46.00    2.18
   2  -6  -7   17.61    1.51
   1  -6  -7   25.82    1.81
   0  -6  -7    3.21    0.75
  -1   6  -7   27.75    1.63
  -1  -6  -7   23.29    1.78
  -1  -6  -7   25.19    1.64
  -2   6  -7   25.84    1.71
  -2  -6  -7   25.23    1.88
  -2  -6  -7   27.04    1.75
  -3  -6  -7   63.32    3.03
  -3   6  -7   71.85    2.93
  -3  -6  -7   69.01    2.82
  -4  -6  -7   55.60    2.90
  -4   6  -7   62.32    2.77
  -4  -6  -7   57.21    2.62
  -5  -6  -7   47.29    2.74
  -5   6  -7   47.57    2.50
  -5  -6  -7   51.05    2.47
  -6   6  -7    0.96    0.54
  -6  -6  -7    0.52    0.36
  -7   6  -7   54.52    2.71
  -7  -6  -7   57.92    2.62
  -8   6  -7   10.30    1.22
  -8  -6  -7    8.52    1.03
   9  -6   7  281.71    6.03
  -9  -6  -7  280.56    5.42
  10  -6   7   95.13    3.42
 -10  -6  -7  100.00    3.20
 -10  -6  -7   98.14    3.01
  11  -6   7   42.16    2.20
 -11  -6  -7   41.76    1.91
  12  -6   7   11.75    1.12
  13  -6   7   83.69    2.43
  13  -6   7   81.80    2.55
  14  -6   7    0.69    0.28
  14  -6   7    0.72    0.31
  16  -7  -7   35.82    1.49
  15  -7  -7   39.81    1.82
  14  -7  -7   58.96    2.45
  14  -7  -7   59.69    2.03
  13  -7  -7    5.57    0.88
  12  -7  -7    5.52    0.93
  11  -7  -7    2.32    0.70
  10  -7  -7   34.44    2.22
  10   7  -7   38.43    1.87
   9  -7  -7  148.00    4.54
   9   7  -7  148.61    3.85
   8   7  -7   52.92    2.26
   8  -7  -7   49.57    2.61
   8   7  -7   53.00    2.38
   7   7  -7   13.21    1.20
   7  -7  -7   14.16    1.40
   7   7  -7   14.07    1.25
   7   7  -7   13.77    1.34
   7  -7  -7   15.03    1.41
   6   7  -7  375.91    6.32
   6  -7  -7  385.90    6.96
   6   7  -7  378.30    6.41
   6   7  -7  372.99    6.69
   5  -7  -7    1.05    0.49
   5  -7  -7    0.46    0.44
   5   7  -7    0.31    0.32
   5   7  -7    1.29    0.51
   5   7  -7   -0.17    0.48
   4   7  -7   81.16    3.03
   4  -7  -7   83.74    3.05
   4   7  -7   80.02    2.93
   4  -7  -7   74.26    3.07
   4   7  -7   78.77    3.10
   3   7  -7    0.11    0.25
   3   7  -7    0.44    0.33
   3  -7  -7    0.78    0.42
   2  -7  -7  193.93    5.00
   2   7  -7  197.78    4.78
   2   7  -7  193.35    4.44
   1   7  -7  133.84    3.96
   1   7  -7  138.64    3.73
   1  -7  -7  132.21    4.17
   0   7  -7  160.67    4.38
   0   7  -7  163.71    4.02
   0  -7  -7  158.01    4.09
   0  -7  -7  155.92    4.56
  -1   7  -7  174.18    4.59
  -1   7  -7  171.34    4.36
  -1   7  -7  181.06    4.23
  -1  -7  -7  177.70    5.03
  -1  -7  -7  175.12    4.37
  -2   7  -7    8.57    1.02
  -2  -7  -7   11.96    1.37
  -2  -7  -7   10.35    1.11
  -3  -7  -7    0.11    0.39
  -3   7  -7    0.78    0.46
  -3  -7  -7    0.74    0.44
  -4  -7  -7  174.78    5.21
  -4   7  -7  177.30    4.75
  -4  -7  -7  175.21    4.58
  -5  -7  -7   28.57    2.19
  -5   7  -7   27.39    1.93
  -5  -7  -7   26.02    1.77
  -6   7  -7  187.60    5.01
  -6  -7  -7  190.05    4.77
  -7  -7  -7   62.38    2.72
   8  -7   7    0.60    0.43
  -8  -7  -7    0.12    0.36
   9  -7   7   52.08    2.61
  -9  -7  -7   50.54    2.31
  10  -7   7   70.86    2.93
 -10  -7  -7   72.65    2.67
 -10  -7  -7   72.72    2.57
 -11  -7  -7    7.65    0.82
  11  -7   7    9.06    1.04
  12  -7   7   14.46    1.20
  13  -7   7   11.16    0.88
  13  -7   7   10.63    0.93
  14  -7   7    1.11    0.29
  14  -7   7    0.97    0.30
  16  -8  -7    1.92    0.39
  15  -8  -7    5.25    0.70
  14  -8  -7   24.55    1.56
  14  -8  -7   21.94    1.22
  13  -8  -7  152.19    4.14
  12  -8  -7   74.88    3.06
  11  -8  -7  121.11    4.02
  10  -8  -7    1.56    0.66
   9  -8  -7  167.72    4.80
   9   8  -7  174.99    4.07
   8  -8  -7    3.21    0.73
   8   8  -7    2.45    0.56
   8   8  -7    3.34    0.67
   7   8  -7  110.95    3.37
   7  -8  -7  108.76    3.78
   7   8  -7  106.92    3.37
   7  -8  -7  107.94    3.79
   6  -8  -7    4.25    0.79
   6   8  -7    3.39    0.68
   6   8  -7    2.54    0.61
   6   8  -7    4.12    0.80
   5  -8  -7  397.27    7.28
   5   8  -7  405.91    6.70
   5  -8  -7  405.64    6.87
   5   8  -7  408.39    6.65
   5   8  -7  395.70    7.04
   4   8  -7   31.64    1.92
   4  -8  -7   33.72    1.93
   4   8  -7   31.83    1.87
   4  -8  -7   33.03    2.10
   4   8  -7   31.31    1.99
   3   8  -7  333.80    6.26
   3  -8  -7  337.82    6.66
   3   8  -7  328.51    5.91
   2  -8  -7  181.38    4.94
   2   8  -7  175.33    4.58
   2   8  -7  181.10    4.36
   2  -8  -7  181.84    4.25
   1  -8  -7   18.88    1.65
   1   8  -7   18.24    1.40
   1   8  -7   18.15    1.52
   1  -8  -7   16.62    1.34
   0   8  -7   21.77    1.64
   0   8  -7   28.44    1.72
   0  -8  -7   25.46    1.67
   0  -8  -7   26.30    1.93
  -1   8  -7  167.73    4.54
  -1  -8  -7  168.92    4.95
  -1  -8  -7  164.88    4.28
  -2  -8  -7    0.46    0.52
  -2   8  -7    1.48    0.56
  -2   8  -7    1.23    0.47
  -2  -8  -7    1.70    0.52
  -3   8  -7  246.84    5.51
  -3   8  -7  257.25    5.63
  -3  -8  -7  247.59    6.18
  -3  -8  -7  249.50    5.41
  -4   8  -7   12.38    1.28
  -4  -8  -7   11.89    1.43
  -4   8  -7   13.82    1.37
  -4  -8  -7   10.38    1.16
  -5   8  -7    0.07    0.39
  -5  -8  -7    0.44    0.40
  -6   8  -7    5.63    0.88
  -6  -8  -7    7.17    0.98
   7  -8   7   21.22    1.72
  -7  -8  -7   20.36    1.57
   8  -8   7  115.45    3.88
  -8  -8  -7  115.19    3.57
   9  -8   7   78.38    3.12
  -9  -8  -7   74.46    2.76
  10  -8   7    3.62    0.76
 -10  -8  -7    3.91    0.64
 -11  -8  -7    0.42    0.32
  11  -8   7    0.50    0.43
 -11  -8  -7    0.50    0.32
  12  -8   7   80.01    2.66
  13  -8   7    0.76    0.30
  13  -8   7    1.43    0.42
  14  -8   7    6.22    0.51
  14  -8   7    5.64    0.56
  16  -9  -7   55.78    1.67
  15  -9  -7   27.64    1.42
  14  -9  -7    5.16    0.73
  14  -9  -7    5.37    0.61
  13  -9  -7    1.03    0.51
  12  -9  -7   72.70    2.94
  11  -9  -7  115.45    3.84
  10  -9  -7  248.92    5.76
   9  -9  -7    3.54    0.81
   9   9  -7    3.09    0.64
   9   9  -7    2.56    0.58
   8   9  -7  191.75    4.29
   8  -9  -7  179.04    4.88
   8   9  -7  183.92    4.28
   7   9  -7   34.33    1.92
   7  -9  -7   37.12    2.18
   7   9  -7   36.98    2.00
   6   9  -7  634.59    8.35
   6  -9  -7  636.33    8.84
   6   9  -7  628.13    8.20
   5   9  -7   90.72    3.24
   5  -9  -7   91.64    3.53
   5  -9  -7   95.56    3.32
   5   9  -7   92.45    3.18
   5   9  -7   93.57    3.47
   4   9  -7    5.44    0.84
   4   9  -7    6.69    0.96
   4  -9  -7    7.84    1.10
   4   9  -7    6.88    1.01
   3   9  -7   16.42    1.45
   3  -9  -7   16.45    1.53
   3   9  -7   15.10    1.30
   2  -9  -7  121.76    4.16
   2   9  -7  118.63    3.81
   2   9  -7  124.01    3.65
   2  -9  -7  115.43    3.42
   1   9  -7    7.08    0.98
   1  -9  -7    7.19    0.91
   1  -9  -7    5.69    1.00
   0   9  -7   98.76    3.52
   0  -9  -7   96.36    3.25
   0  -9  -7   98.86    3.80
  -1   9  -7   52.24    2.58
  -1  -9  -7   51.75    2.44
  -1  -9  -7   48.84    2.72
  -2   9  -7   42.86    2.32
  -2  -9  -7   44.63    2.65
  -2  -9  -7   43.98    2.27
  -3   9  -7   24.43    1.75
  -3  -9  -7   24.98    2.02
  -3  -9  -7   23.68    1.71
  -4   9  -7    0.37    0.37
  -4  -9  -7    1.47    0.52
  -5   9  -7    0.41    0.42
  -5  -9  -7   -0.07    0.41
  -6   9  -7   10.59    1.11
   6  -9   7   12.38    1.30
  -6  -9  -7   13.30    1.31
   7  -9   7    0.55    0.46
  -7  -9  -7    1.42    0.55
   8  -9   7    5.04    0.87
  -8  -9  -7    5.69    0.85
   9  -9   7   11.02    1.22
  -9  -9  -7    9.70    1.01
  10  -9   7   10.23    1.12
 -10  -9  -7   10.23    0.96
 -11  -9  -7    0.21    0.28
  11  -9   7    0.03    0.36
 -11  -9  -7    0.23    0.28
  12  -9   7   85.77    2.36
  12  -9   7   83.59    2.63
  13  -9   7   10.26    0.72
  13  -9   7   10.30    0.85
  16 -10  -7  169.06    2.66
  15 -10  -7    1.75    0.41
  14 -10  -7   26.17    1.48
  13 -10  -7  196.69    4.41
  12 -10  -7  167.63    4.33
  11 -10  -7   51.44    2.51
  10 -10  -7   19.30    1.62
   9  10  -7  378.77    5.75
   9 -10  -7  364.86    6.84
   8  10  -7   71.86    2.66
   8 -10  -7   70.74    3.02
   7 -10  -7    2.25    0.55
   7  10  -7    1.70    0.49
   6  10  -7   25.74    1.71
   6 -10  -7   28.07    1.84
   6  10  -7   26.89    1.73
   5  10  -7  228.36    5.15
   5  10  -7  226.35    4.99
   4  10  -7  851.27   10.04
   4 -10  -7  858.31   11.00
   3  10  -7   29.37    1.92
   3 -10  -7   25.16    1.92
   2  10  -7   59.34    2.71
   2 -10  -7   56.97    2.88
   2 -10  -7   57.99    2.45
   1 -10  -7    0.73    0.54
   1  10  -7    0.02    0.37
   1 -10  -7    0.34    0.36
   0  10  -7  459.28    7.59
   0 -10  -7  460.72    7.16
   0 -10  -7  452.28    8.23
  -1  10  -7   12.83    1.31
  -1 -10  -7   14.00    1.32
  -1 -10  -7   13.50    1.48
  -2 -10  -7    1.02    0.54
  -2  10  -7    0.64    0.37
  -2 -10  -7    1.42    0.53
  -3  10  -7  113.30    3.71
  -3 -10  -7  114.39    3.73
  -4  10  -7   68.49    2.85
   4 -10   7   68.60    2.85
  -4 -10  -7   63.15    2.80
   5 -10   7    2.29    0.63
  -5  10  -7    1.15    0.38
  -5 -10  -7    1.33    0.54
   6 -10   7   34.81    2.11
  -6 -10  -7   37.87    2.14
   7 -10   7   21.76    1.67
  -7 -10  -7   22.26    1.62
   8 -10   7    4.09    0.78
  -8 -10  -7    4.87    0.78
   9 -10   7   28.06    1.83
  -9 -10  -7   26.49    1.59
  10 -10   7   48.86    2.29
 -10 -10  -7   47.61    1.94
  11 -10   7    6.83    0.84
 -11 -10  -7    6.55    0.66
  12 -10   7   44.99    1.59
  12 -10   7   44.27    1.84
  13 -10   7   17.69    1.03
  15 -11  -7   21.75    1.11
  14 -11  -7    0.58    0.35
  13 -11  -7    0.87    0.43
  12 -11  -7    1.02    0.54
  11 -11  -7   33.15    1.95
  10  11  -7   27.24    1.52
  10 -11  -7   24.19    1.73
   9 -11  -7    0.21    0.38
   9  11  -7   -0.95    0.52
   8  11  -7  352.00    5.82
   8 -11  -7  341.68    6.45
   7  11  -7   18.68    1.43
   7 -11  -7   17.09    1.47
   6  11  -7   23.33    1.63
   6 -11  -7   24.04    1.66
   5  11  -7   37.50    2.11
   4  11  -7    4.39    0.79
   3  11  -7    7.08    0.99
   2  11  -7    6.79    1.00
   2 -11  -7    6.02    0.83
   2 -11  -7    6.32    1.07
   1 -11  -7  189.12    5.37
   1  11  -7  193.15    4.91
   1 -11  -7  193.06    4.57
   0  11  -7   15.88    1.46
   0 -11  -7   14.91    1.33
  -1  11  -7   10.68    1.20
  -1 -11  -7    9.97    1.12
  -2  11  -7   14.63    1.38
  -2 -11  -7   12.00    1.23
  -3  11  -7    4.89    0.85
  -3 -11  -7    3.88    0.76
  -4  11  -7   30.25    1.88
  -4 -11  -7   30.04    1.94
  -5  11  -7   28.68    1.75
   5 -11   7   25.43    1.75
  -5 -11  -7   26.77    1.82
   6 -11   7   49.58    2.47
  -6 -11  -7   50.44    2.44
   7 -11   7   72.99    2.96
  -7 -11  -7   77.36    2.92
   8 -11   7    2.86    0.68
  -8 -11  -7    3.62    0.70
   9 -11   7   47.25    2.26
  -9 -11  -7   49.05    2.09
  10 -11   7    3.45    0.67
 -10 -11  -7    3.47    0.56
  11 -11   7   19.18    1.30
 -11 -11  -7   17.92    0.99
  12 -11   7   12.86    0.76
  12 -11   7   14.16    1.01
  13 -11   7   11.45    0.76
  15 -12  -7    8.90    0.64
  14 -12  -7   12.76    0.92
  14 -12  -7   12.40    0.76
  13 -12  -7   15.29    1.13
  12 -12  -7    6.96    0.84
  11 -12  -7    0.49    0.37
  10 -12  -7    2.40    0.59
  10  12  -7    4.38    0.79
   9  12  -7  178.68    3.92
   9 -12  -7  171.62    4.43
   8  12  -7   95.23    3.04
   8 -12  -7   94.99    3.30
   7  12  -7  429.65    6.65
   7 -12  -7  437.92    6.99
   6  12  -7  334.76    6.06
   5  12  -7  245.15    5.30
   4  12  -7   12.03    1.24
   3  12  -7  128.92    3.97
   2  12  -7   16.73    1.47
   2 -12  -7   16.28    1.31
   1  12  -7    1.23    0.58
   1 -12  -7    0.64    0.31
   0  12  -7   20.67    1.64
   0 -12  -7   18.58    1.48
  -1  12  -7    9.25    1.12
  -1 -12  -7   10.04    1.13
  -2  12  -7   42.11    2.26
  -2 -12  -7   43.71    2.30
  -3  12  -7   28.05    1.81
  -3 -12  -7   28.20    1.85
  -4  12  -7   10.70    1.11
  -4 -12  -7   10.99    1.19
  -5  12  -7    8.75    0.95
   5 -12   7    8.75    1.05
   6 -12   7   34.44    2.00
  -6 -12  -7   35.01    2.01
   7 -12   7   27.29    1.77
  -7 -12  -7   28.06    1.75
   8 -12   7   54.24    2.43
  -8 -12  -7   57.62    2.35
   9 -12   7    7.14    0.88
  -9 -12  -7    8.23    0.86
  10 -12   7   27.32    1.57
 -10 -12  -7   27.40    1.35
  11 -12   7   14.44    0.83
  11 -12   7   14.94    1.07
 -11 -12  -7   14.96    0.85
  12 -12   7   44.31    1.59
  14 -13  -7   14.34    0.87
  14 -13  -7   12.07    0.68
  13 -13  -7   60.96    2.03
  12 -13  -7    4.29    0.62
  11 -13  -7   14.48    1.17
  10 -13  -7   10.06    1.03
  10  13  -7   12.36    1.08
   9 -13  -7    3.88    0.69
   9  13  -7    4.94    0.86
   8  13  -7   16.91    1.33
   8 -13  -7   17.46    1.38
   7  13  -7   23.57    1.59
   6  13  -7   10.97    1.13
   5  13  -7    4.17    0.76
   4  13  -7   13.33    1.30
   3  13  -7   28.14    1.87
   2  13  -7   27.00    1.84
   2 -13  -7   29.41    1.73
   1  13  -7   39.03    2.21
   1 -13  -7   38.22    2.03
   0  13  -7    2.27    0.63
   0 -13  -7    1.95    0.57
  -1  13  -7   28.94    1.86
  -1 -13  -7   32.10    1.94
  -2  13  -7   22.65    1.64
  -2 -13  -7   25.07    1.75
  -3  13  -7    0.69    0.43
  -3 -13  -7    0.03    0.40
  -4  13  -7   17.54    1.34
  -4 -13  -7   14.89    1.36
  -5 -13  -7   77.99    2.98
   6 -13   7   12.81    1.20
  -6 -13  -7   12.11    1.19
   7 -13   7    0.73    0.41
  -7 -13  -7    0.53    0.39
   8 -13   7    1.60    0.48
  -8 -13  -7    1.28    0.43
   9 -13   7    2.62    0.56
  -9 -13  -7    2.55    0.48
  10 -13   7   22.96    1.33
 -10 -13  -7   22.27    1.08
 -10 -13  -7   23.97    1.19
  11 -13   7   74.59    2.14
  12 -13   7    1.76    0.33
  13 -14  -7    4.26    0.52
  12 -14  -7   20.54    1.18
  11 -14  -7   20.78    1.29
  11  14  -7   17.95    0.99
  10 -14  -7    3.43    0.59
  10  14  -7    6.44    0.85
   9 -14  -7    0.26    0.30
   9  14  -7    1.96    0.76
   8 -14  -7    5.13    0.73
   8  14  -7    5.86    0.85
   7  14  -7    8.90    1.04
   6  14  -7   25.84    1.66
   5  14  -7    3.12    0.73
   4  14  -7    0.78    0.51
   3  14  -7   13.36    1.30
   2  14  -7  193.24    4.75
   2 -14  -7  208.48    4.48
   1  14  -7   26.92    1.81
   1 -14  -7   30.87    1.82
   0  14  -7   36.52    2.06
   0 -14  -7   32.52    1.91
  -1  14  -7   56.74    2.52
  -1 -14  -7   55.81    2.52
  -2  14  -7   86.25    3.06
  -2 -14  -7   85.81    3.13
  -3  14  -7  121.06    3.49
  -3 -14  -7  124.03    3.75
  -4  14  -7    4.07    0.68
  -4 -14  -7    4.73    0.79
  -5 -14  -7    6.67    0.94
  -6 -14  -7    0.49    0.37
   7 -14   7   18.24    1.29
  -7 -14  -7   20.55    1.40
   8 -14   7   24.95    1.45
  -8 -14  -7   23.31    1.40
   9 -14   7    0.15    0.28
  -9 -14  -7    0.17    0.24
  10 -14   7   11.01    0.86
 -10 -14  -7   10.45    0.74
  11 -14   7    1.35    0.31
  12 -15  -7    2.52    0.42
  11 -15  -7   12.44    0.90
  11  15  -7   11.78    0.74
  10 -15  -7    3.28    0.53
  10  15  -7    2.60    0.52
   9  15  -7   10.41    1.07
   8  15  -7   62.49    2.34
   7  15  -7   21.51    1.46
   6  15  -7   45.61    2.15
   5  15  -7    0.67    0.50
   4  15  -7   98.98    3.28
   3  15  -7  155.94    4.13
   2  15  -7   44.28    2.24
   2 -15  -7   43.17    2.00
   1  15  -7  137.29    3.90
   1 -15  -7  137.51    3.68
   0  15  -7   66.70    2.69
   0 -15  -7   65.92    2.63
  -1  15  -7   35.40    1.94
  -1 -15  -7   37.41    2.01
  -2  15  -7   82.82    2.86
  -2 -15  -7   79.70    2.96
  -3  15  -7   14.25    1.16
  -3 -15  -7   13.91    1.26
  -4  15  -7   22.58    1.35
  -4 -15  -7   24.31    1.64
  -5 -15  -7  142.16    3.78
  -6 -15  -7   90.71    2.91
  -7 -15  -7   40.37    1.84
   8 -15   7    0.64    0.35
  -8 -15  -7    0.48    0.27
   9 -15   7    4.42    0.55
  -9 -15  -7    4.48    0.54
  10 -15   7    4.16    0.47
 -10 -15  -7    4.19    0.44
  11  16  -7   30.96    1.08
  10  16  -7   29.06    1.26
   9  16  -7   24.47    1.32
   8  16  -7   22.86    1.44
   7  16  -7   22.46    1.50
   6  16  -7   11.45    1.11
   5  16  -7   80.72    2.81
   4  16  -7  222.56    4.71
   3  16  -7  112.53    3.39
   2  16  -7  250.68    5.06
   2 -16  -7  252.61    4.61
   1  16  -7   98.35    3.18
   1 -16  -7  100.76    3.05
   0  16  -7   17.50    1.37
   0 -16  -7   18.57    1.37
  -1  16  -7   72.97    2.65
  -1 -16  -7   76.67    2.79
  -2  16  -7   73.35    2.54
  -2 -16  -7   74.59    2.77
  -3  16  -7    1.65    0.49
  -3 -16  -7    0.71    0.37
  -4 -16  -7   12.12    1.12
  -5 -16  -7   21.65    1.44
  -6 -16  -7   49.33    2.04
  -7 -16  -7   17.39    1.15
  -8 -16  -7   12.25    0.89
  -9 -16  -7   54.26    1.59
  10  17  -7    0.03    0.37
   9  17  -7   17.05    1.03
   8  17  -7   11.35    0.99
   7  17  -7    6.17    0.95
   6  17  -7   50.61    2.12
   5  17  -7    3.73    0.80
   4  17  -7   16.03    1.33
   3  17  -7    8.79    1.03
   2  17  -7   52.57    2.24
   1  17  -7    2.71    0.63
   1 -17  -7    2.18    0.55
   0  17  -7   73.95    2.58
   0 -17  -7   71.36    2.53
  -1  17  -7   17.09    1.22
  -1 -17  -7   18.01    1.31
  -2  17  -7   29.03    1.49
  -2 -17  -7   29.52    1.67
  -3  17  -7    1.07    0.42
  -3 -17  -7   -0.17    0.32
  -4 -17  -7   15.64    1.20
  -5 -17  -7   24.60    1.43
  -6 -17  -7   31.34    1.53
  -7 -17  -7    5.71    0.64
  -8 -17  -7    0.80    0.25
  10  18  -7    1.32    0.25
   9  18  -7   17.65    0.93
   8  18  -7   -1.06    0.55
   7  18  -7   79.36    2.32
   6  18  -7    3.21    0.77
   5  18  -7    3.92    0.86
   4  18  -7   18.91    1.39
   3  18  -7   13.23    1.19
   2  18  -7  153.59    3.58
   1  18  -7  228.16    4.29
   1 -18  -7  238.05    4.14
   0  18  -7   22.57    1.36
   0 -18  -7   21.85    1.32
  -1  18  -7   50.10    1.90
  -1 -18  -7   52.40    2.07
  -2  18  -7   57.88    1.91
  -2 -18  -7   61.04    2.23
  -3 -18  -7    0.28    0.31
  -4 -18  -7    1.04    0.38
  -5 -18  -7    5.74    0.67
  -6 -18  -7   24.07    1.23
  -7 -18  -7   26.32    1.18
  -8 -18  -7   16.73    0.80
   9  19  -7    1.21    0.26
   8  19  -7   14.78    0.85
   7  19  -7   29.29    1.30
   6  19  -7   24.25    1.29
   5  19  -7    2.72    0.65
   4  19  -7   45.93    1.84
   3  19  -7    3.68    0.79
   2  19  -7    4.77    0.80
   1  19  -7  108.43    2.74
   1 -19  -7  107.38    2.51
   0  19  -7   25.50    1.34
   0 -19  -7   22.89    1.24
  -1  19  -7   30.65    1.36
  -1 -19  -7   30.12    1.45
  -2  19  -7    0.47    0.31
  -2 -19  -7    0.45    0.29
  -3 -19  -7   31.82    1.47
  -3  19  -7   31.39    1.45
  -4 -19  -7    0.75    0.34
  -5 -19  -7    4.69    0.55
  -6 -19  -7   56.12    1.66
  -6  19  -7   54.47    1.71
  -7 -19  -7    8.04    0.57
  -7  19  -7    8.41    0.61
   8  20  -7    3.76    0.40
   7  20  -7  140.61    2.48
   6  20  -7   65.58    1.82
   5  20  -7   -1.11    0.50
   4  20  -7    0.30    0.36
   3  20  -7    6.34    0.71
   2  20  -7   48.22    1.68
   1  20  -7   47.34    1.64
   0  20  -7    3.18    0.50
   0 -20  -7    2.21    0.37
  -1  20  -7    0.69    0.32
  -1 -20  -7    0.74    0.27
  -2 -20  -7   58.89    1.80
  -3  20  -7   56.83    1.62
  -3 -20  -7   59.47    1.78
  -4  20  -7   26.00    1.09
  -4 -20  -7   28.08    1.18
  -5 -20  -7    1.02    0.26
   6  21  -7    6.32    0.51
   5  21  -7   -0.68    0.41
   3  21  -7   -0.61    0.41
   2  21  -7   -0.11    0.39
   1  21  -7   -0.14    0.30
  -1 -21  -7   55.93    1.43
  -2 -21  -7    2.05    0.32
  -3 -21  -7   29.07    1.04
  15   0  -8    4.57    0.55
  14   0  -8   72.45    2.44
  13   0  -8    3.62    0.66
  13   0  -8    3.07    0.51
  12   0  -8   34.26    2.01
  12   0  -8   34.03    1.77
  11   0  -8  309.71    6.23
  11   0  -8  309.68    5.64
  10   0  -8  311.99    6.40
  10   0  -8  317.62    6.00
   9   0  -8   35.96    2.22
   9   0  -8   33.67    2.04
   8   0  -8   25.69    1.88
   8   0  -8   25.20    1.77
   7   0  -8  148.41    4.40
   7   0  -8  146.38    4.23
   6   0  -8  813.97   10.13
   6   0  -8  831.79    9.16
   5   0  -8  211.32    4.99
   5   0  -8  205.13    5.05
   5   0  -8  209.32    4.54
   4   0  -8  735.99    9.36
   4   0  -8  741.16    9.19
   3   0  -8   44.41    2.29
   3   0  -8   44.63    2.22
   2   0  -8  110.39    3.54
   2   0  -8  110.35    3.42
   1   0  -8    4.76    0.74
   0   0  -8    6.14    0.82
   0   0  -8    5.99    0.87
  -1   0  -8    4.45    0.75
  -2   0  -8   84.85    3.22
  -3   0  -8  126.83    3.95
  -4   0  -8  139.43    4.16
  -5   0  -8   12.18    1.27
  -5   0  -8    9.37    1.11
  -6   0  -8    3.08    0.72
  -7   0  -8  198.61    5.01
  -8   0  -8  295.32    6.04
  -9   0  -8  324.25    6.13
 -10   0  -8    1.91    0.52
 -11   0  -8   84.92    2.74
  11   0   8   89.81    2.88
  12   0   8   42.47    1.73
  12   0   8   40.15    1.73
  13   0   8   22.10    1.11
  13   0   8   21.43    1.07
  16  -1  -8    0.17    0.19
  15   1  -8    0.19    0.21
  15  -1  -8    0.09    0.24
  14   1  -8    1.88    0.45
  14  -1  -8    1.10    0.38
  13   1  -8   16.54    1.28
  13  -1  -8   17.41    1.37
  13  -1  -8   15.97    1.11
  12   1  -8    9.13    1.06
  12  -1  -8    9.78    1.10
  12   1  -8   11.04    1.00
  12  -1  -8   10.01    1.01
  11   1  -8    0.65    0.45
  11  -1  -8    0.62    0.48
  11   1  -8    0.26    0.32
  11  -1  -8   -0.01    0.33
  10   1  -8   51.82    2.59
  10   1  -8   49.42    2.36
  10  -1  -8   51.18    2.45
  10  -1  -8   50.36    2.60
   9   1  -8   21.52    1.70
   9  -1  -8   21.44    1.75
   9   1  -8   20.71    1.58
   9  -1  -8   23.49    1.72
   8   1  -8  111.26    3.85
   8  -1  -8  110.67    3.88
   8   1  -8  119.22    3.80
   8  -1  -8  117.52    3.84
   7   1  -8    0.09    0.38
   7  -1  -8    0.32    0.42
   7   1  -8    0.72    0.48
   7  -1  -8    0.50    0.48
   6   1  -8    3.26    0.72
   6  -1  -8    2.74    0.66
   6   1  -8    2.40    0.65
   6  -1  -8    2.78    0.69
   6   1  -8    2.52    0.61
   5  -1  -8   66.27    2.88
   5   1  -8   64.88    2.84
   5   1  -8   65.20    2.77
   5  -1  -8   65.23    2.80
   5   1  -8   66.29    2.63
   4   1  -8    8.59    1.06
   4  -1  -8    9.33    1.09
   4  -1  -8    9.66    1.09
   4   1  -8    8.20    1.01
   4   1  -8    8.38    0.96
   3   1  -8   31.04    1.92
   3  -1  -8   30.44    1.89
   3   1  -8   32.33    1.89
   3  -1  -8   33.56    1.95
   3   1  -8   31.31    1.82
   2  -1  -8    2.72    0.64
   2   1  -8    2.68    0.57
   2  -1  -8    2.44    0.56
   2  -1  -8    3.53    0.65
   2   1  -8    3.25    0.62
   1   1  -8   26.94    1.67
   1  -1  -8   26.33    1.65
   1  -1  -8   24.44    1.66
   0   1  -8    0.46    0.33
   0  -1  -8    0.32    0.35
   0  -1  -8    0.68    0.36
  -1   1  -8    7.64    0.89
  -1  -1  -8    8.43    1.02
  -2  -1  -8   93.76    3.37
  -3   1  -8   10.11    1.14
  -3  -1  -8    8.81    1.08
  -4   1  -8    9.43    1.14
  -4  -1  -8   10.05    1.17
  -5   1  -8    0.82    0.54
  -5  -1  -8    0.99    0.52
  -6   1  -8   46.19    2.44
  -6  -1  -8   50.53    2.56
  -6  -1  -8   44.95    2.35
  -7   1  -8    1.90    0.64
  -7  -1  -8    2.37    0.63
  -8   1  -8  175.27    4.67
  -8  -1  -8  171.67    4.57
  -9   1  -8    0.19    0.45
  -9  -1  -8    0.39    0.49
 -10  -1  -8    9.70    1.06
 -10   1  -8    7.45    0.94
  11  -1   8  103.79    3.12
 -11  -1  -8  107.04    3.05
  11   1   8  106.97    3.10
  12   1   8    1.14    0.38
  12  -1   8    0.64    0.35
  12   1   8    0.50    0.34
  13   1   8   16.93    0.94
  13  -1   8   18.18    1.02
  13  -1   8   17.83    1.01
  13   1   8   16.98    0.91
  16  -2  -8   40.52    1.33
  15  -2  -8    9.60    0.83
  14   2  -8   56.89    2.03
  14  -2  -8   52.29    2.16
  13   2  -8   21.29    1.41
  13  -2  -8   19.73    1.46
  13  -2  -8   20.19    1.26
  12   2  -8   33.98    1.93
  12  -2  -8   32.09    1.98
  12   2  -8   34.56    1.70
  12  -2  -8   34.77    1.82
  11   2  -8    1.30    0.51
  11  -2  -8    0.76    0.47
  11   2  -8    1.26    0.43
  11  -2  -8    1.55    0.49
  10   2  -8    8.47    1.08
  10  -2  -8    8.52    1.13
  10   2  -8    8.97    1.03
  10  -2  -8    8.75    1.06
   9   2  -8   88.06    3.37
   9  -2  -8   86.51    3.43
   9   2  -8   90.37    3.22
   9  -2  -8   89.79    3.32
   8   2  -8    5.37    0.88
   8  -2  -8    5.53    0.93
   8   2  -8    6.66    0.91
   8  -2  -8    6.26    0.96
   7   2  -8  216.63    5.27
   7  -2  -8  208.02    5.28
   7   2  -8  213.87    5.02
   7  -2  -8  215.89    5.17
   6   2  -8   43.25    2.37
   6  -2  -8   40.84    2.31
   6   2  -8   41.16    2.22
   6  -2  -8   40.14    2.23
   6   2  -8   39.65    2.11
   5   2  -8   37.38    2.17
   5  -2  -8   36.77    2.17
   5   2  -8   37.24    2.02
   5   2  -8   36.76    2.09
   5  -2  -8   35.55    2.07
   5   2  -8   38.11    2.04
   4  -2  -8  264.89    5.37
   4   2  -8  269.16    5.67
   4  -2  -8  263.65    5.60
   4   2  -8  252.32    5.29
   4   2  -8  260.81    5.45
   4  -2  -8  264.87    5.54
   4   2  -8  260.80    5.31
   3   2  -8   -0.02    0.35
   3  -2  -8    0.93    0.46
   3  -2  -8    0.37    0.40
   3   2  -8    0.22    0.31
   3  -2  -8    0.08    0.34
   3   2  -8   -0.16    0.41
   2  -2  -8    8.77    1.04
   2  -2  -8    8.77    1.01
   2   2  -8    7.48    0.93
   2  -2  -8    7.21    0.92
   2  -2  -8    7.10    0.93
   1  -2  -8   43.46    2.26
   1   2  -8   48.30    2.24
   1  -2  -8   47.65    2.21
   1  -2  -8   43.03    2.19
   0   2  -8  249.37    5.08
   0   2  -8  253.80    5.05
   0  -2  -8  258.38    4.98
   0  -2  -8  254.32    5.34
   0  -2  -8  246.78    5.41
  -1   2  -8  361.53    6.31
  -1   2  -8  375.96    5.97
  -1  -2  -8  369.35    6.56
  -1  -2  -8  351.65    6.57
  -2   2  -8  261.02    5.49
  -2  -2  -8  254.72    5.78
  -2  -2  -8  248.47    5.45
  -3  -2  -8    3.96    0.84
  -3   2  -8    4.45    0.79
  -3  -2  -8    4.62    0.83
  -4  -2  -8   36.71    2.29
  -4   2  -8   38.65    2.22
  -4  -2  -8   35.13    2.10
  -5   2  -8  163.97    4.56
  -5  -2  -8  161.33    4.47
  -6   2  -8   53.20    2.66
  -6  -2  -8   53.48    2.56
  -7   2  -8    0.88    0.44
  -7  -2  -8    0.81    0.49
  -7  -2  -8    1.39    0.51
  -8   2  -8  161.65    4.48
  -8  -2  -8  162.78    4.43
  -9   2  -8   45.25    2.33
  -9  -2  -8   46.62    2.30
 -10   2  -8  341.00    5.96
 -10  -2  -8  352.83    5.94
  11  -2   8  106.02    3.18
 -11  -2  -8   98.41    2.88
  12   2   8    0.21    0.28
  12  -2   8   -0.14    0.28
  12   2   8    0.11    0.23
  13   2   8    0.20    0.21
  13  -2   8   -0.15    0.25
  13  -2   8    0.13    0.24
  13   2   8    0.04    0.21
  16  -3  -8   48.79    1.49
  15  -3  -8   12.57    0.94
  14   3  -8   10.81    0.86
  14  -3  -8    9.74    0.96
  13   3  -8    0.61    0.39
  13  -3  -8    1.11    0.50
  13  -3  -8    0.38    0.28
  12   3  -8    0.48    0.36
  12  -3  -8    0.18    0.38
  12   3  -8    0.44    0.34
  12  -3  -8    0.35    0.37
  11   3  -8    0.82    0.43
  11  -3  -8    1.19    0.55
  11   3  -8    1.13    0.38
  11  -3  -8    1.13    0.50
  10   3  -8    6.65    0.94
  10  -3  -8    6.70    1.01
  10   3  -8    7.29    0.93
  10  -3  -8    6.82    0.97
   9   3  -8    7.69    1.06
   9  -3  -8    6.59    1.02
   9   3  -8    7.19    0.96
   9  -3  -8    7.79    1.03
   8  -3  -8   30.29    2.04
   8   3  -8   34.21    2.10
   8   3  -8   33.49    2.00
   7   3  -8   79.20    3.17
   7  -3  -8   77.50    3.23
   7   3  -8   75.49    2.98
   6  -3  -8    0.52    0.38
   6   3  -8    0.72    0.50
   6  -3  -8    0.47    0.37
   6   3  -8    1.30    0.52
   6   3  -8    1.07    0.52
   5   3  -8   28.55    1.91
   5   3  -8   27.50    1.75
   5  -3  -8   28.25    1.91
   5   3  -8   28.45    1.84
   5   3  -8   27.04    1.79
   4  -3  -8   28.52    1.85
   4   3  -8   30.24    1.93
   4  -3  -8   30.20    1.92
   4   3  -8   29.03    1.83
   4   3  -8   30.56    1.88
   4   3  -8   30.92    1.90
   3  -3  -8  326.29    6.10
   3   3  -8  323.93    5.98
   3  -3  -8  319.57    6.00
   3  -3  -8  311.85    6.04
   3  -3  -8  318.45    5.62
   3   3  -8  310.68    5.93
   2  -3  -8   16.04    1.36
   2  -3  -8   13.93    1.33
   2   3  -8   13.67    1.25
   2  -3  -8   14.60    1.28
   2  -3  -8   14.57    1.27
   1  -3  -8   64.28    2.81
   1  -3  -8   71.91    2.78
   1   3  -8   72.46    2.76
   1  -3  -8   65.88    2.62
   1  -3  -8   66.41    2.70
   0   3  -8   29.59    1.78
   0   3  -8   30.49    1.77
   0  -3  -8   34.67    2.00
   0  -3  -8   28.83    1.92
  -1   3  -8   50.86    2.38
  -1   3  -8   52.99    2.28
  -1  -3  -8   51.36    2.46
  -1  -3  -8   49.19    2.56
  -2   3  -8   62.90    2.70
  -2   3  -8   62.89    2.42
  -2  -3  -8   61.86    2.94
  -2  -3  -8   61.94    2.75
  -3   3  -8   11.75    1.25
  -3  -3  -8   11.26    1.29
  -3  -3  -8    9.48    1.12
  -4  -3  -8    7.83    1.15
  -4   3  -8    9.53    1.12
  -4  -3  -8    8.84    1.08
  -5   3  -8   78.28    3.19
  -5  -3  -8   76.79    3.09
  -6   3  -8   98.01    3.59
  -6  -3  -8   97.60    3.44
  -7   3  -8   28.48    1.94
  -7  -3  -8   27.06    1.79
  -8   3  -8    0.46    0.42
  -8  -3  -8    0.94    0.48
  -8  -3  -8    1.00    0.45
  -9   3  -8   13.63    1.32
  -9  -3  -8   13.29    1.25
  10  -3   8   45.62    2.24
 -10  -3  -8   44.57    2.11
  11  -3   8   37.90    1.91
 -11  -3  -8   31.26    1.60
  12   3   8    8.03    0.71
  12  -3   8    8.74    0.86
  12   3   8    7.48    0.69
 -12  -3  -8    7.91    0.71
  13   3   8    5.24    0.48
  13  -3   8    5.45    0.59
  13  -3   8    5.58    0.62
  16  -4  -8    2.27    0.37
  15  -4  -8    0.44    0.27
  14  -4  -8  106.86    3.07
  14  -4  -8  103.09    2.43
  13   4  -8   53.77    2.04
  13  -4  -8   51.65    2.35
  13  -4  -8   51.98    2.03
  12   4  -8    4.99    0.72
  12  -4  -8    5.43    0.86
  12  -4  -8    5.73    0.80
  11   4  -8  115.29    3.51
  11  -4  -8  118.54    3.91
  11   4  -8  122.36    3.31
  11  -4  -8  121.84    3.67
  10   4  -8  113.79    3.62
  10  -4  -8  114.37    3.92
  10   4  -8  112.05    3.37
   9   4  -8  250.16    5.50
   9  -4  -8  246.70    5.82
   9   4  -8  252.26    5.25
   8   4  -8   98.28    3.50
   8  -4  -8   95.78    3.61
   8   4  -8  100.60    3.39
   7   4  -8  165.44    4.56
   7  -4  -8  168.13    4.73
   7   4  -8  170.90    4.45
   6   4  -8  142.15    3.84
   6   4  -8  137.76    4.15
   6  -4  -8  134.98    4.17
   6   4  -8  134.51    3.96
   6   4  -8  135.58    4.01
   5  -4  -8    5.82    0.91
   5   4  -8    7.41    1.01
   5  -4  -8    6.71    0.96
   5   4  -8    6.50    0.95
   5   4  -8    6.61    0.92
   5   4  -8    5.71    0.86
   4  -4  -8    7.87    1.03
   4  -4  -8    7.37    0.96
   4   4  -8    6.78    0.93
   4   4  -8    7.56    1.01
   4   4  -8    7.70    1.00
   3  -4  -8   33.95    1.98
   3   4  -8   32.59    1.98
   3   4  -8   34.02    1.96
   3  -4  -8   34.97    2.10
   3   4  -8   32.24    1.99
   2  -4  -8    4.27    0.73
   2  -4  -8    4.40    0.82
   2   4  -8    3.48    0.66
   2  -4  -8    4.05    0.74
   2  -4  -8    4.46    0.75
   1  -4  -8    3.06    0.71
   1  -4  -8    3.71    0.68
   1   4  -8    4.01    0.72
   1  -4  -8    4.06    0.73
   1  -4  -8    4.43    0.76
   0   4  -8  343.65    6.02
   0   4  -8  355.44    6.01
   0  -4  -8  333.59    6.16
   0  -4  -8  339.23    6.64
  -1   4  -8   41.47    2.17
  -1   4  -8   42.48    2.07
  -1  -4  -8   39.69    2.18
  -1  -4  -8   38.16    2.30
  -2   4  -8   25.12    1.75
  -2   4  -8   25.74    1.60
  -2  -4  -8   24.87    1.91
  -2  -4  -8   24.98    1.75
  -3   4  -8  153.16    4.35
  -3  -4  -8  143.93    4.62
  -3  -4  -8  146.66    4.25
  -4   4  -8  135.07    4.15
  -4  -4  -8  133.33    4.07
  -5   4  -8   27.95    1.93
  -5  -4  -8   25.44    1.80
  -6   4  -8  101.20    3.64
  -6  -4  -8  103.71    3.55
  -7   4  -8   12.00    1.29
  -7  -4  -8   11.10    1.19
  -8   4  -8    3.12    0.72
  -8  -4  -8    1.73    0.54
  -8  -4  -8    2.18    0.60
  -9   4  -8   29.27    1.87
  -9  -4  -8   28.96    1.79
  -9  -4  -8   28.76    1.68
  10  -4   8  429.37    6.75
 -10  -4  -8  411.37    6.21
  11   4   8   11.07    0.87
  11  -4   8   11.66    1.07
 -11  -4  -8   12.16    1.00
  12   4   8    3.84    0.47
 -12  -4  -8    3.68    0.51
  12  -4   8    4.17    0.62
  12   4   8    3.63    0.48
  13  -4   8   59.38    1.78
  13  -4   8   59.17    1.83
  16  -5  -8    0.51    0.23
  15  -5  -8    6.13    0.67
  14  -5  -8   10.53    0.99
  14  -5  -8    6.08    0.61
  13  -5  -8   47.53    2.22
  13  -5  -8   47.97    1.95
  12  -5  -8   22.76    1.66
  12  -5  -8   22.15    1.48
  11   5  -8   74.28    2.73
  11  -5  -8   73.23    3.06
  11   5  -8   73.87    2.50
  10   5  -8    3.10    0.65
  10  -5  -8    3.23    0.77
  10   5  -8    2.70    0.58
   9   5  -8    6.54    0.92
   9  -5  -8    6.25    1.00
   9   5  -8    6.49    0.88
   8   5  -8  147.42    4.23
   8  -5  -8  144.71    4.40
   8   5  -8  148.30    4.07
   7   5  -8  159.62    3.98
   7   5  -8  161.50    4.43
   7  -5  -8  161.18    4.62
   7   5  -8  157.50    4.26
   6   5  -8   13.61    1.22
   6  -5  -8   14.68    1.40
   6   5  -8   12.80    1.26
   5   5  -8  177.61    4.49
   5  -5  -8  180.81    4.72
   5  -5  -8  180.88    4.80
   5   5  -8  184.03    4.62
   5   5  -8  179.58    4.68
   4   5  -8  148.48    4.15
   4  -5  -8  150.15    4.19
   4   5  -8  150.73    4.14
   4   5  -8  142.48    4.20
   4  -5  -8  144.33    4.32
   3  -5  -8  268.06    5.44
   3   5  -8  264.88    5.65
   3   5  -8  255.91    5.37
   3  -5  -8  253.91    5.72
   3   5  -8  251.47    5.58
   2  -5  -8  166.11    4.68
   2   5  -8  166.88    4.55
   2   5  -8  167.77    4.30
   2  -5  -8  160.82    4.12
   2  -5  -8  178.65    4.34
   1  -5  -8   29.64    2.03
   1   5  -8   32.53    1.86
   1  -5  -8   30.62    1.79
   1  -5  -8   30.99    1.87
   0   5  -8   31.02    1.85
   0   5  -8   29.01    1.75
   0  -5  -8   27.83    1.81
   0  -5  -8   30.69    2.07
  -1   5  -8  532.74    7.80
  -1   5  -8  576.19    7.58
  -1  -5  -8  565.84    8.10
  -1  -5  -8  535.14    8.72
  -2   5  -8  675.97    8.95
  -2  -5  -8  653.37    9.86
  -2  -5  -8  671.14    8.97
  -3   5  -8  133.92    4.11
  -3  -5  -8  129.84    4.48
  -3  -5  -8  130.00    4.00
  -4   5  -8    1.45    0.54
  -4  -5  -8    0.14    0.36
  -5   5  -8   86.32    3.36
  -5  -5  -8   92.43    3.38
  -6   5  -8   98.32    3.60
  -6  -5  -8   96.57    3.42
  -7   5  -8    0.71    0.53
  -7  -5  -8    1.57    0.55
  -8   5  -8   70.12    2.95
  -8  -5  -8   70.84    2.76
  -9  -5  -8    6.11    0.86
   9  -5   8    5.15    0.87
  -9  -5  -8    5.65    0.79
  10  -5   8  251.95    5.12
 -10  -5  -8  243.58    4.69
  11  -5   8   14.47    1.18
 -11  -5  -8   12.35    0.97
  12  -5   8   24.30    1.37
 -12  -5  -8   23.56    1.11
  13  -5   8   46.63    1.54
  13  -5   8   44.35    1.56
  16  -6  -8    2.64    0.36
  15  -6  -8   37.42    1.56
  14  -6  -8    7.41    0.83
  14  -6  -8    8.16    0.70
  13  -6  -8   17.80    1.37
  13  -6  -8   19.20    1.23
  12  -6  -8    2.89    0.68
  12  -6  -8    2.36    0.55
  11  -6  -8    4.50    0.83
  11   6  -8    4.54    0.65
  10  -6  -8   17.11    1.51
  10   6  -8   17.70    1.29
   9  -6  -8  116.77    3.96
   9   6  -8  120.05    3.50
   8  -6  -8   27.41    1.94
   8   6  -8   28.27    1.78
   7   6  -8  377.01    6.16
   7  -6  -8  371.83    6.95
   7   6  -8  373.81    6.48
   6   6  -8   17.72    1.42
   6  -6  -8   16.84    1.49
   6   6  -8   16.29    1.40
   5   6  -8   18.51    1.50
   5  -6  -8   16.34    1.44
   5  -6  -8   16.29    1.51
   5   6  -8   19.22    1.52
   4   6  -8   63.76    2.77
   4  -6  -8   61.78    2.68
   4   6  -8   65.68    2.76
   4   6  -8   59.06    2.78
   4  -6  -8   65.42    2.97
   3  -6  -8   19.52    1.50
   3   6  -8   17.58    1.51
   3   6  -8   20.47    1.54
   3  -6  -8   18.15    1.60
   2  -6  -8  114.26    3.98
   2   6  -8  122.72    3.95
   2   6  -8  125.21    3.70
   2  -6  -8  124.64    3.64
   1  -6  -8   31.74    2.15
   1   6  -8   31.83    2.05
   1   6  -8   31.99    1.89
   1  -6  -8   31.46    1.81
   1  -6  -8   29.80    1.82
   0   6  -8    5.68    0.89
   0   6  -8    4.58    0.76
   0   6  -8    4.56    0.84
   0  -6  -8    4.34    0.86
   0  -6  -8    4.24    0.72
  -1   6  -8   32.31    1.96
  -1   6  -8   31.68    1.83
  -1  -6  -8   30.33    1.92
  -1  -6  -8   31.63    2.17
  -2   6  -8   29.75    1.92
  -2  -6  -8   29.35    1.91
  -2  -6  -8   31.13    2.22
  -3   6  -8   51.80    2.57
  -3  -6  -8   50.50    2.51
  -4   6  -8   85.29    3.34
  -4  -6  -8   80.97    3.18
  -5   6  -8  134.21    4.20
  -5  -6  -8  135.89    4.08
  -6   6  -8  122.53    4.00
  -6  -6  -8  125.33    3.87
  -7   6  -8    4.17    0.85
  -7   6  -8    3.61    0.70
  -7  -6  -8    4.46    0.75
  -8  -6  -8    7.23    0.92
   9  -6   8    9.61    1.11
  -9  -6  -8   10.22    1.05
  -9  -6  -8   10.48    1.02
  10  -6   8  356.91    6.00
 -10  -6  -8  337.42    5.36
  11  -6   8   11.16    1.03
 -11  -6  -8   10.59    0.87
  12  -6   8    8.75    0.83
 -12  -6  -8    9.56    0.68
  13  -6   8   11.58    0.74
  13  -6   8   12.37    0.82
  16  -7  -8   30.81    1.07
  15  -7  -8   10.18    0.80
  14  -7  -8   17.25    1.19
  14  -7  -8   16.31    0.95
  13  -7  -8   26.75    1.61
  13  -7  -8   27.61    1.44
  12  -7  -8   26.45    1.73
  11  -7  -8    0.11    0.47
  11   7  -8    0.15    0.23
  10  -7  -8    6.85    0.99
  10   7  -8    7.00    0.81
   9  -7  -8   30.54    2.03
   9   7  -8   29.48    1.73
   8   7  -8  162.47    3.83
   8  -7  -8  156.21    4.50
   8   7  -8  155.68    4.09
   7   7  -8  125.38    3.56
   7  -7  -8  121.49    3.95
   7   7  -8  115.49    3.58
   6   7  -8   11.45    1.14
   6  -7  -8   11.44    1.20
   6   7  -8   10.64    1.13
   5   7  -8   66.91    2.81
   5  -7  -8   68.34    2.85
   5   7  -8   74.20    2.92
   4   7  -8   18.46    1.52
   4  -7  -8   18.19    1.46
   4   7  -8   17.04    1.43
   3   7  -8   31.56    2.00
   3   7  -8   31.20    1.91
   3  -7  -8   34.45    2.20
   2   7  -8    3.09    0.67
   2  -7  -8    3.27    0.75
   2   7  -8    3.67    0.80
   2  -7  -8    3.00    0.59
   1  -7  -8  137.60    4.47
   1   7  -8  132.69    4.17
   1   7  -8  143.85    3.96
   1  -7  -8  138.03    3.91
   0  -7  -8  138.77    4.55
   0   7  -8  139.54    4.29
   0   7  -8  146.86    3.97
   0  -7  -8  142.64    4.04
  -1   7  -8   91.65    3.50
  -1   7  -8   90.71    3.25
  -1  -7  -8   93.41    3.32
  -2   7  -8   48.02    2.53
  -2   7  -8   45.46    2.37
  -2  -7  -8   47.27    2.40
  -3   7  -8   43.55    2.42
  -3   7  -8   46.55    2.43
  -3  -7  -8   44.46    2.35
  -4   7  -8   24.13    1.79
  -4   7  -8   23.66    1.77
  -4  -7  -8   25.89    1.81
  -5   7  -8   32.09    2.00
  -5   7  -8   30.54    2.02
  -5  -7  -8   30.69    1.97
  -6   7  -8   58.74    2.58
  -6  -7  -8   56.82    2.61
  -7   7  -8   26.09    1.64
  -7  -7  -8   23.69    1.65
   8  -7   8    1.31    0.46
  -8  -7  -8    1.57    0.48
  -9  -7  -8    1.84    0.48
   9  -7   8    3.01    0.64
  -9  -7  -8    3.65    0.64
  10  -7   8   15.93    1.30
 -10  -7  -8   14.20    1.09
 -10  -7  -8   15.09    1.07
  11  -7   8   25.52    1.47
 -11  -7  -8   23.02    1.20
  12  -7   8    2.51    0.47
  12  -7   8    1.48    0.40
  13  -7   8    0.91    0.24
  13  -7   8    0.44    0.22
  15  -8  -8    1.40    0.33
  14  -8  -8    1.83    0.43
  14  -8  -8    2.66    0.40
  13  -8  -8    0.07    0.31
  13  -8  -8    0.39    0.29
  12  -8  -8    3.30    0.65
  11  -8  -8   55.48    2.52
  10  -8  -8   85.56    3.21
  10   8  -8   84.25    2.64
   9  -8  -8    0.37    0.43
   9   8  -8    0.43    0.35
   8   8  -8   48.96    2.12
   8  -8  -8   44.28    2.37
   8   8  -8   47.51    2.22
   7   8  -8   60.91    2.50
   7  -8  -8   59.16    2.73
   7   8  -8   58.99    2.54
   6   8  -8   37.25    2.03
   6  -8  -8   39.33    2.19
   6   8  -8   35.69    2.03
   5   8  -8    9.25    1.08
   5  -8  -8    7.93    1.02
   5   8  -8    8.33    1.02
   4   8  -8  223.16    5.22
   4  -8  -8  228.60    4.95
   4   8  -8  223.22    5.08
   3   8  -8   69.90    2.96
   3   8  -8   69.55    2.83
   2   8  -8   10.50    1.22
   2   8  -8   12.13    1.21
   2  -8  -8   10.13    1.06
   1   8  -8   64.47    2.91
   1   8  -8   65.49    2.71
   1  -8  -8   62.68    2.65
   0   8  -8    3.09    0.75
   0  -8  -8    2.62    0.62
  -1   8  -8  234.83    5.55
  -1  -8  -8  232.59    5.24
  -2   8  -8   16.67    1.51
  -2  -8  -8   17.39    1.47
  -3   8  -8   26.23    1.87
  -3  -8  -8   26.93    1.83
  -4   8  -8   11.98    1.27
  -4  -8  -8    8.57    1.06
  -5   8  -8  119.42    3.73
  -5  -8  -8  120.59    3.82
  -6   8  -8    5.32    0.81
  -6  -8  -8    4.04    0.76
  -7   8  -8   17.81    1.32
   7  -8   8   18.73    1.52
  -7  -8  -8   18.02    1.43
   8  -8   8    5.21    0.83
  -8  -8  -8    5.70    0.79
   9  -8   8   49.42    2.28
  -9  -8  -8   48.75    2.05
  10  -8   8   78.42    2.69
 -10  -8  -8   74.67    2.34
 -10  -8  -8   74.82    2.26
 -11  -8  -8    1.78    0.38
  11  -8   8    1.38    0.44
  12  -8   8    1.07    0.31
  12  -8   8    0.99    0.35
  15  -9  -8    1.13    0.29
  14  -9  -8    4.56    0.59
  14  -9  -8    4.66    0.50
  13  -9  -8   63.03    2.30
  13  -9  -8   64.66    2.08
  12  -9  -8    1.47    0.50
  11  -9  -8  139.93    3.88
  10  -9  -8    0.80    0.45
   9  -9  -8    2.28    0.58
   9   9  -8    3.38    0.62
   8   9  -8  119.96    3.30
   8  -9  -8  111.42    3.67
   8   9  -8  115.00    3.37
   7   9  -8  126.74    3.59
   7  -9  -8  124.82    3.86
   7   9  -8  129.78    3.68
   6   9  -8  188.83    4.56
   6  -9  -8  186.62    4.64
   6   9  -8  183.89    4.52
   5  -9  -8   -0.15    0.36
   5   9  -8   -0.12    0.39
   5   9  -8   -0.50    0.56
   4   9  -8  319.72    6.21
   4   9  -8  322.86    6.06
   3   9  -8   92.49    3.42
   3   9  -8   90.78    3.23
   2   9  -8   67.90    2.96
   2  -9  -8   68.16    2.66
   1   9  -8    2.07    0.63
   1  -9  -8    2.36    0.57
   0   9  -8    0.70    0.47
   0  -9  -8    0.08    0.33
  -1   9  -8   31.64    2.06
  -1  -9  -8   30.25    1.91
  -2   9  -8    0.58    0.49
  -2  -9  -8    1.97    0.64
  -3   9  -8   72.57    3.03
  -3  -9  -8   75.61    3.02
  -4   9  -8    0.77    0.49
  -4  -9  -8    1.78    0.54
  -5   9  -8    9.36    1.07
   5  -9   8    8.89    1.07
  -5  -9  -8   11.13    1.20
  -6   9  -8   52.41    2.29
   6  -9   8   54.57    2.53
  -6  -9  -8   53.56    2.47
   7  -9   8  106.09    3.47
  -7  -9  -8  104.47    3.31
   8  -9   8    4.40    0.74
  -8  -9  -8    4.75    0.71
   9  -9   8    5.17    0.76
  -9  -9  -8    6.05    0.72
 -10  -9  -8    4.67    0.59
  10  -9   8    4.09    0.65
 -10  -9  -8    4.89    0.60
 -11  -9  -8    3.39    0.44
  11  -9   8    3.47    0.54
  12  -9   8   18.03    0.87
  12  -9   8   16.53    0.96
  15 -10  -8    1.04    0.23
  14 -10  -8   31.13    1.36
  14 -10  -8   27.02    1.05
  13 -10  -8    0.59    0.33
  13 -10  -8    0.83    0.31
  12 -10  -8   34.72    1.76
  11 -10  -8   35.51    1.89
  10 -10  -8   26.93    1.70
   9  10  -8   69.11    2.34
   9 -10  -8   70.10    2.80
   8 -10  -8    4.95    0.83
   8  10  -8    5.33    0.76
   7 -10  -8    0.20    0.36
   7  10  -8    0.02    0.42
   6  10  -8   11.79    1.17
   6 -10  -8   13.25    1.23
   5  10  -8   68.95    2.83
   4  10  -8   25.89    1.79
   3  10  -8   25.57    1.82
   2  10  -8    6.25    0.98
   2 -10  -8    5.98    0.82
   1  10  -8  425.29    7.39
   1 -10  -8  421.08    6.70
   0  10  -8  250.42    5.67
   0 -10  -8  244.28    5.25
  -1  10  -8   88.73    3.37
  -1 -10  -8   88.97    3.22
  -2  10  -8    2.82    0.73
  -2 -10  -8    2.14    0.59
  -3  10  -8    0.69    0.50
  -3 -10  -8    0.92    0.45
  -4  10  -8   38.90    2.12
   4 -10   8   42.15    2.15
  -4 -10  -8   40.32    2.20
  -5  10  -8    9.09    1.00
   5 -10   8   12.46    1.23
  -5 -10  -8   10.10    1.13
   6 -10   8    2.62    0.63
  -6  10  -8    1.94    0.52
  -6 -10  -8    2.42    0.66
   7 -10   8   12.25    1.18
  -7 -10  -8   11.21    1.10
   8 -10   8    1.84    0.55
  -8 -10  -8    1.71    0.45
   9 -10   8    6.04    0.80
  -9 -10  -8    5.13    0.67
  10 -10   8   23.87    1.38
 -10 -10  -8   25.34    1.23
 -10 -10  -8   23.56    1.17
  11 -10   8    0.77    0.25
  11 -10   8    0.89    0.35
  12 -10   8   56.49    1.58
  14 -11  -8   44.90    1.48
  14 -11  -8   37.67    1.12
  13 -11  -8   77.52    2.24
  13 -11  -8   77.87    2.06
  12 -11  -8   14.81    1.10
  11 -11  -8    0.50    0.41
  10 -11  -8   -0.08    0.37
   9  11  -8   23.15    1.36
   9 -11  -8   27.07    1.68
   8  11  -8  113.38    3.14
   8 -11  -8  109.33    3.38
   7  11  -8   16.34    1.30
   7 -11  -8   16.69    1.33
   6  11  -8   57.11    2.48
   5  11  -8   15.30    1.34
   4  11  -8   22.40    1.66
   3  11  -8   63.19    2.78
   2  11  -8  501.86    7.90
   2 -11  -8  509.04    7.10
   1  11  -8    1.88    0.62
   1 -11  -8    2.29    0.59
   0  11  -8   25.45    1.80
   0 -11  -8   27.41    1.76
  -1  11  -8   26.46    1.84
  -1 -11  -8   25.80    1.74
  -2  11  -8   11.16    1.22
  -2 -11  -8   10.59    1.16
  -3  11  -8   99.89    3.39
  -3 -11  -8   99.82    3.41
  -4  11  -8  113.03    3.47
  -4 -11  -8  119.14    3.67
   5 -11   8    4.15    0.74
  -5  11  -8    3.42    0.64
  -5 -11  -8    4.18    0.76
   6 -11   8    1.81    0.50
  -6 -11  -8    2.02    0.56
   7 -11   8    2.95    0.62
  -7 -11  -8    2.37    0.54
   8 -11   8   60.10    2.34
  -8 -11  -8   58.48    2.20
   9 -11   8    2.36    0.51
  -9 -11  -8    2.56    0.48
  10 -11   8   18.64    1.15
 -10 -11  -8   17.64    0.95
 -10 -11  -8   18.29    0.97
  11 -11   8    0.38    0.27
  13 -12  -8    5.51    0.58
  13 -12  -8    5.16    0.53
  12 -12  -8    6.35    0.68
  11 -12  -8   25.80    1.44
  10 -12  -8    0.66    0.38
  10  12  -8    2.93    0.63
   9  12  -8   27.08    1.44
   9 -12  -8   24.14    1.50
   8  12  -8   24.72    1.47
   8 -12  -8   25.06    1.54
   7 -12  -8    2.76    0.54
   7  12  -8    3.21    0.68
   6  12  -8    9.27    1.02
   5  12  -8    1.00    0.45
   4  12  -8    0.09    0.40
   3  12  -8    2.97    0.67
   2  12  -8   77.11    3.07
   2 -12  -8   80.49    2.78
   1  12  -8   -0.07    0.52
   1 -12  -8    0.48    0.35
   0  12  -8   69.49    2.90
   0 -12  -8   68.93    2.74
  -1  12  -8  109.17    3.59
  -1 -12  -8  107.57    3.47
  -2  12  -8  107.04    3.49
  -2 -12  -8  108.30    3.49
  -3  12  -8    0.41    0.41
  -3 -12  -8    0.79    0.52
  -4  12  -8   37.76    1.93
  -4 -12  -8   38.17    2.06
  -5  12  -8    2.22    0.49
  -5 -12  -8    2.27    0.61
   6 -12   8   94.91    2.93
  -6 -12  -8   91.61    2.98
   7 -12   8    8.54    0.90
  -7 -12  -8    7.45    0.85
   8 -12   8   12.82    1.04
  -8 -12  -8   13.33    1.03
   9 -12   8    0.72    0.35
  -9 -12  -8    0.40    0.26
  10 -12   8   12.78    0.87
 -10 -12  -8   12.80    0.73
 -10 -12  -8   12.15    0.74
  13 -13  -8  139.16    2.32
  13 -13  -8  139.89    2.32
  12 -13  -8  104.93    2.36
  11 -13  -8   37.41    1.56
  10 -13  -8   70.06    2.25
  10  13  -8   76.96    2.05
   9  13  -8   10.44    0.96
   9 -13  -8    8.03    0.84
   8  13  -8  107.01    2.89
   8 -13  -8  108.34    2.94
   7  13  -8   86.05    2.77
   6  13  -8   12.20    1.15
   5  13  -8  210.95    4.67
   4  13  -8  327.18    5.95
   3  13  -8  148.55    4.09
   2  13  -8   24.38    1.70
   2 -13  -8   23.70    1.49
   1  13  -8   18.28    1.50
   1 -13  -8   17.25    1.33
   0  13  -8   10.22    1.13
   0 -13  -8   10.04    1.04
  -1  13  -8   23.81    1.65
  -1 -13  -8   24.11    1.63
  -2  13  -8   64.36    2.61
  -2 -13  -8   64.26    2.64
  -3  13  -8    8.83    0.96
  -3 -13  -8    9.31    1.03
  -4  13  -8   46.76    2.01
  -4 -13  -8   44.90    2.17
  -5  13  -8   17.86    1.17
  -5 -13  -8   18.19    1.37
  -6 -13  -8    0.23    0.37
   7 -13   8    0.66    0.35
  -7 -13  -8    1.15    0.43
   8 -13   8   20.42    1.18
  -8 -13  -8   21.58    1.23
  -9 -13  -8    1.08    0.28
   9 -13   8    1.51    0.37
  -9 -13  -8    1.21    0.31
  11 -14  -8   25.81    1.13
  10 -14  -8    2.68    0.45
  10  14  -8    4.29    0.56
   9  14  -8    7.12    0.82
   8  14  -8    1.30    0.58
   7  14  -8    1.57    0.53
   6  14  -8   31.92    1.73
   5  14  -8   38.25    1.96
   4  14  -8   51.99    2.32
   3  14  -8  353.55    6.08
   2  14  -8   13.92    1.26
   2 -14  -8   13.41    1.09
   1  14  -8   15.23    1.32
   1 -14  -8   15.01    1.20
   0  14  -8    5.78    0.86
   0 -14  -8    5.08    0.76
  -1  14  -8    5.07    0.76
  -1 -14  -8    5.47    0.80
  -2  14  -8    6.11    0.80
  -2 -14  -8    6.31    0.87
  -3  14  -8   45.11    1.97
  -3 -14  -8   46.51    2.15
  -4  14  -8    0.41    0.31
  -4 -14  -8    0.07    0.35
  -5 -14  -8   14.24    1.15
  -6 -14  -8    0.13    0.32
  -7 -14  -8   21.63    1.26
  -8 -14  -8    0.02    0.23
  -9 -14  -8   -0.28    0.24
  12 -15  -8   63.06    1.51
  10  15  -8   -0.75    0.42
   9  15  -8   81.49    2.13
   8  15  -8   48.47    1.83
   7  15  -8   27.37    1.51
   6  15  -8   13.80    1.13
   5  15  -8   37.78    1.86
   4  15  -8   39.51    1.96
   3  15  -8   64.11    2.50
   2  15  -8  159.66    3.97
   1  15  -8    8.64    0.97
   1 -15  -8    8.41    0.89
   0  15  -8   42.87    2.03
   0 -15  -8   42.13    1.94
  -1  15  -8    0.38    0.34
  -1 -15  -8    0.73    0.33
  -2  15  -8    5.84    0.74
  -2 -15  -8    6.01    0.79
  -3  15  -8   10.15    0.89
  -3 -15  -8    9.52    0.97
  -4  15  -8   12.31    0.90
  -4 -15  -8   12.04    1.04
  -5 -15  -8   52.55    2.05
  -6 -15  -8   25.63    1.38
  -7 -15  -8   20.12    1.13
  -8 -15  -8   86.88    2.06
  10  16  -8    1.08    0.22
   9  16  -8   -0.55    0.39
   8  16  -8    5.63    0.72
   7  16  -8    2.62    0.71
   6  16  -8   11.99    1.08
   5  16  -8   10.32    1.02
   4  16  -8    2.26    0.66
   3  16  -8    9.43    0.99
   2  16  -8    6.78    0.89
   1  16  -8   86.72    2.75
   1 -16  -8   85.70    2.52
   0  16  -8   12.45    1.06
   0 -16  -8   11.94    0.99
  -1  16  -8   12.29    1.01
  -1 -16  -8   12.67    1.04
  -2  16  -8   11.16    0.92
  -2 -16  -8   11.20    0.98
  -3  16  -8   34.85    1.46
  -3 -16  -8   35.69    1.70
  -4 -16  -8   95.62    2.70
  -5 -16  -8    1.22    0.39
  -6 -16  -8    0.57    0.30
  -7 -16  -8    1.41    0.33
  -8 -16  -8   20.19    0.88
   9  17  -8   27.83    1.02
   8  17  -8   20.75    1.04
   7  17  -8   46.05    1.68
   6  17  -8   36.68    1.61
   5  17  -8    9.75    1.02
   4  17  -8   14.49    1.14
   3  17  -8    3.73    0.70
   2  17  -8   17.54    1.22
   1  17  -8   50.85    1.97
   1 -17  -8   46.59    1.71
   0  17  -8    3.67    0.63
   0 -17  -8    1.80    0.41
  -1  17  -8    2.32    0.51
  -1 -17  -8    1.17    0.37
  -2  17  -8    9.22    0.78
  -2 -17  -8    7.75    0.77
  -3  17  -8    1.47    0.41
  -3 -17  -8    1.44    0.39
  -4 -17  -8    4.48    0.58
  -5 -17  -8   11.05    0.83
  -6 -17  -8   56.37    1.69
  -7 -17  -8   24.26    0.98
   8  18  -8    8.70    0.60
   7  18  -8    7.55    0.66
   6  18  -8    1.52    0.53
   5  18  -8   37.88    1.56
   4  18  -8   25.15    1.36
   3  18  -8  127.38    2.89
   2  18  -8    1.76    0.61
   1  18  -8   45.33    1.71
   0  18  -8    4.86    0.68
   0 -18  -8    4.24    0.52
  -1  18  -8   33.87    1.36
  -1 -18  -8   33.11    1.39
  -2  18  -8   18.31    0.92
  -2 -18  -8   16.46    1.00
  -3 -18  -8   10.77    0.81
  -3  18  -8   11.40    0.77
  -4 -18  -8   12.37    0.82
  -5 -18  -8   49.71    1.52
  -5  18  -8   45.97    1.41
  -6 -18  -8   81.60    1.74
   7  19  -8   -0.43    0.39
   6  19  -8   25.01    1.06
   5  19  -8   86.08    2.03
   4  19  -8    1.04    0.43
   3  19  -8   26.38    1.21
   2  19  -8   10.42    0.81
   1  19  -8   88.48    2.08
   0  19  -8    6.52    0.63
   0 -19  -8    4.37    0.44
  -1 -19  -8   23.56    1.02
  -1  19  -8   24.75    0.97
  -2 -19  -8    2.23    0.35
  -3 -19  -8   10.65    0.69
  -4 -19  -8   60.26    1.51
   5  20  -8    4.67    0.43
   4  20  -8   19.70    0.87
   3  20  -8   31.63    1.11
   2  20  -8    8.94    0.60
   1  20  -8   10.58    0.62
  14   0  -9    0.07    0.22
  13   0  -9    0.06    0.25
  13   0  -9    0.71    0.29
  12   0  -9    0.18    0.30
  12   0  -9    0.10    0.25
  11   0  -9    0.13    0.33
  11   0  -9    0.15    0.29
  10   0  -9   -0.11    0.35
  10   0  -9    0.06    0.33
   9   0  -9   -0.14    0.44
   9   0  -9    0.01    0.36
   8   0  -9   -0.06    0.40
   8   0  -9    0.15    0.37
   7   0  -9    0.40    0.45
   7   0  -9    0.20    0.44
   6   0  -9    0.99    0.54
   6   0  -9    0.38    0.43
   5   0  -9    1.22    0.61
   5   0  -9    0.25    0.48
   4   0  -9    0.56    0.42
   4   0  -9    0.00    0.42
   3   0  -9    0.71    0.43
   2   0  -9   -0.04    0.34
   1   0  -9    0.21    0.36
   0   0  -9    0.68    0.49
   0   0  -9    0.61    0.43
  -1   0  -9    0.30    0.32
  -2   0  -9    0.19    0.37
  -3   0  -9    1.56    0.60
  -4   0  -9    0.82    0.53
  -5   0  -9    1.05    0.62
  -6   0  -9    0.51    0.48
  -7   0  -9   -0.08    0.42
  -8   0  -9    0.52    0.48
  -9   0  -9    0.19    0.35
 -10   0  -9   -0.21    0.36
  11   0   9    0.44    0.32
  12   0   9    0.54    0.24
  12   0   9    0.16    0.20
  14  -1  -9    1.60    0.39
  13   1  -9    2.97    0.54
  13  -1  -9    2.32    0.49
  13   1  -9    2.82    0.43
  13  -1  -9    2.15    0.40
  12   1  -9   22.94    1.46
  12  -1  -9   20.39    1.42
  12   1  -9   21.34    1.26
  12  -1  -9   22.94    1.35
  11   1  -9    2.35    0.60
  11  -1  -9    2.44    0.60
  11   1  -9    4.01    0.65
  11  -1  -9    3.28    0.59
  10   1  -9    7.95    1.01
  10  -1  -9    6.36    0.89
  10  -1  -9    8.96    1.00
  10   1  -9    7.15    0.89
   9   1  -9   37.12    2.13
   9  -1  -9   33.38    2.06
   9   1  -9   35.60    2.00
   9  -1  -9   34.10    1.99
   8   1  -9    5.14    0.87
   8  -1  -9    5.37    0.90
   8   1  -9    5.95    0.88
   8  -1  -9    7.02    0.95
   7   1  -9   18.68    1.57
   7  -1  -9   18.07    1.54
   7   1  -9   18.55    1.50
   7  -1  -9   18.47    1.52
   6   1  -9  130.93    4.09
   6  -1  -9  127.99    4.04
   6   1  -9  130.56    3.95
   6  -1  -9  131.81    4.02
   5   1  -9  994.03   11.17
   5  -1  -9 1012.46   11.22
   5   1  -9 1000.65   10.27
   5   1  -9  986.05   10.88
   5  -1  -9  985.26   10.93
   4  -1  -9   19.19    1.57
   4   1  -9   20.77    1.58
   4   1  -9   17.50    1.48
   4  -1  -9   19.57    1.56
   3   1  -9    2.81    0.67
   3  -1  -9    1.92    0.55
   2   1  -9   87.21    3.11
   2  -1  -9   86.00    3.07
   1   1  -9  129.51    3.69
   1  -1  -9  129.52    3.67
   0   1  -9  538.16    7.60
   0   1  -9  523.90    7.27
   0  -1  -9  527.89    7.21
  -1   1  -9   15.58    1.37
  -1   1  -9   15.96    1.24
  -2   1  -9    5.52    0.86
  -3   1  -9  378.73    6.77
  -4   1  -9  528.63    8.08
  -4  -1  -9  528.94    8.07
  -5   1  -9  708.56    9.31
  -5  -1  -9  702.80    9.29
  -6   1  -9  216.09    5.14
  -6  -1  -9  215.99    5.07
  -7   1  -9    0.98    0.46
  -7  -1  -9    1.15    0.56
  -8   1  -9   14.51    1.28
  -8  -1  -9   14.86    1.29
  -9   1  -9    6.29    0.83
  -9  -1  -9    7.08    0.86
 -10  -1  -9   29.08    1.53
  10  -1   9   31.28    1.64
  11   1   9    3.65    0.48
  11  -1   9    4.09    0.58
  11   1   9    3.41    0.51
  12  -1   9    0.21    0.19
  12  -1   9   -0.07    0.22
  12   1   9    0.17    0.19
  15  -2  -9    0.90    0.25
  14  -2  -9    5.72    0.64
  13  -2  -9    0.35    0.33
  13  -2  -9    0.06    0.20
  12   2  -9    2.25    0.53
  12  -2  -9    2.66    0.58
  12   2  -9    2.21    0.43
  12  -2  -9    1.83    0.43
  11   2  -9    4.77    0.74
  11  -2  -9    5.44    0.83
  11   2  -9    4.84    0.69
  11  -2  -9    5.08    0.74
  10   2  -9    5.19    0.81
  10  -2  -9    4.76    0.80
  10   2  -9    3.54    0.65
  10  -2  -9    5.27    0.81
   9   2  -9   95.02    3.38
   9  -2  -9   97.98    3.48
   9   2  -9   92.54    3.18
   9  -2  -9   97.86    3.36
   8   2  -9   86.45    3.29
   8  -2  -9   83.39    3.26
   8   2  -9   83.26    3.09
   8  -2  -9   80.99    3.14
   7   2  -9   25.34    1.82
   7  -2  -9   25.69    1.84
   7   2  -9   26.03    1.79
   7  -2  -9   27.72    1.87
   6   2  -9  121.47    3.93
   6  -2  -9  114.89    3.83
   6   2  -9  114.90    3.70
   6  -2  -9  112.64    3.72
   5  -2  -9   18.45    1.56
   5   2  -9   18.88    1.45
   5   2  -9   18.20    1.51
   5  -2  -9   18.59    1.57
   4  -2  -9    0.82    0.46
   4   2  -9    0.94    0.41
   4  -2  -9    0.95    0.44
   4   2  -9    1.08    0.55
   3  -2  -9   51.68    2.48
   3   2  -9   50.30    2.50
   3   2  -9   52.78    2.47
   3  -2  -9   51.17    2.42
   2   2  -9   10.91    1.13
   2  -2  -9   10.08    1.08
   1   2  -9    1.20    0.45
   1  -2  -9    2.40    0.55
   0   2  -9   19.22    1.47
   0   2  -9   17.94    1.38
   0  -2  -9   18.46    1.37
   0  -2  -9   17.45    1.49
  -1   2  -9   78.50    3.03
  -1  -2  -9   81.68    3.18
  -2   2  -9  264.00    5.57
  -2  -2  -9  248.53    5.58
  -3   2  -9  140.40    4.12
  -3  -2  -9  136.52    4.14
  -4   2  -9   17.51    1.53
  -4  -2  -9   17.45    1.52
  -5   2  -9   14.64    1.38
  -5  -2  -9   12.58    1.30
  -5  -2  -9   12.78    1.29
  -6   2  -9   39.13    2.22
  -6  -2  -9   40.38    2.21
  -7   2  -9   10.61    1.18
  -7  -2  -9    9.75    1.11
  -8   2  -9   18.10    1.44
  -8  -2  -9   17.05    1.36
  -9   2  -9   36.96    1.90
  -9  -2  -9   41.03    1.96
  10  -2   9   31.83    1.65
 -10  -2  -9   29.61    1.53
  11   2   9    4.93    0.52
  11   2   9    5.47    0.61
  11  -2   9    4.99    0.62
  12  -2   9    1.83    0.32
  12  -2   9    2.12    0.36
  15  -3  -9   18.94    0.92
  14  -3  -9  101.83    2.55
  14  -3  -9   96.12    1.93
  13  -3  -9    0.97    0.37
  13  -3  -9    0.55    0.23
  12  -3  -9    0.56    0.34
  12   3  -9    0.98    0.34
  12  -3  -9    0.66    0.36
  11   3  -9    3.48    0.67
  11  -3  -9    2.32    0.61
  11   3  -9    2.63    0.53
  11  -3  -9    2.98    0.61
  10   3  -9    3.63    0.69
  10  -3  -9    3.06    0.70
  10   3  -9    2.95    0.60
  10  -3  -9    3.58    0.69
   9   3  -9    4.95    0.83
   9  -3  -9    5.44    0.92
   9   3  -9    4.66    0.76
   9  -3  -9    5.84    0.90
   8   3  -9    9.66    1.12
   8  -3  -9    8.95    1.11
   8   3  -9    9.24    1.07
   8  -3  -9    9.04    1.10
   7   3  -9   27.75    1.88
   7  -3  -9   27.01    1.89
   7   3  -9   30.14    1.89
   7  -3  -9   25.89    1.82
   6   3  -9  113.57    3.38
   6  -3  -9  110.87    3.74
   6   3  -9  114.81    3.69
   6  -3  -9  111.16    3.73
   5   3  -9  115.59    3.57
   5  -3  -9  113.98    3.75
   5   3  -9  119.38    3.77
   5  -3  -9  113.60    3.75
   4  -3  -9  163.94    4.40
   4   3  -9  164.65    4.37
   4   3  -9  159.78    4.35
   4  -3  -9  165.03    4.40
   3  -3  -9    1.77    0.53
   3   3  -9    3.32    0.70
   3  -3  -9    2.34    0.62
   3   3  -9    2.10    0.63
   2   3  -9   50.79    2.40
   2  -3  -9   45.06    2.24
   1   3  -9  192.68    4.55
   1  -3  -9  193.52    4.46
   1  -3  -9  189.82    4.68
   0   3  -9  129.94    3.74
   0   3  -9  124.64    3.58
   0  -3  -9  117.17    3.75
  -1   3  -9   70.81    2.85
  -1   3  -9   73.99    2.70
  -1  -3  -9   72.17    2.99
  -2   3  -9   27.21    1.82
  -2  -3  -9   30.94    1.99
  -3   3  -9   92.95    3.36
  -3  -3  -9   86.09    3.28
  -4   3  -9  107.19    3.65
  -4  -3  -9  104.00    3.59
  -5   3  -9    3.83    0.79
  -5  -3  -9    4.28    0.81
  -6   3  -9   10.56    1.19
  -6  -3  -9   11.80    1.22
  -6  -3  -9   10.90    1.15
  -7   3  -9    7.53    1.01
  -7  -3  -9    7.48    0.98
  -8   3  -9   43.54    2.17
  -8  -3  -9   44.99    2.15
  -9   3  -9  160.07    3.33
  -9  -3  -9  164.04    3.81
  10  -3   9   20.70    1.33
 -10  -3  -9   18.50    1.19
  11   3   9   13.31    0.75
  11  -3   9   14.67    1.01
  11   3   9   13.96    0.88
 -11  -3  -9   14.30    0.91
  12  -3   9   19.86    0.93
  12  -3   9   20.28    1.00
  15  -4  -9    6.48    0.55
  14  -4  -9    5.73    0.63
  14  -4  -9    5.22    0.47
  13  -4  -9   65.28    2.29
  13  -4  -9   63.34    1.95
  12  -4  -9   98.35    3.06
  12   4  -9   94.42    2.39
  12  -4  -9   95.55    2.74
  11  -4  -9   24.32    1.64
  11   4  -9   24.47    1.39
  11  -4  -9   25.89    1.57
  10  -4  -9   37.45    2.11
  10   4  -9   38.40    1.87
  10  -4  -9   37.85    2.01
   9  -4  -9  339.10    6.39
   9   4  -9  338.89    5.86
   9  -4  -9  348.75    6.28
   8  -4  -9   74.16    3.04
   8   4  -9   74.77    2.86
   8  -4  -9   74.11    2.99
   7  -4  -9   28.87    1.93
   7   4  -9   29.98    1.87
   7  -4  -9   29.88    1.95
   6  -4  -9    2.71    0.69
   6   4  -9    2.16    0.58
   6  -4  -9    2.80    0.67
   6   4  -9    3.85    0.71
   5   4  -9  116.99    3.60
   5  -4  -9  113.93    3.71
   5   4  -9  115.37    3.69
   5  -4  -9  110.41    3.66
   4  -4  -9   23.16    1.68
   4   4  -9   23.10    1.68
   4   4  -9   24.11    1.73
   4  -4  -9   25.38    1.75
   3  -4  -9    4.16    0.76
   3   4  -9    3.20    0.70
   3  -4  -9    4.99    0.81
   3   4  -9    3.53    0.74
   2   4  -9   13.74    1.37
   2   4  -9   15.22    1.34
   2  -4  -9   15.84    1.35
   2  -4  -9   13.32    1.24
   1   4  -9    6.63    0.89
   1  -4  -9    6.29    0.86
   1   4  -9    6.46    1.01
   1  -4  -9    7.13    0.96
   0   4  -9   28.86    1.78
   0   4  -9   28.90    1.74
   0  -4  -9   26.05    1.78
  -1   4  -9    0.39    0.33
  -1   4  -9    1.58    0.53
  -1  -4  -9    0.69    0.47
  -2   4  -9   16.67    1.45
  -2  -4  -9   14.86    1.38
  -3   4  -9  329.45    6.35
  -3  -4  -9  336.62    6.43
  -4   4  -9   12.17    1.26
  -4  -4  -9   12.03    1.26
  -5   4  -9   25.00    1.80
  -5  -4  -9   26.34    1.79
  -6   4  -9   14.78    1.37
  -6  -4  -9   14.17    1.28
  -7   4  -9   29.15    1.87
  -7  -4  -9   28.29    1.77
  -7  -4  -9   30.27    1.78
  -8   4  -9    9.10    0.92
  -8  -4  -9    9.88    1.03
   9  -4   9   53.56    2.25
  -9  -4  -9   54.13    2.17
  10  -4   9   25.52    1.45
 -10  -4  -9   23.63    1.31
  11  -4   9   19.67    1.15
  11   4   9   18.52    0.94
 -11  -4  -9   18.20    0.98
  12  -4   9   33.01    1.17
  12  -4   9   32.64    1.22
  15  -5  -9   71.34    1.71
  14  -5  -9    1.32    0.34
  14  -5  -9    1.57    0.29
  13  -5  -9    9.55    0.89
  13  -5  -9    9.20    0.77
  12  -5  -9   21.46    1.43
  12   5  -9   21.68    1.11
  12  -5  -9   20.87    1.29
  11  -5  -9   93.96    3.11
  11   5  -9   89.48    2.55
  11  -5  -9   91.01    2.90
  10  -5  -9   15.97    1.36
  10   5  -9   15.65    1.19
  10  -5  -9   17.03    1.37
   9  -5  -9   71.16    2.90
   9   5  -9   74.41    2.71
   9  -5  -9   74.06    2.91
   8  -5  -9   79.52    3.12
   8   5  -9   80.78    2.94
   8  -5  -9   81.27    3.11
   7   5  -9   52.41    2.19
   7  -5  -9   50.95    2.51
   7   5  -9   49.01    2.34
   7  -5  -9   52.49    2.52
   6  -5  -9    0.63    0.48
   6   5  -9   -0.18    0.42
   6  -5  -9    0.36    0.37
   6   5  -9    0.17    0.31
   5   5  -9  111.82    3.55
   5  -5  -9  110.96    3.60
   5   5  -9  109.58    3.57
   5  -5  -9  110.25    3.67
   4   5  -9  255.82    5.52
   4  -5  -9  255.12    5.38
   4   5  -9  258.57    5.49
   4  -5  -9  263.27    5.57
   3  -5  -9  136.55    3.85
   3   5  -9  138.08    4.15
   3   5  -9  135.08    3.95
   3  -5  -9  135.55    3.90
   2   5  -9   24.11    1.79
   2   5  -9   23.14    1.63
   2  -5  -9   25.44    1.67
   2  -5  -9   23.28    1.60
   1   5  -9   80.88    3.27
   1   5  -9   79.43    2.94
   1  -5  -9   85.60    2.92
   1  -5  -9   78.39    2.99
   0   5  -9   54.26    2.73
   0   5  -9   56.09    2.43
   0  -5  -9   58.46    2.62
  -1   5  -9   30.12    1.89
  -1  -5  -9   29.35    1.91
  -2   5  -9   31.15    1.94
  -2  -5  -9   31.81    1.99
  -3   5  -9   72.70    2.98
  -3  -5  -9   76.45    3.06
  -4   5  -9   18.31    1.54
  -4  -5  -9   17.66    1.49
  -5   5  -9    5.17    0.88
  -5  -5  -9    4.75    0.85
  -6   5  -9   15.89    1.35
  -6   5  -9   14.29    1.35
  -6  -5  -9   15.89    1.36
  -7   5  -9   12.82    1.14
  -7  -5  -9   12.39    1.17
  -7  -5  -9   13.29    1.21
  -8   5  -9  163.60    3.56
   8  -5   9  173.79    4.19
  -8  -5  -9  169.63    4.02
   9  -5   9  100.79    3.03
  -9  -5  -9   98.37    2.84
  10  -5   9   20.90    1.29
 -10  -5  -9   19.97    1.17
  11  -5   9   15.36    1.00
 -11  -5  -9   13.78    0.82
  12  -5   9    2.20    0.32
  12  -5   9    1.75    0.31
  15  -6  -9   13.37    0.71
  14  -6  -9  162.82    3.04
  14  -6  -9  150.83    2.30
  13  -6  -9   63.27    2.16
  13  -6  -9   60.79    1.86
  12  -6  -9  205.57    4.22
  12  -6  -9  206.61    3.93
  11  -6  -9   70.01    2.63
  11   6  -9   73.39    2.23
  11  -6  -9   69.45    2.50
  10  -6  -9   92.15    3.18
  10   6  -9   91.43    2.75
  10  -6  -9   93.22    3.08
   9  -6  -9    1.23    0.52
   9   6  -9    1.04    0.42
   9  -6  -9    1.48    0.54
   8  -6  -9   41.70    2.23
   8   6  -9   43.76    2.13
   8  -6  -9   44.36    2.26
   7   6  -9   12.83    1.10
   7  -6  -9   11.69    1.23
   7   6  -9   12.43    1.18
   6  -6  -9    3.48    0.72
   6   6  -9    2.43    0.58
   6   6  -9    4.39    0.76
   5   6  -9   49.87    2.37
   5  -6  -9   53.82    2.48
   5   6  -9   50.57    2.43
   5  -6  -9   50.40    2.44
   4   6  -9  131.49    3.96
   4  -6  -9  125.32    3.68
   4   6  -9  129.81    3.86
   4  -6  -9  124.52    3.78
   3  -6  -9    0.81    0.42
   3   6  -9    0.40    0.41
   3  -6  -9    0.70    0.43
   3   6  -9    0.13    0.40
   2   6  -9   10.76    1.23
   2   6  -9   10.80    1.16
   2  -6  -9    9.88    1.06
   2  -6  -9   10.05    1.06
   1   6  -9    3.55    0.68
   1  -6  -9    2.60    0.58
   1   6  -9    3.02    0.72
   1  -6  -9    3.37    0.67
   0   6  -9   24.64    1.86
   0  -6  -9   23.65    1.69
  -1   6  -9   21.60    1.73
  -1   6  -9   22.64    1.62
  -1  -6  -9   21.08    1.60
  -2   6  -9   13.87    1.40
  -2   6  -9   13.90    1.32
  -2  -6  -9   16.28    1.43
  -3   6  -9    3.44    0.74
  -3   6  -9    2.12    0.63
  -3  -6  -9    2.09    0.57
  -4   6  -9    7.09    0.99
  -4   6  -9    6.98    0.99
  -4  -6  -9    6.74    0.94
  -5   6  -9    9.12    1.09
  -5  -6  -9    9.58    1.09
  -6   6  -9  116.70    3.46
  -6  -6  -9  121.09    3.60
  -7   6  -9    0.45    0.30
  -7  -6  -9    0.95    0.46
  -8   6  -9    7.96    0.79
   8  -6   9    9.07    0.99
  -8  -6  -9    7.56    0.88
  -8  -6  -9    8.05    0.87
  -9  -6  -9    0.54    0.32
   9  -6   9    0.69    0.35
  10  -6   9   56.57    2.04
 -10  -6  -9   55.89    1.85
  11  -6   9   16.38    1.00
 -11  -6  -9   13.96    0.76
  14  -7  -9    0.33    0.21
  14  -7  -9    0.46    0.18
  13  -7  -9    8.72    0.79
  13  -7  -9   10.21    0.76
  12  -7  -9    7.05    0.81
  12  -7  -9    5.91    0.69
  11  -7  -9   37.52    1.88
  11  -7  -9   39.07    1.85
  10  -7  -9   18.23    1.40
  10   7  -9   17.83    1.19
  10  -7  -9   18.25    1.37
   9  -7  -9   63.76    2.64
   9   7  -9   61.56    2.34
   9  -7  -9   64.24    2.64
   8  -7  -9    9.71    1.08
   8   7  -9   10.65    1.07
   7  -7  -9    2.41    0.65
   7   7  -9    2.84    0.60
   6   7  -9   11.28    1.11
   6  -7  -9   12.59    1.22
   6   7  -9   12.24    1.20
   5   7  -9   17.97    1.47
   5  -7  -9   16.94    1.38
   5   7  -9   16.07    1.38
   4   7  -9  268.34    5.65
   4  -7  -9  282.51    5.39
   4   7  -9  277.90    5.61
   4  -7  -9  269.91    5.55
   3   7  -9   10.45    1.18
   3   7  -9   11.80    1.19
   3  -7  -9   12.24    1.19
   2   7  -9    2.89    0.68
   2  -7  -9    3.23    0.64
   2   7  -9    2.44    0.70
   2  -7  -9    2.02    0.51
   1   7  -9   41.29    2.35
   1  -7  -9   39.80    2.12
   0   7  -9  237.19    5.59
   0  -7  -9  233.26    5.17
  -1   7  -9    2.60    0.69
  -1  -7  -9    1.67    0.57
  -2   7  -9   12.13    1.34
  -2  -7  -9   10.48    1.16
  -3   7  -9   12.80    1.30
  -3  -7  -9   12.41    1.22
  -4   7  -9   57.23    2.61
  -4  -7  -9   60.97    2.66
  -5   7  -9   82.07    2.98
  -5  -7  -9   81.48    3.00
  -6   7  -9  144.63    3.73
  -6  -7  -9  149.13    3.92
   7  -7   9    1.95    0.55
  -7   7  -9    2.34    0.52
  -7  -7  -9    2.13    0.54
  -8  -7  -9    1.02    0.44
   8  -7   9    0.55    0.36
  -8  -7  -9    0.74    0.37
   9  -7   9   54.74    2.11
  -9  -7  -9   52.34    1.95
  10  -7   9    8.24    0.80
 -10  -7  -9    8.47    0.71
  11  -7   9    1.22    0.33
  14  -8  -9    7.41    0.61
  13  -8  -9   58.64    1.92
  13  -8  -9   58.18    1.70
  12  -8  -9  112.18    2.92
  12  -8  -9  112.29    2.75
  11  -8  -9   18.47    1.29
  11  -8  -9   20.42    1.32
  10  -8  -9   32.42    1.79
  10  -8  -9   31.95    1.76
   9  -8  -9   92.85    3.10
   8   8  -9  266.99    4.52
   8  -8  -9  263.18    5.25
   8   8  -9  258.73    4.90
   7   8  -9   95.66    2.93
   7  -8  -9   90.46    3.10
   7   8  -9   94.86    3.10
   6   8  -9    9.94    1.04
   6  -8  -9    9.13    1.02
   6   8  -9    9.61    1.06
   5   8  -9   23.40    1.64
   5  -8  -9   23.00    1.54
   5   8  -9   24.59    1.66
   4   8  -9   21.49    1.61
   4   8  -9   23.03    1.65
   3   8  -9   45.59    2.39
   3   8  -9   44.03    2.25
   3  -8  -9   42.11    2.12
   2  -8  -9    4.70    0.74
   2   8  -9    5.94    0.95
   2  -8  -9    5.91    0.81
   1   8  -9   11.97    1.31
   1  -8  -9    9.69    1.06
   0   8  -9   22.55    1.74
   0  -8  -9   22.33    1.61
  -1   8  -9   47.94    2.49
  -1  -8  -9   49.25    2.39
  -2   8  -9   25.42    1.80
  -2  -8  -9   24.07    1.69
  -3   8  -9    8.75    1.11
  -3  -8  -9    9.65    1.10
  -4   8  -9    0.44    0.44
  -4  -8  -9    0.50    0.37
  -5   8  -9   12.08    1.16
   5  -8   9   11.17    1.12
  -5  -8  -9   11.94    1.19
   6  -8   9    1.00    0.47
  -6   8  -9    1.45    0.47
  -6  -8  -9    1.34    0.47
  -7   8  -9   60.56    2.09
   7  -8   9   56.82    2.33
  -7  -8  -9   61.55    2.34
   8  -8   9   62.19    2.32
  -8  -8  -9   61.92    2.24
  -8  -8  -9   61.20    2.17
   9  -8   9    7.65    0.79
  -9  -8  -9    6.80    0.70
  10  -8   9   36.45    1.51
 -10  -8  -9   35.29    1.32
  11  -8   9   16.75    0.80
  11  -8   9   17.10    0.89
  14  -9  -9    0.14    0.17
  13  -9  -9    1.35    0.33
  13  -9  -9    1.22    0.29
  12  -9  -9   19.69    1.18
  12  -9  -9   19.57    1.12
  11  -9  -9    1.61    0.45
  11  -9  -9    0.16    0.28
  10  -9  -9   14.17    1.14
  10  -9  -9   14.56    1.17
   9  -9  -9    1.26    0.44
   8   9  -9   37.20    1.70
   8  -9  -9   37.85    1.95
   7  -9  -9    0.63    0.39
   7   9  -9    1.18    0.43
   6   9  -9   95.19    3.06
   6  -9  -9   94.30    3.02
   5   9  -9   65.14    2.64
   5  -9  -9   68.51    2.52
   4   9  -9    8.57    1.02
   3   9  -9   16.71    1.46
   3  -9  -9   17.63    1.37
   2   9  -9   77.73    3.08
   2  -9  -9   80.92    2.79
   2  -9  -9   75.54    2.72
   1   9  -9  131.55    4.03
   1  -9  -9  125.47    3.61
   0   9  -9    1.55    0.60
   0  -9  -9    1.09    0.43
  -1   9  -9   35.25    2.12
  -1  -9  -9   30.45    1.87
  -2   9  -9    4.01    0.78
  -2  -9  -9    4.43    0.78
  -3   9  -9    9.50    1.10
  -3  -9  -9    8.62    1.03
   4  -9   9    0.03    0.31
  -4   9  -9    0.17    0.36
  -4  -9  -9    0.03    0.42
  -5   9  -9   37.60    1.90
   5  -9   9   35.22    1.85
  -5  -9  -9   39.79    2.05
  -6   9  -9   31.88    1.61
   6  -9   9   31.84    1.72
  -6  -9  -9   32.06    1.75
   7  -9   9   32.40    1.68
  -7  -9  -9   32.35    1.66
   8  -9   9   54.24    2.05
  -8  -9  -9   56.04    2.04
  -8  -9  -9   52.38    1.94
   9  -9   9   53.05    1.89
  -9  -9  -9   53.40    1.78
 -10  -9  -9    3.23    0.40
  10  -9   9    3.89    0.50
  13 -10  -9   11.70    0.74
  13 -10  -9   11.39    0.67
  12 -10  -9   15.32    0.97
  12 -10  -9   16.29    0.98
  11 -10  -9   27.71    1.40
  11 -10  -9   29.33    1.46
  10 -10  -9    0.51    0.33
  10 -10  -9    0.02    0.28
   9 -10  -9  154.34    3.61
   8  10  -9   58.04    2.05
   8 -10  -9   57.50    2.26
   7  10  -9   73.89    2.51
   7 -10  -9   75.44    2.58
   6 -10  -9    2.10    0.49
   6  10  -9    3.05    0.57
   5  10  -9  171.34    4.20
   4  10  -9  200.94    4.71
   3  10  -9   41.65    2.21
   2  10  -9   30.04    1.92
   2 -10  -9   29.39    1.63
   2 -10  -9   29.67    1.67
   1  10  -9    2.67    0.68
   1 -10  -9    1.89    0.51
   0  10  -9   31.95    1.98
   0 -10  -9   32.75    1.86
  -1  10  -9   34.45    2.03
  -1 -10  -9   32.61    1.89
  -2  10  -9   89.10    3.18
  -2 -10  -9   87.97    3.07
  -3  10  -9  156.88    4.05
  -3 -10  -9  166.62    4.21
  -4  10  -9   17.50    1.33
  -4 -10  -9   19.05    1.42
  -5  10  -9    9.25    0.92
   5 -10   9    8.69    0.90
  -5 -10  -9   10.29    1.04
  -6  10  -9   13.34    0.98
   6 -10   9   12.60    1.05
  -6 -10  -9   13.19    1.11
   7 -10   9   51.83    2.00
  -7 -10  -9   52.16    2.02
   8 -10   9  140.39    3.08
  -8 -10  -9  144.07    3.10
  -8 -10  -9  141.05    3.02
   9 -10   9   25.03    1.21
  -9 -10  -9   24.44    1.13
  10 -10   9  109.67    2.15
  12 -11  -9   80.60    1.96
  12 -11  -9   81.55    2.01
  11 -11  -9    0.36    0.24
  11 -11  -9    0.38    0.31
  10 -11  -9   63.50    2.07
  10 -11  -9   64.56    2.22
   9 -11  -9    0.02    0.28
   9  11  -9    0.67    0.42
   8  11  -9   49.17    1.85
   8 -11  -9   45.81    1.88
   7 -11  -9    1.82    0.42
   7  11  -9    1.44    0.48
   6  11  -9    0.41    0.36
   5  11  -9   12.95    1.18
   4  11  -9    1.73    0.53
   3  11  -9   16.67    1.39
   2  11  -9   56.42    2.54
   2 -11  -9   62.69    2.35
   1  11  -9    2.46    0.65
   1 -11  -9    1.74    0.52
   0  11  -9   14.67    1.32
   0 -11  -9   15.10    1.24
  -1  11  -9   41.16    2.15
  -1 -11  -9   40.17    2.04
  -2  11  -9   11.07    1.12
  -2 -11  -9   10.96    1.11
  -3  11  -9    6.76    0.88
  -3 -11  -9    6.23    0.85
  -4  11  -9   33.61    1.73
  -4 -11  -9   34.38    1.82
  -5  11  -9   -0.16    0.40
  -5 -11  -9    0.08    0.37
   6 -11   9    0.59    0.31
  -6  11  -9    0.16    0.27
   7 -11   9   46.37    1.75
  -7 -11  -9   46.85    1.83
   8 -11   9   36.83    1.46
  -8 -11  -9   36.79    1.48
  -8 -11  -9   36.78    1.46
  -9 -11  -9    2.54    0.36
   9 -11   9    2.94    0.40
  12 -12  -9    2.56    0.36
  11 -12  -9    0.35    0.23
  11 -12  -9    0.62    0.28
  10 -12  -9    1.03    0.30
  10 -12  -9    0.61    0.33
   9  12  -9   71.56    1.93
   9 -12  -9   68.48    2.04
   8 -12  -9    1.19    0.35
   8  12  -9   -0.88    0.63
   7  12  -9   38.80    1.73
   6  12  -9    4.13    0.67
   5  12  -9    8.36    0.94
   4  12  -9   70.65    2.64
   3  12  -9  120.64    3.52
   3 -12  -9  119.65    3.14
   2  12  -9    1.53    0.52
   2 -12  -9    1.27    0.40
   1  12  -9   43.31    2.16
   1 -12  -9   42.22    1.93
   0  12  -9   12.71    1.19
   0 -12  -9   10.26    1.00
  -1  12  -9   98.87    3.17
  -1 -12  -9   99.11    3.06
  -2  12  -9  104.20    3.15
  -2 -12  -9  105.83    3.16
  -3  12  -9   26.27    1.53
  -3 -12  -9   29.01    1.66
  -4  12  -9   19.75    1.24
  -4 -12  -9   21.15    1.39
  -5  12  -9    0.45    0.25
  -5 -12  -9    1.02    0.38
  -6 -12  -9   56.22    2.03
   7 -12   9   28.24    1.20
  -7 -12  -9   30.58    1.40
  -8 -12  -9   65.88    1.79
  -8 -12  -9   61.68    1.76
  11 -13  -9   10.36    0.71
  10 -13  -9   14.74    0.95
   9  13  -9    2.84    0.55
   8  13  -9   69.34    2.03
   7  13  -9   36.30    1.60
   6  13  -9   12.75    1.03
   5  13  -9    0.31    0.45
   4  13  -9   13.33    1.16
   3  13  -9   52.05    2.24
   3 -13  -9   52.56    1.96
   2  13  -9   87.14    2.93
   1  13  -9    2.46    0.57
   1 -13  -9    3.10    0.55
   0  13  -9   62.68    2.45
   0 -13  -9   58.99    2.24
  -1  13  -9   74.01    2.60
  -1 -13  -9   74.59    2.56
  -2  13  -9   -0.26    0.39
  -2 -13  -9    0.45    0.35
  -3  13  -9    9.60    0.88
  -3 -13  -9    9.12    0.92
  -4  13  -9    2.88    0.47
  -4 -13  -9    3.31    0.57
  -5  13  -9  108.47    2.31
  -5 -13  -9  113.05    2.88
  -6 -13  -9    7.92    0.76
  -7 -13  -9   20.15    1.07
  -8 -13  -9    4.12    0.42
  -8 -13  -9    4.73    0.47
  11 -14  -9   14.57    0.73
  10 -14  -9    1.29    0.33
   9 -14  -9   44.65    1.62
   9  14  -9   49.69    1.41
   8  14  -9   24.44    1.18
   7  14  -9   22.36    1.22
   6  14  -9    6.84    0.79
   5  14  -9    5.63    0.74
   4  14  -9   11.18    1.01
   4 -14  -9   10.89    0.88
   3  14  -9   55.28    2.20
   2  14  -9   82.70    2.69
   1  14  -9   12.16    1.07
   1 -14  -9   12.39    0.96
   0  14  -9    5.20    0.69
   0 -14  -9    4.51    0.63
  -1  14  -9   29.58    1.55
  -1 -14  -9   31.55    1.57
  -2  14  -9   83.33    2.46
  -2 -14  -9   84.44    2.57
  -3  14  -9   23.66    1.24
  -3 -14  -9   24.07    1.36
  -4  14  -9    0.69    0.30
  -4 -14  -9    1.49    0.40
  -5 -14  -9    4.86    0.61
  -6 -14  -9    0.31    0.25
  -7 -14  -9   24.20    1.06
  10 -15  -9    1.67    0.29
   9 -15  -9   16.70    0.90
   8 -15  -9    2.27    0.40
   8  15  -9    5.84    0.63
   7  15  -9   21.42    1.14
   6  15  -9   14.40    1.01
   5  15  -9   50.70    1.87
   5 -15  -9   45.42    1.64
   4  15  -9   84.65    2.49
   4 -15  -9   78.29    2.07
   3  15  -9   78.12    2.43
   2  15  -9    7.41    0.81
   1  15  -9    2.22    0.50
   1 -15  -9    2.38    0.42
   0  15  -9   62.17    2.14
   0 -15  -9   61.80    2.00
  -1  15  -9   16.49    1.09
  -1 -15  -9   15.84    1.05
  -2  15  -9    0.54    0.30
  -2 -15  -9    1.00    0.35
  -3  15  -9    0.84    0.30
  -3 -15  -9    0.89    0.32
  -4 -15  -9    5.83    0.62
  -5 -15  -9   27.13    1.22
  -6 -15  -9    1.23    0.31
   8 -16  -9   61.16    1.57
   8  16  -9   61.17    1.46
   7 -16  -9  128.68    2.39
   7  16  -9  145.58    2.54
   6  16  -9   60.37    1.80
   6 -16  -9   51.09    1.54
   5  16  -9   13.15    0.96
   5 -16  -9   10.45    0.71
   4  16  -9    7.66    0.80
   3  16  -9    1.86    0.59
   2  16  -9   18.80    1.14
   1  16  -9    1.25    0.47
   0  16  -9   68.07    2.04
   0 -16  -9   68.66    1.90
  -1  16  -9   38.60    1.47
  -1 -16  -9   39.60    1.49
  -2  16  -9   86.11    2.01
  -2 -16  -9   88.89    2.23
  -3  16  -9   64.90    1.51
  -3 -16  -9   65.74    1.89
  -4 -16  -9    0.70    0.27
  -5 -16  -9   99.19    2.06
   7  17  -9   28.34    1.00
   6  17  -9   26.74    1.10
   5  17  -9    5.75    0.67
   4  17  -9    2.40    0.56
   3  17  -9   13.85    0.96
   2  17  -9   13.22    0.92
   1  17  -9   27.59    1.23
   0  17  -9   10.69    0.77
   0 -17  -9    9.48    0.62
  -1  17  -9   11.30    0.74
  -1 -17  -9    9.22    0.65
  -2 -17  -9    0.50    0.23
  -3 -17  -9    4.95    0.48
  -4 -17  -9    3.11    0.36
   5  18  -9   28.09    1.02
   4  18  -9    3.99    0.51
   3  18  -9   88.57    1.91
   2  18  -9  199.81    2.84
   1  18  -9  168.04    2.52
   0  18  -9   21.21    0.87
  13   0 -10   49.00    1.31
  12   0 -10   18.27    1.01
  11   0 -10   96.25    2.60
  10   0 -10  188.59    4.17
  10   0 -10  182.39    3.90
   9   0 -10  182.00    4.30
   9   0 -10  177.36    4.07
   8   0 -10    0.86    0.44
   7   0 -10    7.14    0.91
   6   0 -10   40.21    2.10
   5   0 -10   86.76    3.09
   4   0 -10   22.75    1.55
   4   0 -10   22.89    1.61
   3   0 -10    4.97    0.79
   3   0 -10    4.69    0.78
   2   0 -10    0.23    0.28
   1   0 -10  310.90    5.45
   0   0 -10   27.47    1.67
   0   0 -10   28.35    1.61
  -1   0 -10    1.02    0.47
  -2   0 -10   21.02    1.54
  -3   0 -10    6.09    0.84
  -4   0 -10    2.21    0.58
  -5   0 -10   90.63    3.08
  -6   0 -10   35.52    1.88
  -7   0 -10    0.17    0.34
  -8   0 -10    0.13    0.29
  -9   0 -10   10.96    0.76
   9   0  10   11.70    0.90
  10   0  10   16.91    0.80
  10   0  10   20.43    1.03
  13   1 -10    2.84    0.34
  13  -1 -10    3.25    0.38
  12   1 -10   59.97    1.77
  12  -1 -10   59.79    1.83
  11  -1 -10    7.10    0.80
  11   1 -10    6.85    0.71
  11  -1 -10    6.99    0.75
  10  -1 -10   12.23    1.13
  10   1 -10   11.78    1.01
  10  -1 -10   12.19    1.05
   9  -1 -10    3.71    0.71
   9   1 -10    2.47    0.57
   9  -1 -10    3.27    0.65
   8  -1 -10    2.33    0.63
   8   1 -10    2.37    0.63
   8  -1 -10    2.88    0.64
   7  -1 -10   75.58    2.91
   7   1 -10   75.34    2.83
   7  -1 -10   69.44    2.73
   6   1 -10    0.59    0.49
   6  -1 -10    0.31    0.40
   5   1 -10    6.52    0.91
   5  -1 -10    7.06    0.93
   5   1 -10    7.42    0.86
   4   1 -10   66.79    2.65
   4  -1 -10   67.93    2.60
   4   1 -10   67.18    2.71
   4  -1 -10   66.75    2.70
   3   1 -10   67.76    2.77
   3   1 -10   67.48    2.71
   3  -1 -10   72.38    2.76
   2   1 -10    2.36    0.58
   2  -1 -10    1.83    0.48
   2   1 -10    1.94    0.59
   1   1 -10    3.72    0.66
   1  -1 -10    3.03    0.59
   0   1 -10   40.62    2.00
   0  -1 -10   42.11    2.06
   0   1 -10   42.90    1.98
   0  -1 -10   43.71    1.95
  -1   1 -10  136.56    3.76
  -1  -1 -10  134.05    3.77
  -2   1 -10    0.19    0.38
  -2  -1 -10    0.33    0.43
  -3   1 -10   23.55    1.61
  -3  -1 -10   22.46    1.57
  -4  -1 -10    8.30    1.01
  -4   1 -10    7.67    0.96
  -5   1 -10   69.83    2.70
  -5  -1 -10   66.33    2.63
  -6   1 -10   69.12    2.62
  -6  -1 -10   69.66    2.61
  -7   1 -10    0.82    0.43
  -7  -1 -10    0.95    0.42
  -8   1 -10    0.24    0.31
  -8  -1 -10    0.10    0.29
  -8   1 -10    0.09    0.26
  -9  -1 -10    0.14    0.25
   9  -1  10    0.41    0.30
  -9   1 -10   -0.26    0.26
  10  -1  10    0.07    0.21
  10   1  10    0.07    0.21
  13  -2 -10    9.50    0.61
  12  -2 -10    2.83    0.51
  12   2 -10    2.52    0.39
  12  -2 -10    2.76    0.43
  11  -2 -10    0.33    0.35
  11   2 -10    0.28    0.25
  11  -2 -10    0.68    0.30
  10  -2 -10   15.15    1.22
  10   2 -10   15.19    1.13
  10  -2 -10   14.85    1.15
   9  -2 -10  134.55    3.68
   9   2 -10  140.67    3.55
   9  -2 -10  137.42    3.59
   8  -2 -10    1.03    0.52
   8   2 -10    1.10    0.42
   8  -2 -10    0.70    0.44
   7  -2 -10    2.75    0.65
   7   2 -10    2.30    0.57
   7  -2 -10    2.30    0.61
   6  -2 -10   52.05    2.42
   6   2 -10   50.90    2.34
   6  -2 -10   50.82    2.37
   5   2 -10   58.74    2.38
   5   2 -10   57.84    2.52
   5  -2 -10   59.98    2.57
   4   2 -10    0.54    0.39
   4  -2 -10    0.81    0.45
   4   2 -10   -0.06    0.33
   3   2 -10   15.74    1.38
   3   2 -10   16.14    1.35
   3  -2 -10   16.55    1.33
   2   2 -10    3.58    0.65
   2  -2 -10    4.19    0.69
   2   2 -10    3.64    0.72
   1   2 -10   21.82    1.48
   1  -2 -10   19.90    1.38
   0   2 -10   -0.03    0.30
   0   2 -10    0.07    0.28
  -1   2 -10    2.22    0.56
  -1  -2 -10    1.80    0.53
  -2   2 -10   65.60    2.65
  -2  -2 -10   67.22    2.68
  -3   2 -10   59.72    2.55
  -3  -2 -10   56.51    2.48
  -4   2 -10  131.51    3.75
  -4  -2 -10  136.75    3.81
  -5   2 -10    0.86    0.46
  -5  -2 -10    0.56    0.39
  -6   2 -10    4.96    0.75
  -6  -2 -10    6.18    0.83
  -7   2 -10   47.89    2.07
  -7  -2 -10   48.78    2.07
  -8  -2 -10    2.08    0.48
  -8   2 -10    1.19    0.35
  -9   2 -10   18.54    0.90
   9  -2  10   19.85    1.17
  -9  -2 -10   18.58    1.09
  10  -2  10   45.06    1.52
  10   2  10   43.93    1.40
  13  -3 -10   10.20    0.63
  12  -3 -10   17.96    1.12
  12   3 -10   16.15    0.87
  12  -3 -10   18.21    1.02
  11  -3 -10   48.45    1.99
  11   3 -10   45.95    1.69
  11  -3 -10   48.05    1.85
  10  -3 -10    0.62    0.42
  10   3 -10    0.19    0.29
  10  -3 -10    0.27    0.32
   9  -3 -10    9.41    1.00
   9   3 -10    9.04    0.92
   9  -3 -10    9.07    0.97
   8  -3 -10   70.22    2.71
   8   3 -10   65.65    2.51
   8  -3 -10   70.26    2.65
   7  -3 -10   15.30    1.30
   7   3 -10   15.20    1.29
   7  -3 -10   13.77    1.23
   6  -3 -10    3.72    0.72
   6   3 -10    3.61    0.71
   6  -3 -10    3.59    0.73
   6   3 -10    3.14    0.57
   5   3 -10   16.12    1.29
   5   3 -10   16.22    1.37
   5  -3 -10   16.80    1.40
   4   3 -10    5.39    0.84
   4  -3 -10    7.17    0.90
   4   3 -10    7.65    0.97
   3   3 -10  112.74    3.58
   3   3 -10  116.85    3.51
   3  -3 -10  113.64    3.42
   2   3 -10    0.74    0.39
   2  -3 -10    0.88    0.40
   2   3 -10    0.59    0.45
   1   3 -10    2.96    0.58
   1  -3 -10    3.22    0.61
   1   3 -10    1.80    0.63
   0   3 -10   22.55    1.71
   0   3 -10   21.33    1.44
  -1   3 -10  175.95    4.21
  -2   3 -10    4.71    0.78
  -2  -3 -10    5.66    0.84
  -3   3 -10  114.71    3.50
  -3  -3 -10  126.11    3.67
  -4   3 -10   18.01    1.42
  -4  -3 -10   17.14    1.36
  -5   3 -10    2.30    0.57
  -5  -3 -10    2.25    0.54
  -6   3 -10    4.21    0.70
  -6  -3 -10    4.67    0.73
  -6   3 -10    3.91    0.66
  -7  -3 -10    1.35    0.42
  -7   3 -10    1.32    0.40
  -8   3 -10   18.39    1.06
   8  -3  10   17.69    1.19
  -8  -3 -10   19.05    1.21
   9  -3  10   17.30    1.07
  -9  -3 -10   17.06    1.03
  10  -3  10    0.46    0.27
  10   3  10    0.21    0.17
  13  -4 -10   62.84    1.80
  13  -4 -10   58.04    1.46
  12  -4 -10   33.21    1.48
  12  -4 -10   31.46    1.32
  11  -4 -10    3.22    0.58
  11   4 -10    3.01    0.46
  11  -4 -10    2.62    0.49
  10  -4 -10   66.44    2.41
  10   4 -10   66.82    2.20
  10  -4 -10   65.18    2.31
   9  -4 -10    0.76    0.33
   9   4 -10    0.01    0.33
   9  -4 -10    0.17    0.33
   8  -4 -10    3.88    0.68
   8   4 -10    3.83    0.65
   8  -4 -10    4.87    0.77
   7  -4 -10   22.36    1.56
   7   4 -10   22.28    1.53
   7  -4 -10   23.57    1.60
   6   4 -10  540.03    6.84
   6  -4 -10  545.78    7.55
   6   4 -10  545.19    7.50
   6  -4 -10  548.32    7.57
   5   4 -10  241.33    4.84
   5   4 -10  240.38    5.04
   5  -4 -10  233.89    4.98
   4   4 -10    0.46    0.36
   4  -4 -10    1.03    0.46
   4   4 -10    1.68    0.50
   3   4 -10  146.09    4.09
   3   4 -10  148.89    3.95
   3  -4 -10  151.18    3.89
   2   4 -10    1.09    0.50
   2  -4 -10    1.63    0.50
   2   4 -10    1.07    0.48
   1   4 -10   63.59    2.81
   1   4 -10   65.60    2.55
   1  -4 -10   65.12    2.40
   0   4 -10   31.94    2.01
  -1   4 -10    3.91    0.72
  -1   4 -10    3.02    0.70
  -2   4 -10  105.78    3.57
  -2   4 -10   94.98    3.15
  -3   4 -10    0.45    0.36
  -3   4 -10    1.01    0.51
  -4   4 -10  116.60    3.57
  -4   4 -10  111.48    3.42
  -4  -4 -10  115.60    3.45
  -5   4 -10   84.50    2.90
  -5   4 -10   88.73    2.98
  -5  -4 -10   92.18    3.00
  -6   4 -10   14.19    1.13
  -6  -4 -10   15.11    1.21
  -7   4 -10   30.16    1.49
  -7  -4 -10   20.66    1.33
  -8   4 -10   25.40    1.18
   8  -4  10   28.69    1.48
  -8  -4 -10   26.70    1.40
   9  -4  10   12.57    0.91
  -9  -4 -10   12.32    0.86
  10  -4  10    1.70    0.34
  13  -5 -10   31.13    1.23
  13  -5 -10   27.82    0.98
  12  -5 -10    0.27    0.26
  12  -5 -10    0.04    0.19
  11  -5 -10   11.84    0.96
  11  -5 -10   12.75    0.95
  10  -5 -10    2.72    0.55
  10   5 -10    2.36    0.46
  10  -5 -10    2.32    0.51
   9  -5 -10    2.70    0.59
   9   5 -10    3.14    0.57
   9  -5 -10    2.00    0.52
   8  -5 -10    2.08    0.53
   8   5 -10    2.27    0.54
   8  -5 -10    3.00    0.64
   7  -5 -10  121.06    3.48
   7   5 -10  127.82    3.50
   7  -5 -10  128.54    3.62
   6  -5 -10    7.09    0.91
   6   5 -10    7.43    0.96
   6  -5 -10    7.58    0.94
   6   5 -10    6.07    0.76
   5   5 -10   22.44    1.50
   5   5 -10   22.80    1.56
   5  -5 -10   24.08    1.60
   4   5 -10   51.95    2.36
   4   5 -10   49.73    2.29
   4  -5 -10   50.35    2.27
   3   5 -10  319.16    6.01
   3   5 -10  317.21    5.73
   3  -5 -10  322.57    5.59
   2   5 -10  109.20    3.60
   2   5 -10  108.98    3.32
   2  -5 -10  111.50    3.19
   1   5 -10   20.61    1.60
   1   5 -10   22.46    1.51
   0   5 -10   47.53    2.42
  -1   5 -10   47.56    2.42
  -1  -5 -10   48.72    2.31
  -2   5 -10   30.64    1.94
  -2  -5 -10   32.63    1.92
  -3   5 -10    1.37    0.55
  -3  -5 -10    1.08    0.52
  -4   5 -10   13.27    1.22
  -5   5 -10   37.59    1.91
  -5  -5 -10   38.89    1.93
  -6   5 -10   83.18    2.61
  -6  -5 -10   85.80    2.74
  -7   5 -10   34.24    1.51
   7  -5  10   37.24    1.75
  -7  -5 -10   36.14    1.71
  -8   5 -10   84.27    1.97
   8  -5  10   89.89    2.52
  -8  -5 -10   87.49    2.43
  -9  -5 -10   -0.12    0.22
   9  -5  10   -0.10    0.25
  10  -5  10    0.74    0.24
  13  -6 -10    0.17    0.22
  12  -6 -10    0.17    0.24
  12  -6 -10    0.08    0.21
  11  -6 -10   22.78    1.26
  11  -6 -10   23.44    1.23
  10  -6 -10   25.32    1.44
  10  -6 -10   27.73    1.47
   9  -6 -10   11.00    1.01
   9   6 -10   12.69    1.00
   9  -6 -10   12.17    1.06
   8  -6 -10   11.35    1.04
   8   6 -10   10.62    0.99
   8  -6 -10   11.40    1.07
   7  -6 -10    5.69    0.80
   7   6 -10    4.83    0.65
   7   6 -10    5.28    0.75
   7  -6 -10    5.76    0.82
   6   6 -10   24.70    1.47
   6  -6 -10   23.57    1.52
   6   6 -10   26.52    1.63
   6  -6 -10   24.83    1.61
   5   6 -10   53.37    2.28
   5   6 -10   55.20    2.35
   5  -6 -10   55.67    2.38
   4   6 -10   48.67    2.28
   4   6 -10   49.13    2.25
   4  -6 -10   48.28    2.20
   3   6 -10   30.74    1.89
   3   6 -10   29.82    1.77
   3  -6 -10   30.81    1.72
   2   6 -10   43.10    2.26
   2  -6 -10   47.10    2.03
   1   6 -10   63.59    2.76
   0   6 -10    6.37    0.95
   0  -6 -10    6.40    0.86
  -1   6 -10   10.80    1.19
  -1  -6 -10   10.43    1.10
  -2   6 -10   50.14    2.41
  -2  -6 -10   50.22    2.33
  -3   6 -10   18.35    1.45
  -3  -6 -10   21.07    1.50
  -4   6 -10   53.10    2.31
  -4  -6 -10   54.57    2.31
  -5   6 -10   79.07    2.66
  -5  -6 -10   85.39    2.80
  -6   6 -10   41.13    1.78
   6  -6  10   41.12    1.87
  -6  -6 -10   39.97    1.85
  -7   6 -10   93.28    2.34
   7  -6  10   96.50    2.70
  -7  -6 -10   99.41    2.72
   8  -6  10   31.85    1.46
  -8  -6 -10   29.87    1.38
   9  -6  10   10.88    0.78
  -9  -6 -10   10.56    0.73
  12  -7 -10    9.99    0.74
  12  -7 -10   10.29    0.71
  11  -7 -10   -0.06    0.22
  11  -7 -10    0.06    0.22
  10  -7 -10    8.92    0.83
  10  -7 -10    8.18    0.80
   9  -7 -10   17.48    1.20
   9  -7 -10   16.61    1.19
   8  -7 -10    3.28    0.57
   8  -7 -10    2.93    0.60
   7   7 -10   54.98    1.98
   7  -7 -10   51.44    2.13
   7   7 -10   53.39    2.17
   7  -7 -10   55.99    2.30
   6  -7 -10    3.04    0.57
   6   7 -10    2.01    0.54
   6   7 -10    2.09    0.49
   6  -7 -10    2.79    0.61
   5   7 -10   18.19    1.33
   5   7 -10   21.65    1.47
   5  -7 -10   18.60    1.35
   4   7 -10   12.72    1.18
   4  -7 -10    9.73    0.97
   3   7 -10  186.33    4.52
   3  -7 -10  179.59    3.98
   2   7 -10   78.81    2.99
   2  -7 -10   81.30    2.58
   1   7 -10   77.49    2.98
   1  -7 -10   78.72    2.74
   0   7 -10    7.13    0.96
   0  -7 -10    6.05    0.82
  -1   7 -10    1.76    0.61
  -1  -7 -10    2.18    0.57
  -2   7 -10   75.54    2.89
  -2  -7 -10   75.84    2.78
  -3   7 -10  117.40    3.47
  -3  -7 -10  113.93    3.36
  -4   7 -10  157.53    3.84
  -4  -7 -10  158.20    3.85
   5  -7  10    6.99    0.81
  -5  -7 -10    7.47    0.86
  -5   7 -10    6.60    0.79
   6  -7  10    6.49    0.74
  -6  -7 -10    5.78    0.72
  -6   7 -10    5.21    0.63
  -7   7 -10   60.53    1.76
   7  -7  10   61.14    2.04
  -7  -7 -10   66.57    2.16
   8  -7  10  138.63    2.84
  -8  -7 -10  138.84    2.80
   9  -7  10   56.38    1.60
  -9  -7 -10   54.91    1.51
  12  -8 -10    5.61    0.52
  12  -8 -10    5.72    0.51
  11  -8 -10    0.19    0.24
  11  -8 -10    0.03    0.22
  10  -8 -10    2.83    0.47
  10  -8 -10    2.28    0.46
   9  -8 -10    0.08    0.25
   9  -8 -10    0.01    0.28
   8  -8 -10   15.49    1.11
   8  -8 -10   13.42    1.09
   7  -8 -10    0.34    0.28
   7   8 -10   -0.10    0.28
   7  -8 -10    0.33    0.35
   6   8 -10   92.98    2.73
   6  -8 -10   92.74    2.71
   6  -8 -10   92.06    2.91
   5   8 -10   31.71    1.71
   5  -8 -10   34.86    1.79
   4   8 -10   24.06    1.57
   4  -8 -10   26.09    1.53
   3   8 -10   26.40    1.70
   3  -8 -10   24.43    1.45
   2   8 -10   27.16    1.75
   2  -8 -10   27.96    1.47
   1   8 -10  133.58    3.84
   1  -8 -10  133.32    3.47
   0   8 -10    2.53    0.63
   0  -8 -10    3.77    0.67
  -1   8 -10  104.87    3.37
  -1  -8 -10  103.90    3.18
  -2   8 -10   31.31    1.83
  -2  -8 -10   31.62    1.76
  -3   8 -10    3.41    0.65
  -3  -8 -10    2.80    0.59
  -4   8 -10   11.60    1.04
   4  -8  10   12.52    1.00
  -4  -8 -10   13.28    1.12
  -5   8 -10   61.34    2.14
   5  -8  10   63.10    2.14
  -5  -8 -10   64.22    2.29
  -6   8 -10    6.11    0.64
   6  -8  10    6.46    0.70
  -6  -8 -10    7.51    0.78
   7  -8  10   30.80    1.37
  -7  -8 -10   29.69    1.38
  -8  -8 -10    0.37    0.22
   8  -8  10    0.57    0.26
  12  -9 -10    1.18    0.25
  11  -9 -10    7.02    0.60
  11  -9 -10    7.34    0.63
  10  -9 -10    0.39    0.26
  10  -9 -10    1.06    0.33
   9  -9 -10    1.54    0.37
   9  -9 -10    1.89    0.42
   8   9 -10   20.69    1.05
   8  -9 -10   19.16    1.14
   8  -9 -10   19.32    1.25
   7   9 -10   92.11    2.45
   7  -9 -10   89.64    2.49
   7  -9 -10   86.60    2.69
   6   9 -10   17.83    1.19
   6  -9 -10   18.36    1.27
   5   9 -10    1.84    0.46
   5  -9 -10    2.97    0.56
   4   9 -10   17.77    1.30
   4  -9 -10   16.91    1.19
   3   9 -10   20.30    1.44
   3  -9 -10   18.60    1.21
   2   9 -10   66.45    2.63
   1   9 -10    5.29    0.84
   1  -9 -10    3.81    0.64
   0   9 -10   17.82    1.40
   0  -9 -10   16.45    1.24
  -1   9 -10   55.42    2.37
  -1  -9 -10   55.63    2.27
  -2   9 -10   21.82    1.48
  -2  -9 -10   20.16    1.37
  -3   9 -10   11.37    1.04
  -3  -9 -10   13.45    1.12
  -4   9 -10   10.31    0.94
  -4  -9 -10   11.64    1.02
  -5   9 -10   10.00    0.83
   5  -9  10    9.33    0.80
  -5  -9 -10   10.77    0.94
  -6  -9 -10    5.99    0.68
   6  -9  10    4.65    0.56
  -6   9 -10    4.24    0.50
   7  -9  10   54.32    1.65
  -7  -9 -10   57.46    1.82
  -8  -9 -10    1.06    0.26
  11 -10 -10   13.65    0.78
  10 -10 -10    0.03    0.20
  10 -10 -10    0.50    0.27
   9 -10 -10    7.78    0.66
   9 -10 -10    7.07    0.72
   8 -10 -10    0.26    0.20
   8 -10 -10    0.76    0.36
   7  10 -10   14.03    0.96
   7 -10 -10   12.31    0.99
   6  10 -10    3.88    0.58
   6 -10 -10    4.25    0.62
   5  10 -10   22.41    1.36
   5 -10 -10   20.00    1.26
   4  10 -10   -0.02    0.37
   4 -10 -10    0.36    0.28
   3  10 -10   18.13    1.33
   3 -10 -10   21.16    1.22
   2  10 -10   10.38    1.03
   1  10 -10  109.54    3.28
   1 -10 -10  105.87    2.86
   0  10 -10    1.39    0.53
   0 -10 -10    1.16    0.38
  -1  10 -10    2.66    0.60
  -1 -10 -10    3.37    0.60
  -2  10 -10    7.50    0.86
  -2 -10 -10    7.97    0.86
  -3  10 -10    0.65    0.35
  -3 -10 -10    0.67    0.35
  -4  10 -10   15.38    1.05
  -4 -10 -10   15.96    1.12
  -5  10 -10    1.37    0.35
  -5 -10 -10    1.94    0.41
  -6 -10 -10    0.69    0.31
  -6  10 -10    0.04    0.26
  -7 -10 -10   69.17    1.87
  11 -11 -10   32.16    1.07
  10 -11 -10    2.02    0.36
   9 -11 -10    7.04    0.65
   8  11 -10   40.02    1.34
   8 -11 -10   41.37    1.63
   7  11 -10    2.75    0.49
   7 -11 -10    1.02    0.34
   6  11 -10   44.62    1.73
   6 -11 -10   45.33    1.78
   5  11 -10    6.84    0.77
   5 -11 -10    6.37    0.71
   4  11 -10    0.11    0.33
   4 -11 -10   -0.30    0.25
   3  11 -10   40.09    1.87
   2  11 -10  191.72    4.10
   1  11 -10   52.31    2.18
   1 -11 -10   55.69    1.97
   0  11 -10    5.79    0.75
   0 -11 -10    5.85    0.69
  -1  11 -10   11.26    1.01
  -1 -11 -10   11.83    0.98
  -2  11 -10   26.90    1.46
  -2 -11 -10   27.29    1.46
  -3  11 -10   27.45    1.40
  -3 -11 -10   28.79    1.47
  -4  11 -10    9.21    0.76
  -4 -11 -10    9.91    0.85
  -5  11 -10    3.26    0.42
  -5 -11 -10    4.42    0.56
  -6 -11 -10    7.30    0.66
  -7 -11 -10  159.38    2.56
  10 -12 -10   25.96    1.01
   9 -12 -10    6.73    0.60
   8  12 -10    2.01    0.43
   8 -12 -10    1.53    0.35
   7  12 -10   -0.32    0.44
   7 -12 -10    0.78    0.30
   6  12 -10    6.53    0.68
   6 -12 -10    5.04    0.58
   5  12 -10   31.61    1.47
   5 -12 -10   30.01    1.35
   4  12 -10    2.45    0.50
   4 -12 -10    2.55    0.43
   3  12 -10   -0.21    0.36
   2  12 -10  103.26    2.87
   1  12 -10    4.56    0.65
   1 -12 -10    5.26    0.60
   0  12 -10    8.98    0.87
   0 -12 -10    8.76    0.78
  -1  12 -10   12.26    0.97
  -1 -12 -10   12.91    0.96
  -2  12 -10   68.13    2.14
  -2 -12 -10   71.82    2.20
  -3  12 -10    0.20    0.26
  -3 -12 -10    0.63    0.26
  -4  12 -10    0.21    0.24
  -4 -12 -10    0.21    0.26
  -5 -12 -10   41.04    1.49
  -6 -12 -10    3.25    0.42
   9 -13 -10    0.07    0.16
   8 -13 -10   55.02    1.57
   7  13 -10   63.69    1.67
   7 -13 -10   62.03    1.73
   6  13 -10    4.63    0.56
   6 -13 -10    3.56    0.46
   5  13 -10    5.99    0.65
   5 -13 -10    4.25    0.49
   4  13 -10   36.21    1.55
   3  13 -10   16.72    1.09
   2  13 -10   13.18    0.99
   1  13 -10   38.48    1.66
   0  13 -10   29.40    1.43
   0 -13 -10   29.01    1.28
  -1  13 -10   13.12    0.93
  -1 -13 -10   12.97    0.89
  -2  13 -10    0.58    0.27
  -2 -13 -10    0.82    0.28
  -3  13 -10   23.47    1.05
  -3 -13 -10   22.74    1.15
  -4  13 -10   11.29    0.63
  -4 -13 -10   12.12    0.80
  -5 -13 -10   60.94    1.64
   7  14 -10   16.63    0.81
   7 -14 -10   13.69    0.71
   6  14 -10    7.89    0.68
   6 -14 -10    6.65    0.52
   5  14 -10   19.26    1.03
   5 -14 -10   16.40    0.78
   4  14 -10    5.36    0.62
   3  14 -10   43.44    1.62
   2  14 -10   24.86    1.25
   1  14 -10    0.50    0.32
   0  14 -10   24.91    1.20
   0 -14 -10   24.93    1.07
  -1  14 -10   25.27    1.17
  -1 -14 -10   25.19    1.10
  -2  14 -10    0.47    0.29
  -2 -14 -10   -0.13    0.21
  -3  14 -10   18.08    0.80
  -3 -14 -10   18.24    0.92
  -4 -14 -10    0.36    0.21
   6  15 -10   10.05    0.66
   5  15 -10    1.69    0.44
   4  15 -10   26.97    1.16
   3  15 -10   76.46    1.95
   2  15 -10   69.52    1.87
   1  15 -10   58.34    1.69
   0  15 -10   56.35    1.61
  -1  15 -10    9.64    0.65
  -2 -15 -10   60.49    1.46
   4  16 -10   15.70    0.80
   3  16 -10    6.71    0.59
   2  16 -10   15.04    0.80
   1  16 -10   22.42    0.93
  11   0 -11    0.31    0.21
  10   0 -11    0.42    0.26
   9   0 -11    0.45    0.28
   8   0 -11    0.47    0.36
   7   0 -11    0.05    0.28
   6   0 -11    0.33    0.35
   5   0 -11    0.43    0.36
   4   0 -11    0.20    0.36
   4   0 -11    1.68    0.41
   3   0 -11    0.15    0.28
   3   0 -11    0.41    0.38
   2   0 -11    0.16    0.26
   2   0 -11   -0.02    0.31
   1   0 -11    0.24    0.32
   1   0 -11    0.90    0.40
   0   0 -11    0.28    0.39
  -1   0 -11    0.52    0.32
  -2   0 -11    0.00    0.29
  -3   0 -11   -0.03    0.27
  -4   0 -11   -0.18    0.33
  -5   0 -11    0.26    0.32
  -6   0 -11    0.47    0.30
  -6   0 -11   -0.07    0.29
  -7   0 -11   -0.09    0.24
   8   0  11   -0.06    0.19
  11   1 -11  200.64    2.87
  11  -1 -11  202.46    2.96
  10   1 -11  113.16    2.49
  10  -1 -11  119.85    2.60
   9   1 -11    6.81    0.71
   9  -1 -11    7.18    0.72
   8   1 -11   35.73    1.63
   8  -1 -11   36.74    1.67
   7   1 -11   36.64    1.73
   7  -1 -11   36.93    1.75
   6   1 -11   12.88    1.07
   6  -1 -11   12.55    1.05
   5   1 -11  122.44    3.23
   5  -1 -11  120.91    3.21
   4   1 -11   68.92    2.34
   4  -1 -11   69.03    2.26
   4   1 -11   66.89    2.39
   4  -1 -11   67.61    2.39
   3   1 -11   31.15    1.68
   3  -1 -11   31.12    1.63
   3   1 -11   31.60    1.64
   3  -1 -11   30.99    1.60
   2   1 -11   38.55    1.93
   2  -1 -11   38.09    1.88
   2   1 -11   36.83    1.72
   2  -1 -11   37.22    1.70
   1   1 -11  134.04    3.64
   1  -1 -11  138.76    3.65
   1   1 -11  134.14    3.14
   1  -1 -11  138.82    3.12
   0   1 -11   89.15    2.99
  -1   1 -11   67.29    2.59
  -1   1 -11   67.50    2.29
  -1  -1 -11   68.40    2.32
  -2   1 -11    0.75    0.34
  -2  -1 -11    1.46    0.43
  -2   1 -11    0.89    0.44
  -3   1 -11  106.66    3.13
  -3   1 -11  103.62    2.86
  -3  -1 -11  105.69    2.91
  -4   1 -11    2.09    0.45
  -4  -1 -11    1.84    0.43
  -4   1 -11    1.82    0.48
  -5   1 -11    1.40    0.40
  -5  -1 -11    1.73    0.43
  -5   1 -11    1.50    0.41
  -6  -1 -11    2.95    0.49
  -6   1 -11    2.37    0.44
   7  -1  11    3.26    0.49
  -7   1 -11    3.01    0.43
  -7  -1 -11    2.89    0.42
   8  -1  11    3.36    0.41
   8   1  11    3.18    0.40
  11   2 -11    9.02    0.62
  11  -2 -11    8.69    0.63
  10   2 -11   17.28    0.98
  10  -2 -11   18.98    1.05
   9   2 -11   28.90    1.36
   9  -2 -11   26.51    1.34
   8   2 -11    0.54    0.32
   8  -2 -11    0.85    0.36
   7   2 -11   -0.01    0.31
   7  -2 -11    0.66    0.35
   6   2 -11    0.44    0.32
   6  -2 -11    0.24    0.31
   5   2 -11    3.70    0.63
   5  -2 -11    2.98    0.55
   5   2 -11    3.04    0.52
   4   2 -11    0.49    0.37
   4  -2 -11    0.67    0.35
   4   2 -11    0.83    0.35
   3   2 -11    2.43    0.56
   3  -2 -11    2.01    0.48
   3   2 -11    1.81    0.50
   3  -2 -11    1.83    0.46
   2   2 -11    0.48    0.32
   2  -2 -11    0.33    0.29
   2   2 -11    0.32    0.36
   2  -2 -11   -0.27    0.34
   1   2 -11   11.93    1.12
   1  -2 -11   11.46    0.90
   0  -2 -11    1.43    0.42
   0   2 -11    1.52    0.51
  -1   2 -11   38.51    1.98
  -1   2 -11   37.95    1.70
  -1  -2 -11   35.91    1.70
  -2   2 -11   19.70    1.42
  -2   2 -11   18.96    1.23
  -2  -2 -11   16.82    1.19
  -3   2 -11   20.97    1.40
  -3   2 -11   20.29    1.27
  -3  -2 -11   20.56    1.29
  -4   2 -11   13.89    1.09
  -4   2 -11   12.16    0.97
  -4  -2 -11   13.40    1.04
  -5  -2 -11    3.93    0.56
  -5   2 -11    4.10    0.57
  -6   2 -11   10.85    0.83
  -6  -2 -11   11.08    0.86
  -7   2 -11   13.85    0.80
  -7  -2 -11   13.63    0.85
  -7  -2 -11   12.65    0.85
   7  -2  11   13.19    0.88
   8  -2  11    1.79    0.31
   8   2  11    2.64    0.36
  11  -3 -11    5.45    0.50
  10   3 -11  128.16    2.53
  10  -3 -11  126.75    2.64
   9   3 -11    6.08    0.64
   9  -3 -11    6.89    0.70
   8   3 -11   13.97    1.02
   8  -3 -11   13.76    1.02
   7   3 -11    8.68    0.85
   7  -3 -11    9.33    0.87
   6   3 -11   77.21    2.51
   6  -3 -11   78.15    2.52
   5   3 -11   15.90    1.08
   5   3 -11   15.44    1.17
   5  -3 -11   16.47    1.18
   4   3 -11   90.63    2.72
   4   3 -11   90.83    2.77
   4  -3 -11   84.91    2.61
   3   3 -11   61.04    2.35
   3  -3 -11   63.71    2.21
   3   3 -11   61.75    2.26
   3  -3 -11   66.34    2.26
   2  -3 -11    7.76    0.83
   2   3 -11    6.99    0.80
   2  -3 -11    7.30    0.76
   2   3 -11    7.09    0.87
   1   3 -11   69.61    2.62
   0   3 -11   58.94    2.43
   0  -3 -11   60.50    2.11
  -1   3 -11   70.20    2.63
  -1  -3 -11   69.45    2.32
  -2   3 -11   43.71    2.06
  -2  -3 -11   42.80    1.83
  -3   3 -11  196.88    4.16
  -3  -3 -11  190.42    3.84
  -4   3 -11   27.55    1.50
  -4  -3 -11   25.68    1.41
  -5   3 -11   81.42    2.39
  -5  -3 -11   79.32    2.34
  -6   3 -11   40.94    1.53
  -6  -3 -11   40.79    1.60
   6  -3  11   39.48    1.57
  -7  -3 -11    0.27    0.23
   7  -3  11   -0.08    0.25
  -7   3 -11    0.24    0.20
  11  -4 -11   71.02    1.71
  10  -4 -11   79.40    2.05
   9   4 -11    5.41    0.59
   9  -4 -11    6.33    0.67
   8   4 -11   52.00    1.88
   8  -4 -11   51.73    1.90
   7   4 -11   -0.04    0.27
   7  -4 -11    0.00    0.29
   6   4 -11   12.90    1.04
   6  -4 -11   11.54    0.99
   5   4 -11    9.33    0.84
   5   4 -11    9.25    0.92
   5  -4 -11    9.68    0.90
   4   4 -11    2.91    0.55
   4  -4 -11    1.71    0.41
   4   4 -11    2.43    0.51
   3   4 -11    0.29    0.31
   3  -4 -11    0.04    0.27
   3   4 -11    0.49    0.40
   2  -4 -11    5.00    0.63
   2   4 -11    4.67    0.71
   2  -4 -11    5.37    0.67
   1   4 -11    7.81    0.91
   0   4 -11   43.51    2.08
   0  -4 -11   40.68    1.73
  -1  -4 -11    6.89    0.77
  -1   4 -11    6.97    0.84
  -2  -4 -11    2.49    0.53
  -2   4 -11    1.46    0.48
  -3   4 -11   49.28    2.05
  -3  -4 -11   51.05    1.96
  -4   4 -11   57.58    2.11
  -4  -4 -11   54.18    1.99
  -5   4 -11   13.38    0.97
  -5  -4 -11   10.88    0.88
  -6   4 -11   13.18    0.85
   6  -4  11   14.30    0.93
  -6  -4 -11   13.46    0.91
   7  -4  11   22.19    1.05
  -7  -4 -11   23.85    1.09
  11  -5 -11    9.13    0.60
  10  -5 -11    5.95    0.57
   9  -5 -11   10.38    0.81
   8  -5 -11   11.31    0.90
   7   5 -11    2.22    0.45
   7  -5 -11    1.91    0.44
   6   5 -11  113.56    2.54
   6   5 -11  110.80    2.90
   6  -5 -11  108.61    2.84
   5   5 -11   35.64    1.58
   5   5 -11   36.34    1.71
   5  -5 -11   38.57    1.71
   4  -5 -11    0.25    0.24
   4   5 -11    0.61    0.33
   3   5 -11   25.95    1.51
   3  -5 -11   27.42    1.39
   2   5 -11   26.25    1.55
   2  -5 -11   25.79    1.28
   1   5 -11  183.34    4.14
   0   5 -11   20.86    1.44
   0  -5 -11   20.00    1.21
  -1   5 -11   51.08    2.17
  -1  -5 -11   48.35    1.90
  -2  -5 -11    1.76    0.46
  -2   5 -11    2.00    0.52
  -3   5 -11  104.80    2.91
  -3  -5 -11  105.08    2.76
  -4  -5 -11    3.16    0.52
   4  -5  11    4.05    0.56
  -4   5 -11    3.84    0.58
  -5  -5 -11    2.13    0.42
   5  -5  11    2.12    0.42
  -5   5 -11    2.27    0.42
  -6  -5 -11    3.50    0.48
   6  -5  11    3.93    0.48
  -6   5 -11    3.68    0.45
   7  -5  11   28.04    1.09
  -7  -5 -11   27.94    1.13
  11  -6 -11   33.05    1.07
  10  -6 -11    0.58    0.25
   9  -6 -11    5.58    0.59
   8  -6 -11    0.30    0.27
   7  -6 -11    5.92    0.66
   6   6 -11    0.43    0.24
   6  -6 -11    0.59    0.27
   5   6 -11   14.16    1.00
   5  -6 -11   15.09    1.06
   4   6 -11    9.67    0.89
   4  -6 -11    9.85    0.84
   3  -6 -11    5.64    0.63
   3   6 -11    5.39    0.72
   2   6 -11   32.17    1.69
   1   6 -11    1.21    0.46
   0   6 -11    9.87    1.00
   0  -6 -11    9.50    0.83
  -1   6 -11   59.28    2.28
  -1  -6 -11   55.69    1.98
  -2   6 -11   15.60    1.17
  -2  -6 -11   16.10    1.09
  -3   6 -11  108.88    2.87
   3  -6  11  107.30    2.48
  -3  -6 -11  108.56    2.73
  -4   6 -11   17.24    1.08
   4  -6  11   16.69    0.99
  -4  -6 -11   18.35    1.11
  -5  -6 -11    0.41    0.29
   5  -6  11    0.12    0.23
  -5   6 -11    0.33    0.27
  -6   6 -11   41.14    1.27
   6  -6  11   39.75    1.32
  -6  -6 -11   42.86    1.49
  -7  -6 -11    0.26    0.17
  10  -7 -11    3.91    0.44
   9  -7 -11    4.28    0.51
   8  -7 -11    0.41    0.27
   7  -7 -11    0.98    0.34
   6   7 -11    0.00    0.25
   6  -7 -11   -0.08    0.22
   5   7 -11    0.12    0.25
   5  -7 -11    0.21    0.23
   4   7 -11   39.72    1.71
   4  -7 -11   38.95    1.57
   3  -7 -11    4.41    0.54
   3   7 -11    4.05    0.61
   2   7 -11  101.87    2.92
   1   7 -11   14.86    1.15
   0   7 -11   24.68    1.47
   0  -7 -11   22.98    1.23
  -1  -7 -11    1.11    0.34
  -1   7 -11    1.18    0.45
  -2   7 -11   37.50    1.70
  -2  -7 -11   35.96    1.56
  -3  -7 -11    5.10    0.61
  -3   7 -11    4.24    0.60
  -4  -7 -11    1.20    0.37
  -4   7 -11    0.10    0.24
  -5   7 -11   14.06    0.84
   5  -7  11   12.38    0.73
  -5  -7 -11   13.82    0.89
  -6  -7 -11    1.04    0.28
  10  -8 -11    2.03    0.31
   9  -8 -11  101.20    2.15
   8  -8 -11    3.54    0.47
   7  -8 -11    7.31    0.67
   6   8 -11   15.17    0.89
   6  -8 -11   15.83    0.98
   5   8 -11    0.49    0.27
   5  -8 -11    1.06    0.30
   4   8 -11   83.68    2.39
   4  -8 -11   84.35    2.17
   3   8 -11   31.18    1.54
   3  -8 -11   32.66    1.29
   2   8 -11   20.65    1.29
   1   8 -11   26.53    1.47
   0  -8 -11    5.62    0.61
   0   8 -11    5.81    0.74
  -1  -8 -11    0.37    0.25
  -1   8 -11    0.92    0.40
  -2  -8 -11    1.55    0.37
  -2   8 -11    1.04    0.33
  -3   8 -11   14.84    0.99
  -3  -8 -11   14.56    0.95
  -4   8 -11   73.22    1.96
  -4  -8 -11   72.92    2.02
  -5   8 -11  181.36    2.64
  -5  -8 -11  191.53    3.06
  -6  -8 -11   48.01    1.38
   9  -9 -11   10.13    0.64
   8  -9 -11   27.73    1.13
   7  -9 -11   56.61    1.69
   6   9 -11    5.57    0.56
   6  -9 -11    5.42    0.56
   5   9 -11    0.48    0.28
   5  -9 -11    0.26    0.22
   4   9 -11    6.54    0.67
   4  -9 -11    5.15    0.53
   3   9 -11   36.70    1.60
   2   9 -11   34.80    1.60
   1   9 -11   56.65    2.04
   1  -9 -11   57.15    1.71
   0   9 -11   29.89    1.47
   0  -9 -11   29.49    1.28
  -1   9 -11   13.51    0.99
  -1  -9 -11   14.24    0.92
  -2  -9 -11    2.88    0.47
  -2   9 -11    2.13    0.41
  -3  -9 -11    0.27    0.22
  -3   9 -11   -0.22    0.30
  -4   9 -11    8.67    0.64
  -4  -9 -11    9.00    0.69
  -5  -9 -11    0.37    0.22
   8 -10 -11    1.20    0.26
   7 -10 -11  143.11    2.44
   6  10 -11    4.69    0.49
   6 -10 -11    3.81    0.44
   5 -10 -11    4.48    0.48
   5  10 -11    4.57    0.51
   4  10 -11  110.50    2.51
   3  10 -11   32.49    1.42
   2  10 -11    8.21    0.76
   1  10 -11   62.77    2.03
   1 -10 -11   62.02    1.66
   0 -10 -11    0.72    0.29
   0  10 -11    0.13    0.31
  -1  10 -11   26.53    1.27
  -1 -10 -11   26.87    1.18
  -2 -10 -11    0.59    0.25
  -2  10 -11    0.01    0.29
  -3  10 -11  123.80    2.36
  -3 -10 -11  128.26    2.47
  -4 -10 -11  108.18    2.14
   6  11 -11    8.72    0.59
   6 -11 -11    8.83    0.56
   5  11 -11   27.36    1.11
   4  11 -11   21.59    1.06
   3  11 -11    8.84    0.73
   2  11 -11   43.51    1.58
   1  11 -11   24.21    1.19
   0  11 -11   15.63    0.95
   0 -11 -11   15.65    0.83
  -1 -11 -11    0.01    0.18
  -1  11 -11   -0.02    0.26
  -2  11 -11   72.92    1.80
  -2 -11 -11   74.26    1.79
  -3  11 -11   69.89    1.55
  -3 -11 -11   74.36    1.71
   5  12 -11   55.11    1.42
   4  12 -11   20.77    0.96
   3  12 -11   69.94    1.81
   2  12 -11   12.28    0.80
   1  12 -11  146.08    2.64
   0  12 -11   19.20    0.95
  -1 -12 -11    0.37    0.16
  -1  12 -11   -0.11    0.22
  -2  12 -11    3.27    0.36
   4  13 -11    7.97    0.56
   3  13 -11   10.08    0.65
   2  13 -11    5.77    0.52
   1  13 -11    5.31    0.50
   0  13 -11    0.64    0.25
   9   0 -12   23.27    0.90
   8   0 -12   26.20    1.07
   7   0 -12   31.10    1.23
   6   0 -12  187.67    3.11
   5   0 -12    0.70    0.25
   4   0 -12   14.91    0.90
   3   0 -12    0.24    0.23
   2   0 -12   87.20    2.22
   1   0 -12  202.84    3.50
   0   0 -12    9.03    0.78
  -1   0 -12   59.82    1.93
  -2   0 -12    7.48    0.70
  -3   0 -12    2.99    0.46
  -4   0 -12    0.92    0.28
   9  -1 -12    2.72    0.33
   8   1 -12    2.36    0.35
   8  -1 -12    2.27    0.35
   7   1 -12    6.14    0.57
   7  -1 -12    6.99    0.60
   6   1 -12    1.55    0.36
   6  -1 -12    2.17    0.38
   5   1 -12    0.38    0.24
   5  -1 -12    0.32    0.25
   4  -1 -12   20.21    1.03
   3  -1 -12    1.33    0.32
   3   1 -12    0.79    0.28
   3  -1 -12    0.74    0.27
   2   1 -12   78.02    2.12
   2  -1 -12   76.68    2.04
   1   1 -12    4.13    0.55
   1  -1 -12    3.30    0.50
   0   1 -12    1.26    0.37
   0  -1 -12    0.71    0.31
  -1   1 -12    7.72    0.72
  -1  -1 -12    7.74    0.71
  -2   1 -12    0.02    0.23
  -2  -1 -12   -0.11    0.24
  -3   1 -12   20.45    1.06
  -3  -1 -12   19.92    1.05
  -4  -1 -12    4.29    0.48
  -4   1 -12    4.19    0.47
   9  -2 -12   46.74    1.25
   8  -2 -12    2.74    0.38
   7  -2 -12   19.46    0.96
   6  -2 -12   50.46    1.58
   5  -2 -12  124.85    2.49
   4   2 -12   56.33    1.55
   4  -2 -12   55.19    1.64
   3   2 -12   25.35    1.16
   3  -2 -12   27.51    1.12
   2   2 -12   11.06    0.83
   2  -2 -12   11.45    0.79
   1   2 -12   17.17    1.05
   1  -2 -12   18.36    1.03
   0   2 -12   57.25    1.90
   0  -2 -12   54.63    1.79
  -1   2 -12    9.89    0.80
  -1  -2 -12   10.77    0.81
  -2   2 -12    4.08    0.53
  -2  -2 -12    4.95    0.57
  -3   2 -12   36.72    1.39
  -3  -2 -12   35.63    1.37
  -4   2 -12   62.44    1.63
  -4  -2 -12   65.63    1.70
   8  -3 -12    5.74    0.50
   7  -3 -12   29.36    1.14
   6  -3 -12    0.63    0.27
   5  -3 -12    9.49    0.70
   4  -3 -12    3.21    0.43
   4   3 -12    2.59    0.39
   3  -3 -12    0.07    0.20
   3   3 -12    0.38    0.25
   2   3 -12    6.26    0.64
   2  -3 -12    6.70    0.58
   1   3 -12   60.30    1.92
   1  -3 -12   57.95    1.74
   0   3 -12   98.31    2.46
   0  -3 -12   93.06    2.26
  -1   3 -12    0.15    0.26
  -1  -3 -12    0.10    0.23
  -2  -3 -12   -0.13    0.19
  -2   3 -12    0.15    0.23
  -2  -3 -12   -0.21    0.26
  -3   3 -12   21.24    1.04
  -3  -3 -12   22.03    1.05
  -4   3 -12    0.85    0.25
  -4  -3 -12    0.82    0.24
   8  -4 -12    9.42    0.60
   7  -4 -12   17.38    0.86
   6  -4 -12   20.41    0.95
   5  -4 -12   71.78    1.77
   4  -4 -12    4.00    0.45
   4   4 -12    2.85    0.40
   3   4 -12   12.78    0.82
   3  -4 -12   11.24    0.66
   2   4 -12  162.49    3.02
   1   4 -12   61.38    1.90
   1  -4 -12   61.98    1.69
   0   4 -12   35.10    1.45
   0  -4 -12   36.22    1.36
  -1   4 -12    6.99    0.67
  -1  -4 -12    8.59    0.69
  -2   4 -12   29.51    1.26
  -2  -4 -12   30.54    1.24
  -3   4 -12    0.09    0.20
  -3  -4 -12    0.20    0.22
  -4   4 -12   35.93    1.14
  -4  -4 -12   34.61    1.15
   7  -5 -12    0.72    0.22
   6  -5 -12    0.12    0.16
   5  -5 -12   42.75    1.30
   4   5 -12   11.24    0.70
   4  -5 -12   11.23    0.66
   3   5 -12   10.35    0.74
   2   5 -12   64.47    1.87
   1   5 -12   10.73    0.80
   1  -5 -12    9.52    0.63
   0   5 -12    0.22    0.25
   0  -5 -12    0.18    0.20
  -1   5 -12   15.16    0.92
  -1  -5 -12   13.95    0.81
  -2   5 -12   19.17    0.99
  -2  -5 -12   20.19    0.96
  -3   5 -12    7.42    0.58
  -3  -5 -12    7.41    0.57
   6  -6 -12    4.22    0.40
   5  -6 -12  122.05    2.00
   4   6 -12    0.63    0.22
   3   6 -12   13.15    0.79
   2   6 -12   63.26    1.78
   1   6 -12    0.96    0.30
   0   6 -12    7.24    0.64
   0  -6 -12    6.54    0.51
  -1   6 -12   18.36    0.96
  -1  -6 -12   17.56    0.83
  -2   6 -12    8.83    0.64
  -2  -6 -12    8.52    0.58
  -3   6 -12    0.18    0.20
   4   7 -12   26.17    0.97
   3   7 -12    1.17    0.27
   2   7 -12    1.51    0.31
   1   7 -12   48.61    1.53
   0   7 -12    1.22    0.28
  -1   7 -12    4.99    0.49
  -2   7 -12   35.96    1.16
   3   8 -12   17.32    0.81
   2   8 -12    2.59    0.36
   1   8 -12   -0.13    0.23
   0   8 -12    0.03    0.22
  -1   8 -12   28.12    1.02
   2   9 -12    2.80    0.34
   1   9 -12   38.77    1.16
   0   0   0    0.00    0.00


TITL 20160307a in P2(1)/c
REM P2(1)/c (#14 in standard setting)
CELL 1.54184  15.969050  20.991523  10.221722  90.0000  96.6779  90.0000
ZERR   64.00   0.000126   0.000162   0.000077   0.0000   0.0007   0.0000
LATT  1
SYMM -x, y+1/2,-z+1/2
SFAC C H N O
UNIT 64.00 64.00 64.00 64.00
TREF
HKLF 4
END
_computing_structure_solution     'SHELXT 2014/5 (Sheldrick, 2014)'
;
_shelx_hkl_checksum              42853
_shelx_shelxl_version_number     2014/7
_olex2_submission_special_instructions 'No special instructions were received'
_oxdiff_exptl_absorpt_empirical_details
;
Empirical correction (ABSPACK) includes:
- Absorption correction using spherical harmonics
- Frame scaling
;
_oxdiff_exptl_absorpt_empirical_full_max 1.334
_oxdiff_exptl_absorpt_empirical_full_min 0.799
loop_
_space_group_symop_operation_xyz
'x, y, z'
'-x, y+1/2, -z+1/2'
'-x, -y, -z'
'x, -y-1/2, z-1/2'
loop_
_atom_site_label
_atom_site_type_symbol
_atom_site_fract_x
_atom_site_fract_y
_atom_site_fract_z
_atom_site_U_iso_or_equiv
_atom_site_adp_type
_atom_site_occupancy
_atom_site_site_symmetry_order
_atom_site_calc_flag
_atom_site_refinement_flags_posn
C1 C 0.13707(8) 0.56689(6) 0.40609(12) 0.0123(2) Uani 1 1 d .
C2 C 0.07162(8) 0.57147(6) 0.48711(12) 0.0119(2) Uani 1 1 d .
C3 C 0.08604(8) 0.54480(6) 0.61315(12) 0.0124(2) Uani 1 1 d .
H3 H 0.0443 0.5473 0.6693 0.015 Uiso 1 1 calc R
C4 C 0.16161(8) 0.51478(6) 0.65558(12) 0.0122(2) Uani 1 1 d .
C5 C 0.22767(8) 0.51172(6) 0.57478(12) 0.0120(2) Uani 1 1 d .
C6 C 0.21421(8) 0.53792(6) 0.45057(12) 0.0127(2) Uani 1 1 d .
H6 H 0.2567 0.5364 0.3957 0.015 Uiso 1 1 calc R
C7 C -0.06164(8) 0.61312(6) 0.53365(13) 0.0158(3) Uani 1 1 d .
H7A H -0.0361 0.6386 0.6068 0.019 Uiso 1 1 calc R
H7B H -0.0805 0.5732 0.5681 0.019 Uiso 1 1 calc R
C8 C -0.13567(8) 0.64852(6) 0.46037(14) 0.0192(3) Uani 1 1 d .
H8 H -0.1603 0.6215 0.3877 0.023 Uiso 1 1 calc R
C9 C -0.10850(10) 0.71116(7) 0.40247(16) 0.0270(3) Uani 1 1 d .
H9A H -0.0848 0.7386 0.4723 0.041 Uiso 1 1 calc GR
H9B H -0.1566 0.7315 0.3549 0.041 Uiso 1 1 calc GR
H9C H -0.0670 0.7028 0.3438 0.041 Uiso 1 1 calc GR
C10 C -0.20229(9) 0.65914(8) 0.55405(17) 0.0295(3) Uani 1 1 d .
H10A H -0.2169 0.6190 0.5905 0.044 Uiso 1 1 calc GR
H10B H -0.2516 0.6779 0.5066 0.044 Uiso 1 1 calc GR
H10C H -0.1802 0.6872 0.6239 0.044 Uiso 1 1 calc GR
C11 C 0.11407(8) 0.48111(6) 0.86021(12) 0.0150(3) Uani 1 1 d .
H11A H 0.0630 0.4640 0.8123 0.018 Uiso 1 1 calc R
H11B H 0.1014 0.5227 0.8944 0.018 Uiso 1 1 calc R
C12 C 0.14636(8) 0.43680(7) 0.97243(13) 0.0176(3) Uani 1 1 d .
H12 H 0.2011 0.4528 1.0125 0.021 Uiso 1 1 calc R
C13 C 0.08510(11) 0.43807(8) 1.07668(15) 0.0304(3) Uani 1 1 d .
H13A H 0.0799 0.4809 1.1076 0.046 Uiso 1 1 calc GR
H13B H 0.1061 0.4112 1.1491 0.046 Uiso 1 1 calc GR
H13C H 0.0309 0.4230 1.0388 0.046 Uiso 1 1 calc GR
C14 C 0.15846(10) 0.36947(7) 0.92348(16) 0.0277(3) Uani 1 1 d .
H14A H 0.1054 0.3530 0.8838 0.042 Uiso 1 1 calc GR
H14B H 0.1797 0.3429 0.9962 0.042 Uiso 1 1 calc GR
H14C H 0.1979 0.3700 0.8595 0.042 Uiso 1 1 calc GR
C15 C 0.36467(8) 0.45812(6) 0.56312(12) 0.0119(2) Uani 1 1 d .
C16 C 0.49857(7) 0.39860(6) 0.60928(12) 0.0112(2) Uani 1 1 d .
C17 C 0.52579(8) 0.40208(6) 0.48596(12) 0.0118(2) Uani 1 1 d .
H17 H 0.4971 0.4276 0.4212 0.014 Uiso 1 1 calc R
C18 C 0.59614(8) 0.36743(6) 0.45825(11) 0.0113(2) Uani 1 1 d .
C19 C 0.64149(7) 0.32791(6) 0.55227(12) 0.0117(2) Uani 1 1 d .
C20 C 0.61395(8) 0.32457(6) 0.67695(12) 0.0128(2) Uani 1 1 d .
H20 H 0.6429 0.2992 0.7417 0.015 Uiso 1 1 calc R
C21 C 0.54362(8) 0.35892(6) 0.70506(12) 0.0116(2) Uani 1 1 d .
C22 C 0.75386(8) 0.25235(6) 0.60930(12) 0.0143(2) Uani 1 1 d .
H22A H 0.7171 0.2221 0.6460 0.017 Uiso 1 1 calc R
H22B H 0.7830 0.2772 0.6807 0.017 Uiso 1 1 calc R
C23 C 0.81687(8) 0.21787(6) 0.53365(12) 0.0137(2) Uani 1 1 d .
H23 H 0.7852 0.1935 0.4626 0.016 Uiso 1 1 calc R
C24 C 0.87381(9) 0.26460(7) 0.47177(14) 0.0202(3) Uani 1 1 d .
H24A H 0.8398 0.2943 0.4174 0.030 Uiso 1 1 calc GR
H24B H 0.9096 0.2417 0.4190 0.030 Uiso 1 1 calc GR
H24C H 0.9079 0.2873 0.5400 0.030 Uiso 1 1 calc GR
C25 C 0.86898(9) 0.17113(7) 0.62403(14) 0.0201(3) Uani 1 1 d .
H25A H 0.9045 0.1943 0.6897 0.030 Uiso 1 1 calc GR
H25B H 0.9032 0.1457 0.5730 0.030 Uiso 1 1 calc GR
H25C H 0.8319 0.1439 0.6662 0.030 Uiso 1 1 calc GR
C26 C 0.52921(8) 0.30886(7) 0.91857(13) 0.0185(3) Uani 1 1 d .
H26A H 0.5491 0.3261 1.0046 0.022 Uiso 1 1 calc R
H26B H 0.5725 0.2808 0.8921 0.022 Uiso 1 1 calc R
C27 C 0.44885(9) 0.27137(7) 0.92646(13) 0.0190(3) Uani 1 1 d .
H27 H 0.4613 0.2382 0.9934 0.023 Uiso 1 1 calc R
C28 C 0.41993(12) 0.23817(8) 0.79635(16) 0.0336(4) Uani 1 1 d .
H28A H 0.4032 0.2695 0.7301 0.050 Uiso 1 1 calc GR
H28B H 0.3730 0.2109 0.8072 0.050 Uiso 1 1 calc GR
H28C H 0.4654 0.2132 0.7698 0.050 Uiso 1 1 calc GR
C29 C 0.37940(10) 0.31318(7) 0.97010(16) 0.0274(3) Uani 1 1 d .
H29A H 0.3994 0.3337 1.0518 0.041 Uiso 1 1 calc GR
H29B H 0.3312 0.2874 0.9819 0.041 Uiso 1 1 calc GR
H29C H 0.3638 0.3449 0.9041 0.041 Uiso 1 1 calc GR
N1 N 0.13000(7) 0.59430(5) 0.27487(10) 0.0149(2) Uani 1 1 d .
N2 N 0.30301(7) 0.48341(5) 0.63080(10) 0.0135(2) Uani 1 1 d .
H2 H 0.3114 0.4817 0.7154 0.016 Uiso 1 1 calc R
N3 N 0.42971(7) 0.43247(5) 0.64749(10) 0.0132(2) Uani 1 1 d .
H3A H 0.4279 0.4377 0.7306 0.016 Uiso 1 1 calc R
N4 N 0.61975(7) 0.37311(5) 0.32594(10) 0.0131(2) Uani 1 1 d .
O1 O 0.06288(7) 0.61507(7) 0.22401(11) 0.0356(3) Uani 1 1 d .
O2 O 0.19363(7) 0.59685(7) 0.21858(11) 0.0419(3) Uani 1 1 d .
O3 O -0.00128(5) 0.60108(4) 0.44181(9) 0.01446(18) Uani 1 1 d .
O4 O 0.17923(5) 0.48640(4) 0.77438(9) 0.01490(19) Uani 1 1 d .
O5 O 0.36210(6) 0.45804(5) 0.44318(9) 0.01661(19) Uani 1 1 d .
O6 O 0.56478(6) 0.38896(5) 0.23681(9) 0.0232(2) Uani 1 1 d .
O7 O 0.69308(6) 0.36242(5) 0.30616(9) 0.0188(2) Uani 1 1 d .
O8 O 0.70597(6) 0.29336(4) 0.51540(9) 0.01581(19) Uani 1 1 d .
O9 O 0.51422(6) 0.36045(4) 0.82427(8) 0.01563(19) Uani 1 1 d .
C30 C 0.39315(9) 0.48071(7) 1.15335(12) 0.0183(3) Uani 1 1 d .
H30A H 0.4009 0.5117 1.2228 0.027 Uiso 1 1 calc GR
H30B H 0.4359 0.4485 1.1679 0.027 Uiso 1 1 calc GR
H30C H 0.3386 0.4614 1.1522 0.027 Uiso 1 1 calc GR
C31 C 0.31455(8) 0.57306(6) 1.00343(13) 0.0156(3) Uani 1 1 d .
H31A H 0.2640 0.5495 1.0123 0.023 Uiso 1 1 calc GR
H31B H 0.3072 0.5974 0.9234 0.023 Uiso 1 1 calc GR
H31C H 0.3262 0.6013 1.0771 0.023 Uiso 1 1 calc GR
O10 O 0.37161(6) 0.46988(5) 0.89528(9) 0.0181(2) Uani 1 1 d .
S1 S 0.40069(2) 0.51894(2) 0.99887(3) 0.01318(8) Uani 1 1 d .
loop_
_atom_site_aniso_label
_atom_site_aniso_U_11
_atom_site_aniso_U_22
_atom_site_aniso_U_33
_atom_site_aniso_U_23
_atom_site_aniso_U_13
_atom_site_aniso_U_12
C1 0.0127(6) 0.0116(6) 0.0124(6) 0.0010(5) 0.0009(4) -0.0003(5)
C2 0.0102(5) 0.0091(5) 0.0161(6) -0.0012(4) 0.0002(4) 0.0005(4)
C3 0.0107(6) 0.0126(6) 0.0144(6) -0.0006(5) 0.0031(4) 0.0000(5)
C4 0.0135(6) 0.0112(6) 0.0118(5) 0.0001(4) 0.0013(4) -0.0010(5)
C5 0.0100(6) 0.0120(6) 0.0139(6) -0.0009(5) 0.0011(4) 0.0009(4)
C6 0.0113(6) 0.0134(6) 0.0136(6) -0.0001(5) 0.0025(4) 0.0004(5)
C7 0.0125(6) 0.0166(6) 0.0184(6) -0.0027(5) 0.0027(5) 0.0029(5)
C8 0.0134(6) 0.0169(6) 0.0264(7) -0.0037(5) -0.0016(5) 0.0040(5)
C9 0.0226(7) 0.0172(7) 0.0396(9) 0.0014(6) -0.0034(6) 0.0058(6)
C10 0.0176(7) 0.0316(8) 0.0395(9) -0.0076(7) 0.0049(6) 0.0080(6)
C11 0.0127(6) 0.0180(6) 0.0151(6) 0.0018(5) 0.0055(5) -0.0002(5)
C12 0.0143(6) 0.0227(7) 0.0157(6) 0.0049(5) 0.0013(5) -0.0027(5)
C13 0.0337(8) 0.0373(9) 0.0225(7) 0.0095(7) 0.0128(6) 0.0023(7)
C14 0.0299(8) 0.0231(7) 0.0308(8) 0.0099(6) 0.0060(6) 0.0059(6)
C15 0.0111(6) 0.0115(6) 0.0132(6) 0.0009(5) 0.0015(4) 0.0002(4)
C16 0.0099(5) 0.0112(5) 0.0125(5) -0.0009(4) 0.0012(4) 0.0010(4)
C17 0.0119(6) 0.0114(5) 0.0118(5) 0.0011(4) 0.0004(4) 0.0012(4)
C18 0.0119(6) 0.0121(6) 0.0102(5) -0.0003(4) 0.0023(4) -0.0004(5)
C19 0.0102(5) 0.0108(6) 0.0141(6) -0.0009(5) 0.0011(4) 0.0010(4)
C20 0.0131(6) 0.0127(6) 0.0123(6) 0.0017(5) 0.0000(4) 0.0021(5)
C21 0.0126(6) 0.0122(6) 0.0099(5) -0.0002(4) 0.0014(4) -0.0011(5)
C22 0.0145(6) 0.0143(6) 0.0142(6) 0.0032(5) 0.0019(5) 0.0048(5)
C23 0.0131(6) 0.0122(6) 0.0156(6) -0.0005(5) 0.0017(5) 0.0017(5)
C24 0.0168(6) 0.0191(7) 0.0260(7) 0.0026(5) 0.0075(5) 0.0016(5)
C25 0.0180(6) 0.0186(7) 0.0240(7) 0.0036(5) 0.0039(5) 0.0078(5)
C26 0.0183(6) 0.0237(7) 0.0136(6) 0.0085(5) 0.0026(5) 0.0049(5)
C27 0.0228(7) 0.0167(6) 0.0180(6) 0.0040(5) 0.0047(5) 0.0025(5)
C28 0.0434(10) 0.0276(8) 0.0286(8) -0.0032(7) -0.0013(7) -0.0055(7)
C29 0.0231(7) 0.0244(7) 0.0373(8) 0.0107(6) 0.0143(6) 0.0055(6)
N1 0.0140(5) 0.0157(5) 0.0151(5) 0.0021(4) 0.0020(4) 0.0014(4)
N2 0.0116(5) 0.0189(5) 0.0099(5) 0.0011(4) 0.0011(4) 0.0045(4)
N3 0.0126(5) 0.0180(5) 0.0090(5) 0.0005(4) 0.0018(4) 0.0053(4)
N4 0.0152(5) 0.0122(5) 0.0123(5) 0.0008(4) 0.0029(4) 0.0018(4)
O1 0.0168(5) 0.0638(8) 0.0262(5) 0.0233(6) 0.0024(4) 0.0122(5)
O2 0.0251(6) 0.0745(9) 0.0289(6) 0.0278(6) 0.0156(5) 0.0218(6)
O3 0.0104(4) 0.0159(4) 0.0170(4) 0.0017(3) 0.0014(3) 0.0036(3)
O4 0.0114(4) 0.0211(5) 0.0127(4) 0.0046(3) 0.0032(3) 0.0023(3)
O5 0.0147(4) 0.0245(5) 0.0107(4) 0.0011(4) 0.0017(3) 0.0061(4)
O6 0.0182(5) 0.0387(6) 0.0124(4) 0.0063(4) 0.0006(4) 0.0075(4)
O7 0.0154(4) 0.0236(5) 0.0187(4) 0.0036(4) 0.0079(4) 0.0068(4)
O8 0.0155(4) 0.0180(4) 0.0145(4) 0.0039(4) 0.0043(3) 0.0090(4)
O9 0.0176(4) 0.0191(5) 0.0109(4) 0.0039(4) 0.0044(3) 0.0057(4)
C30 0.0217(7) 0.0211(7) 0.0117(6) 0.0027(5) 0.0002(5) 0.0025(5)
C31 0.0153(6) 0.0157(6) 0.0162(6) 0.0008(5) 0.0032(5) 0.0026(5)
O10 0.0212(5) 0.0209(5) 0.0117(4) -0.0033(4) -0.0003(4) 0.0059(4)
S1 0.01258(15) 0.01657(15) 0.01046(14) 0.00079(11) 0.00169(10) 0.00301(11)
loop_
_atom_type_symbol
_atom_type_description
_atom_type_scat_dispersion_real
_atom_type_scat_dispersion_imag
_atom_type_scat_source
C C 0.0181 0.0091 'International Tables Vol C Tables 4.2.6.8 and 6.1.1.4'
H H 0.0000 0.0000 'International Tables Vol C Tables 4.2.6.8 and 6.1.1.4'
N N 0.0311 0.0180 'International Tables Vol C Tables 4.2.6.8 and 6.1.1.4'
O O 0.0492 0.0322 'International Tables Vol C Tables 4.2.6.8 and 6.1.1.4'
S S 0.3331 0.5567 'International Tables Vol C Tables 4.2.6.8 and 6.1.1.4'
loop_
_geom_angle_atom_site_label_1
_geom_angle_atom_site_label_2
_geom_angle_atom_site_label_3
_geom_angle
C2 C1 N1 122.16(11)
C6 C1 C2 121.51(11)
C6 C1 N1 116.28(11)
C3 C2 C1 117.37(11)
O3 C2 C1 119.82(11)
O3 C2 C3 122.81(11)
C2 C3 H3 119.5
C4 C3 C2 120.95(11)
C4 C3 H3 119.5
C3 C4 C5 121.29(11)
O4 C4 C3 124.33(11)
O4 C4 C5 114.38(11)
C6 C5 C4 118.23(11)
C6 C5 N2 125.44(11)
N2 C5 C4 116.30(11)
C1 C6 H6 119.7
C5 C6 C1 120.62(12)
C5 C6 H6 119.7
H7A C7 H7B 108.5
C8 C7 H7A 110.2
C8 C7 H7B 110.2
O3 C7 H7A 110.2
O3 C7 H7B 110.2
O3 C7 C8 107.77(10)
C7 C8 H8 108.2
C7 C8 C9 111.90(11)
C7 C8 C10 108.73(12)
C9 C8 H8 108.2
C9 C8 C10 111.56(12)
C10 C8 H8 108.2
C8 C9 H9A 109.5
C8 C9 H9B 109.5
C8 C9 H9C 109.5
H9A C9 H9B 109.5
H9A C9 H9C 109.5
H9B C9 H9C 109.5
C8 C10 H10A 109.5
C8 C10 H10B 109.5
C8 C10 H10C 109.5
H10A C10 H10B 109.5
H10A C10 H10C 109.5
H10B C10 H10C 109.5
H11A C11 H11B 108.5
C12 C11 H11A 110.2
C12 C11 H11B 110.2
O4 C11 H11A 110.2
O4 C11 H11B 110.2
O4 C11 C12 107.52(10)
C11 C12 H12 108.3
C11 C12 C13 109.09(11)
C13 C12 H12 108.3
C14 C12 C11 111.46(11)
C14 C12 H12 108.3
C14 C12 C13 111.24(12)
C12 C13 H13A 109.5
C12 C13 H13B 109.5
C12 C13 H13C 109.5
H13A C13 H13B 109.5
H13A C13 H13C 109.5
H13B C13 H13C 109.5
C12 C14 H14A 109.5
C12 C14 H14B 109.5
C12 C14 H14C 109.5
H14A C14 H14B 109.5
H14A C14 H14C 109.5
H14B C14 H14C 109.5
N2 C15 N3 111.56(10)
O5 C15 N2 124.28(11)
O5 C15 N3 124.16(11)
C17 C16 C21 118.24(11)
C17 C16 N3 124.55(11)
N3 C16 C21 117.21(11)
C16 C17 H17 119.9
C16 C17 C18 120.25(11)
C18 C17 H17 119.9
C17 C18 C19 122.16(11)
C17 C18 N4 116.71(11)
C19 C18 N4 121.13(11)
C20 C19 C18 117.49(11)
O8 C19 C18 118.42(11)
O8 C19 C20 124.01(11)
C19 C20 H20 119.7
C21 C20 C19 120.60(11)
C21 C20 H20 119.7
C20 C21 C16 121.26(11)
O9 C21 C16 113.96(11)
O9 C21 C20 124.71(11)
H22A C22 H22B 108.7
C23 C22 H22A 110.5
C23 C22 H22B 110.5
O8 C22 H22A 110.5
O8 C22 H22B 110.5
O8 C22 C23 106.07(10)
C22 C23 H23 108.1
C22 C23 C24 111.49(11)
C22 C23 C25 110.15(10)
C24 C23 H23 108.1
C24 C23 C25 110.81(11)
C25 C23 H23 108.1
C23 C24 H24A 109.5
C23 C24 H24B 109.5
C23 C24 H24C 109.5
H24A C24 H24B 109.5
H24A C24 H24C 109.5
H24B C24 H24C 109.5
C23 C25 H25A 109.5
C23 C25 H25B 109.5
C23 C25 H25C 109.5
H25A C25 H25B 109.5
H25A C25 H25C 109.5
H25B C25 H25C 109.5
H26A C26 H26B 108.1
C27 C26 H26A 109.6
C27 C26 H26B 109.6
O9 C26 H26A 109.6
O9 C26 H26B 109.6
O9 C26 C27 110.34(10)
C26 C27 H27 107.5
C26 C27 C28 111.31(12)
C26 C27 C29 111.52(12)
C28 C27 H27 107.5
C29 C27 H27 107.5
C29 C27 C28 111.24(13)
C27 C28 H28A 109.5
C27 C28 H28B 109.5
C27 C28 H28C 109.5
H28A C28 H28B 109.5
H28A C28 H28C 109.5
H28B C28 H28C 109.5
C27 C29 H29A 109.5
C27 C29 H29B 109.5
C27 C29 H29C 109.5
H29A C29 H29B 109.5
H29A C29 H29C 109.5
H29B C29 H29C 109.5
O1 N1 C1 120.46(11)
O1 N1 O2 121.41(11)
O2 N1 C1 118.12(11)
C5 N2 H2 117.0
C15 N2 C5 126.07(11)
C15 N2 H2 117.0
C15 N3 C16 125.54(10)
C15 N3 H3A 117.2
C16 N3 H3A 117.2
O6 N4 C18 118.05(10)
O7 N4 C18 119.55(10)
O7 N4 O6 122.39(11)
C2 O3 C7 118.08(10)
C4 O4 C11 119.41(10)
C19 O8 C22 119.90(9)
C21 O9 C26 122.12(10)
H30A C30 H30B 109.5
H30A C30 H30C 109.5
H30B C30 H30C 109.5
S1 C30 H30A 109.5
S1 C30 H30B 109.5
S1 C30 H30C 109.5
H31A C31 H31B 109.5
H31A C31 H31C 109.5
H31B C31 H31C 109.5
S1 C31 H31A 109.5
S1 C31 H31B 109.5
S1 C31 H31C 109.5
C30 S1 C31 97.54(6)
O10 S1 C30 105.44(6)
O10 S1 C31 106.05(6)
loop_
_geom_bond_atom_site_label_1
_geom_bond_atom_site_label_2
_geom_bond_distance
C1 C2 1.4102(17)
C1 C6 1.4015(17)
C1 N1 1.4518(16)
C2 C3 1.3990(17)
C2 O3 1.3531(15)
C3 H3 0.9300
C3 C4 1.3857(17)
C4 C5 1.4149(17)
C4 O4 1.3525(15)
C5 C6 1.3773(17)
C5 N2 1.4029(16)
C6 H6 0.9300
C7 H7A 0.9700
C7 H7B 0.9700
C7 C8 1.5184(18)
C7 O3 1.4437(15)
C8 H8 0.9800
C8 C9 1.525(2)
C8 C10 1.528(2)
C9 H9A 0.9600
C9 H9B 0.9600
C9 H9C 0.9600
C10 H10A 0.9600
C10 H10B 0.9600
C10 H10C 0.9600
C11 H11A 0.9700
C11 H11B 0.9700
C11 C12 1.5196(17)
C11 O4 1.4411(14)
C12 H12 0.9800
C12 C13 1.5283(19)
C12 C14 1.519(2)
C13 H13A 0.9600
C13 H13B 0.9600
C13 H13C 0.9600
C14 H14A 0.9600
C14 H14B 0.9600
C14 H14C 0.9600
C15 N2 1.3742(16)
C15 N3 1.3800(16)
C15 O5 1.2219(15)
C16 C17 1.3823(17)
C16 C21 1.4163(17)
C16 N3 1.4025(15)
C17 H17 0.9300
C17 C18 1.3947(17)
C18 C19 1.4052(17)
C18 N4 1.4505(15)
C19 C20 1.3975(17)
C19 O8 1.3484(15)
C20 H20 0.9300
C20 C21 1.3926(17)
C21 O9 1.3561(15)
C22 H22A 0.9700
C22 H22B 0.9700
C22 C23 1.5216(17)
C22 O8 1.4411(14)
C23 H23 0.9800
C23 C24 1.5242(18)
C23 C25 1.5264(17)
C24 H24A 0.9600
C24 H24B 0.9600
C24 H24C 0.9600
C25 H25A 0.9600
C25 H25B 0.9600
C25 H25C 0.9600
C26 H26A 0.9700
C26 H26B 0.9700
C26 C27 1.5154(19)
C26 O9 1.4511(15)
C27 H27 0.9800
C27 C28 1.525(2)
C27 C29 1.5214(19)
C28 H28A 0.9600
C28 H28B 0.9600
C28 H28C 0.9600
C29 H29A 0.9600
C29 H29B 0.9600
C29 H29C 0.9600
N1 O1 1.2164(15)
N1 O2 1.2257(15)
N2 H2 0.8600
N3 H3A 0.8600
N4 O6 1.2352(14)
N4 O7 1.2319(14)
C30 H30A 0.9600
C30 H30B 0.9600
C30 H30C 0.9600
C30 S1 1.7878(13)
C31 H31A 0.9600
C31 H31B 0.9600
C31 H31C 0.9600
C31 S1 1.7888(13)
O10 S1 1.5110(9)
loop_
_geom_torsion_atom_site_label_1
_geom_torsion_atom_site_label_2
_geom_torsion_atom_site_label_3
_geom_torsion_atom_site_label_4
_geom_torsion
C1 C2 C3 C4 -0.42(18)
C1 C2 O3 C7 -171.02(11)
C2 C1 C6 C5 1.37(19)
C2 C1 N1 O1 -9.56(19)
C2 C1 N1 O2 169.14(13)
C2 C3 C4 C5 1.94(19)
C2 C3 C4 O4 -178.08(11)
C3 C2 O3 C7 8.67(17)
C3 C4 C5 C6 -1.78(18)
C3 C4 C5 N2 176.44(11)
C3 C4 O4 C11 5.90(18)
C4 C5 C6 C1 0.14(18)
C4 C5 N2 C15 159.13(12)
C5 C4 O4 C11 -174.12(11)
C6 C1 C2 C3 -1.22(18)
C6 C1 C2 O3 178.48(11)
C6 C1 N1 O1 173.18(13)
C6 C1 N1 O2 -8.12(18)
C6 C5 N2 C15 -22.8(2)
C8 C7 O3 C2 178.01(10)
C12 C11 O4 C4 169.35(10)
C16 C17 C18 C19 0.32(19)
C16 C17 C18 N4 179.19(11)
C16 C21 O9 C26 157.19(11)
C17 C16 C21 C20 0.53(18)
C17 C16 C21 O9 177.64(11)
C17 C16 N3 C15 20.8(2)
C17 C18 C19 C20 -0.44(18)
C17 C18 C19 O8 176.45(11)
C17 C18 N4 O6 -23.63(17)
C17 C18 N4 O7 156.05(11)
C18 C19 C20 C21 0.60(18)
C18 C19 O8 C22 179.96(11)
C19 C18 N4 O6 155.25(12)
C19 C18 N4 O7 -25.07(17)
C19 C20 C21 C16 -0.67(19)
C19 C20 C21 O9 -177.46(11)
C20 C19 O8 C22 -3.37(18)
C20 C21 O9 C26 -25.81(18)
C21 C16 C17 C18 -0.35(18)
C21 C16 N3 C15 -160.13(12)
C23 C22 O8 C19 176.44(10)
C27 C26 O9 C21 -107.17(13)
N1 C1 C2 C3 -178.34(11)
N1 C1 C2 O3 1.36(18)
N1 C1 C6 C5 178.65(11)
N2 C5 C6 C1 -177.91(12)
N2 C15 N3 C16 174.53(11)
N3 C15 N2 C5 -178.43(11)
N3 C16 C17 C18 178.70(11)
N3 C16 C21 C20 -178.59(11)
N3 C16 C21 O9 -1.48(16)
N4 C18 C19 C20 -179.26(11)
N4 C18 C19 O8 -2.37(18)
O3 C2 C3 C4 179.89(11)
O3 C7 C8 C9 -58.87(14)
O3 C7 C8 C10 177.45(11)
O4 C4 C5 C6 178.24(11)
O4 C4 C5 N2 -3.54(16)
O4 C11 C12 C13 171.23(11)
O4 C11 C12 C14 -65.54(14)
O5 C15 N2 C5 1.2(2)
O5 C15 N3 C16 -5.1(2)
O8 C19 C20 C21 -176.09(11)
O8 C22 C23 C24 58.57(13)
O8 C22 C23 C25 -177.98(10)
O9 C26 C27 C28 64.62(15)
O9 C26 C27 C29 -60.25(15)
