#------------------------------------------------------------------------------
#$Date: 2017-01-14 04:45:16 +0200 (Sat, 14 Jan 2017) $
#$Revision: 190491 $
#$URL: file:///home/coder/svn-repositories/cod/cif/1/54/50/1545035.cif $
#------------------------------------------------------------------------------
#
# This file is available in the Crystallography Open Database (COD),
# http://www.crystallography.net/. The original data for this entry
# were provided by IUCr Journals, http://journals.iucr.org/.
#
# The file may be used within the scientific community so long as
# proper attribution is given to the journal article from which the
# data were obtained.
#
data_1545035
loop_
_publ_author_name
'Akrad, Rachida'
'Mague, Joel T.'
'Guerrab, Walid'
'Taoufik, Jamal'
'Ansar, Mhamed'
'Ramli, Youssef'
_publ_section_title
;
 1-Benzyl-2-benzylsulfanyl-4,4-diphenyl-4,5-dihydro-1<i>H</i>-imidazol-5-one
;
_journal_coeditor_code           SU4121
_journal_issue                   1
_journal_name_full               IUCrData
_journal_page_first              x170033
_journal_paper_doi               10.1107/S2414314617000335
_journal_volume                  2
_journal_year                    2017
_chemical_formula_iupac          'C29 H24 N2 O S'
_chemical_formula_moiety         'C29 H24 N2 O S'
_chemical_formula_sum            'C29 H24 N2 O S'
_chemical_formula_weight         448.56
_chemical_name_systematic
;
1-Benzyl-2-benzylsulfanyl-4,4-diphenyl-4,5-dihydro-1<i>H</i>-imidazol-5-one
;
_space_group_crystal_system      triclinic
_space_group_IT_number           2
_space_group_name_Hall           '-P 1'
_space_group_name_H-M_alt        'P -1'
_symmetry_space_group_name_Hall  '-P 1'
_symmetry_space_group_name_H-M   'P -1'
_atom_sites_solution_hydrogens   geom
_atom_sites_solution_primary     direct
_atom_sites_solution_secondary   difmap
_audit_creation_method           SHELXL-2014/7
_cell_angle_alpha                90.7320(10)
_cell_angle_beta                 92.1810(10)
_cell_angle_gamma                91.3940(10)
_cell_formula_units_Z            4
_cell_length_a                   8.7383(6)
_cell_length_b                   14.1443(9)
_cell_length_c                   19.2405(13)
_cell_measurement_reflns_used    4999
_cell_measurement_temperature    298(2)
_cell_measurement_theta_max      23.9576
_cell_measurement_theta_min      2.5252
_cell_volume                     2375.4(3)
_computing_cell_refinement
;
<i>SAINT</i> (Bruker, 2016)
;
_computing_data_collection
;
<i>APEX3</i> (Bruker, 2016)
;
_computing_data_reduction
;
<i>SAINT</i> (Bruker, 2016)
;
_computing_molecular_graphics
;
<i>DIAMOND</i> (Brandenburg & Putz, 2012)
;
_computing_publication_material
;
<i>SHELXTL</i> (Sheldrick, 2008)
;
_computing_structure_refinement
;
<i>SHELXL2014</i> (Sheldrick, 2015<i>b</i>)
;
_computing_structure_solution
;
<i>SHELXT</i> (Sheldrick, 2015<i>a</i>)
;
_diffrn_ambient_temperature      298(2)
_diffrn_detector_area_resol_mean 8.3333
_diffrn_measured_fraction_theta_full 0.990
_diffrn_measured_fraction_theta_max 0.945
_diffrn_measurement_device_type  'Bruker SMART APEX CCD'
_diffrn_measurement_method       '\f and \w scans'
_diffrn_radiation_monochromator  graphite
_diffrn_radiation_type           MoK\a
_diffrn_radiation_wavelength     0.71073
_diffrn_reflns_av_R_equivalents  0.0342
_diffrn_reflns_limit_h_max       11
_diffrn_reflns_limit_h_min       -11
_diffrn_reflns_limit_k_max       19
_diffrn_reflns_limit_k_min       -19
_diffrn_reflns_limit_l_max       25
_diffrn_reflns_limit_l_min       -25
_diffrn_reflns_number            22757
_diffrn_reflns_theta_full        27.500
_diffrn_reflns_theta_max         28.660
_diffrn_reflns_theta_min         1.059
_exptl_absorpt_coefficient_mu    0.160
_exptl_absorpt_correction_T_max  0.98
_exptl_absorpt_correction_T_min  0.80
_exptl_absorpt_correction_type   multi-scan
_exptl_absorpt_process_details
;
(<i>SADABS</i>; Bruker, 2016)
;
_exptl_crystal_colour            colourless
_exptl_crystal_density_diffrn    1.254
_exptl_crystal_density_method    'not measured'
_exptl_crystal_description       block
_exptl_crystal_F_000             944
_exptl_crystal_size_max          0.260
_exptl_crystal_size_mid          0.170
_exptl_crystal_size_min          0.140
_refine_diff_density_max         0.416
_refine_diff_density_min         -0.167
_refine_ls_extinction_method     none
_refine_ls_goodness_of_fit_ref   0.996
_refine_ls_hydrogen_treatment    constr
_refine_ls_matrix_type           full
_refine_ls_number_parameters     590
_refine_ls_number_reflns         11555
_refine_ls_number_restraints     0
_refine_ls_restrained_S_all      0.996
_refine_ls_R_factor_all          0.1064
_refine_ls_R_factor_gt           0.0553
_refine_ls_shift/su_max          0.001
_refine_ls_shift/su_mean         0.000
_refine_ls_structure_factor_coef Fsqd
_refine_ls_weighting_details
'w=1/[\s^2^(Fo^2^)+(0.0667P)^2^] where P=(Fo^2^+2Fc^2^)/3'
_refine_ls_weighting_scheme      calc
_refine_ls_wR_factor_gt          0.1371
_refine_ls_wR_factor_ref         0.1582
_reflns_number_gt                6260
_reflns_number_total             11555
_reflns_threshold_expression     'I > 2\s(I)'
_cod_data_source_file            su4121sup1.cif
_cod_data_source_block           I
_cod_database_code               1545035
_shelx_space_group_comment
;
The symmetry employed for this shelxl refinement is uniquely defined
by the following loop, which should always be used as a source of
symmetry information in preference to the above space-group names.
They are only intended as comments.
;
_shelx_estimated_absorpt_t_min   0.959
_shelx_estimated_absorpt_t_max   0.978
_shelx_hkl_file
;
  -1   0   0    0.29    0.03
   1   0   0    0.37    0.03
   1   0   0    0.27    0.03
  -2   0   0  618.52   51.28
   2   0   0  631.07   51.28
   2   0   0  633.35   51.27
  -3   0   0    3.79    0.35
   3   0   0    4.53    0.35
   3   0   0    4.20    0.35
  -4   0   0    7.28    0.60
   4   0   0    7.48    0.60
   4   0   0    6.53    0.60
  -5   0   0    0.69    0.12
   5   0   0    0.73    0.12
   5   0   0    1.43    0.14
  -6   0   0    2.51    0.25
   6   0   0    2.60    0.27
  -7   0   0    0.11    0.13
  -7   0   0    0.12    0.13
   7   0   0    0.44    0.15
  -8   0   0   26.47    2.07
  -8   0   0   24.75    2.07
   8   0   0   23.17    2.07
  -9   0   0    0.02    0.17
   9   0   0    0.04    0.18
  10   0   0    2.97    0.37
  11   0   0    0.51    0.31
  10  -1   0    2.53    0.34
   9  -1   0    0.31    0.19
  -9   1   0    0.44    0.21
   8  -1   0    1.91    0.26
  -8   1   0    2.07    0.24
  -8   1   0    1.70    0.25
   7  -1   0   13.11    1.06
   7  -1   0   12.80    1.06
  -7   1   0   11.80    1.05
   6  -1   0   19.98    1.73
   6  -1   0   21.50    1.73
  -6   1   0   21.29    1.73
   5  -1   0    6.18    0.53
   5  -1   0    6.24    0.53
  -5   1   0    5.94    0.52
   4  -1   0    0.19    0.07
   4  -1   0    0.31    0.07
  -4   1   0    0.37    0.07
   3  -1   0    4.40    0.38
   3  -1   0    5.02    0.38
  -3   1   0    4.16    0.38
   2  -1   0   34.56    2.82
   2  -1   0   34.30    2.82
  -2   1   0   34.32    2.82
   1  -1   0  172.99   13.26
   1  -1   0  164.77   13.26
  -1   1   0  148.76   13.26
   0  -1   0  181.99   15.01
   0  -1   0  185.57   15.01
  -1  -1   0  138.63   11.38
  -1  -1   0  139.31   11.38
   1   1   0  140.03   11.38
  -2  -1   0   51.38    4.22
  -2  -1   0   53.05    4.22
   2   1   0   50.48    4.23
  -3  -1   0    0.07    0.05
  -3  -1   0    0.05    0.04
   3   1   0    0.00    0.05
  -4  -1   0    0.09    0.06
  -4  -1   0    0.26    0.06
   4   1   0    0.34    0.08
  -5  -1   0    7.66    0.66
  -5  -1   0    8.52    0.66
   5   1   0    7.37    0.67
  -6  -1   0    3.35    0.30
  -6  -1   0    2.91    0.30
   6   1   0    3.41    0.31
  -7  -1   0   24.91    2.00
  -7  -1   0   24.12    2.00
   7   1   0   23.31    2.01
  -8  -1   0    5.90    0.51
   8   1   0    5.00    0.54
  -9  -1   0    0.23    0.19
   9   1   0    0.08    0.19
  10   1   0    0.69    0.25
  11   1   0   -0.14    0.29
 -10   2   0    0.18    0.24
   9  -2   0   -0.26    0.19
   8  -2   0    0.99    0.20
   8  -2   0    1.46    0.20
  -8   2   0    1.07    0.20
   7  -2   0   13.10    1.14
   7  -2   0   13.30    1.14
  -7   2   0   14.46    1.15
   6  -2   0    1.08    0.17
   6  -2   0    1.38    0.16
  -6   2   0    1.23    0.17
   5  -2   0    1.77    0.19
   5  -2   0    1.76    0.19
  -5   2   0    1.97    0.20
   4  -2   0    3.98    0.33
   4  -2   0    3.58    0.33
  -4   2   0    3.73    0.33
   3  -2   0    4.50    0.37
   3  -2   0    4.56    0.38
  -3   2   0    4.07    0.38
   2  -2   0   32.20    2.51
   2  -2   0   31.38    2.51
  -2   2   0   27.78    2.51
   1  -2   0   48.84    4.05
   1  -2   0   50.12    4.04
  -1   2   0   49.34    4.05
   0  -2   0  164.55   13.21
   0   2   0  158.96   13.21
  -1  -2   0   35.56    2.82
  -1  -2   0   34.45    2.82
   1   2   0   33.26    2.82
  -2  -2   0  117.02    9.69
  -2  -2   0  123.86    9.69
   2   2   0  114.67    9.69
  -3  -2   0    0.33    0.06
  -3  -2   0    0.24    0.06
   3   2   0    0.31    0.06
  -4  -2   0   14.84    1.22
  -4  -2   0   15.37    1.22
   4   2   0   13.80    1.22
  -5  -2   0    4.16    0.37
  -5  -2   0    3.87    0.37
   5   2   0    4.57    0.38
  -6  -2   0    0.02    0.10
  -6  -2   0   -0.04    0.09
   6   2   0   -0.08    0.12
  -7  -2   0   12.11    1.01
  -7  -2   0   11.88    1.01
   7   2   0   11.96    1.02
  -8  -2   0    1.10    0.19
   8   2   0    1.42    0.24
   9   2   0    0.13    0.20
  10   2   0    0.00    0.22
  11   2   0    0.75    0.31
   9  -3   0    0.10    0.18
   8  -3   0    0.18    0.17
   8  -3   0    0.80    0.17
  -8   3   0    0.25    0.17
   7  -3   0    0.25    0.14
   7  -3   0    0.31    0.14
  -7   3   0    0.46    0.16
   6  -3   0    1.86    0.20
   6  -3   0    1.36    0.18
  -6   3   0    1.81    0.20
   5  -3   0    7.69    0.66
   5  -3   0    7.44    0.66
  -5   3   0    8.30    0.67
   4  -3   0    3.76    0.30
   4  -3   0    2.81    0.29
  -4   3   0    3.24    0.33
   3  -3   0  106.83    8.17
   3  -3   0  101.85    8.17
  -3   3   0   89.96    8.18
   2  -3   0    0.16    0.05
   2  -3   0    0.02    0.03
  -2   3   0    0.16    0.06
   1  -3   0   92.45    7.55
  -1   3   0   92.14    7.55
   0  -3   0  755.89   60.57
   0  -3   0  732.20   60.56
   0   3   0  736.00   60.56
  -1  -3   0   50.69    4.11
  -1  -3   0   50.83    4.11
   1   3   0   49.22    4.11
  -2  -3   0    0.58    0.07
  -2  -3   0    0.65    0.07
   2   3   0    0.44    0.07
  -3  -3   0   73.09    5.83
  -3  -3   0   70.86    5.83
   3   3   0   69.76    5.84
  -4  -3   0    2.66    0.25
  -4  -3   0    2.93    0.25
   4   3   0    2.91    0.27
  -5  -3   0    0.19    0.08
  -5  -3   0    0.10    0.09
   5   3   0    0.13    0.10
  -6  -3   0    1.40    0.19
  -6  -3   0    1.66    0.19
   6   3   0    1.85    0.21
  -7  -3   0    0.11    0.13
  -7  -3   0   -0.03    0.13
   7   3   0    0.16    0.15
  -8  -3   0    8.53    0.70
   8   3   0    7.08    0.71
   9   3   0    0.76    0.23
  10   3   0    0.85    0.26
  11   3   0    0.73    0.32
  10  -4   0    2.76    0.37
   9  -4   0    0.48    0.21
  -9   4   0    0.53    0.25
   8  -4   0    3.38    0.37
  -8   4   0    3.68    0.38
   7  -4   0    4.25    0.45
   7  -4   0    5.18    0.46
  -7   4   0    5.69    0.47
   6  -4   0    3.48    0.31
   6  -4   0    2.75    0.28
  -6   4   0    2.70    0.30
   5  -4   0   21.26    1.82
   5  -4   0   22.60    1.81
  -5   4   0   21.90    1.83
   4  -4   0    2.65    0.24
   4  -4   0    2.49    0.23
  -4   4   0    2.23    0.27
   3  -4   0   41.47    3.50
   3  -4   0   46.52    3.50
  -3   4   0   38.91    3.51
   2  -4   0   83.74    7.04
   2  -4   0   87.37    7.03
  -2   4   0   86.76    7.04
   1  -4   0    5.51    0.47
  -1   4   0    5.64    0.47
   0  -4   0  137.37   11.24
   0  -4   0  135.65   11.24
   0   4   0  139.37   11.23
  -1  -4   0    3.10    0.28
  -1  -4   0    3.19    0.28
   1   4   0    3.49    0.28
  -2  -4   0   85.59    6.91
  -2  -4   0   83.55    6.91
   2   4   0   84.29    6.91
  -3  -4   0  104.17    8.50
  -3  -4   0  103.78    8.50
   3   4   0  103.75    8.50
  -4  -4   0    3.18    0.27
  -4  -4   0    3.05    0.28
   4   4   0    2.73    0.28
  -5  -4   0   10.97    0.92
  -5  -4   0   11.34    0.92
   5   4   0   10.60    0.93
  -6  -4   0    0.67    0.13
  -6  -4   0    0.65    0.13
   6   4   0    0.65    0.16
  -7  -4   0   11.38    0.89
  -7  -4   0    9.97    0.89
   7   4   0    9.83    0.90
  -8  -4   0    2.60    0.26
   8   4   0    1.73    0.30
   9   4   0    0.15    0.21
  10   4   0    0.21    0.26
  11   4   0    0.43    0.37
  10  -5   0    0.08    0.23
   9  -5   0    0.72    0.23
  -9   5   0    1.19    0.25
   8  -5   0    3.31    0.40
  -8   5   0    4.73    0.43
   7  -5   0    4.86    0.51
  -7   5   0    6.35    0.53
   6  -5   0    4.52    0.39
   6  -5   0    3.83    0.37
  -6   5   0    4.06    0.42
   5  -5   0    0.25    0.11
   5  -5   0    0.46    0.09
  -5   5   0    0.49    0.16
   4  -5   0   19.64    1.66
   4  -5   0   21.55    1.65
  -4   5   0   17.57    1.68
   3  -5   0   27.52    2.37
   3  -5   0   30.53    2.36
  -3   5   0   27.42    2.38
   2  -5   0  110.19    9.36
  -2   5   0  118.68    9.36
   1  -5   0   18.73    1.54
  -1   5   0   18.02    1.54
  -1   5   0   19.05    1.53
   0  -5   0    8.27    0.70
   0   5   0    8.63    0.70
   0   5   0    8.35    0.71
  -1  -5   0   26.24    2.10
  -1  -5   0   24.10    2.10
   1   5   0   26.38    2.10
  -2  -5   0  171.35   14.27
  -2  -5   0  176.51   14.27
   2   5   0  175.94   14.27
  -3  -5   0    5.07    0.42
  -3  -5   0    4.71    0.41
   3   5   0    4.67    0.42
  -4  -5   0  136.74   11.17
  -4  -5   0  135.34   11.17
   4   5   0  137.81   11.18
  -5  -5   0    1.88    0.20
  -5  -5   0    2.18    0.20
   5   5   0    1.49    0.21
  -6  -5   0    3.44    0.35
  -6  -5   0    3.53    0.35
   6   5   0    4.08    0.37
  -7  -5   0    2.65    0.29
   7   5   0    2.87    0.32
   8   5   0    1.11    0.25
   9   5   0    0.86    0.25
  10   5   0    0.09    0.26
  11   5   0    0.08    0.37
  11  -6   0   -0.13    0.32
  10  -6   0   -0.16    0.27
   9  -6   0    0.25    0.21
  -9   6   0    0.17    0.22
   8  -6   0    0.59    0.20
  -8   6   0    0.87    0.22
   7  -6   0    4.05    0.42
  -7   6   0    4.44    0.44
   6  -6   0    2.39    0.30
  -6   6   0    3.73    0.36
   5  -6   0    3.85    0.37
  -5   6   0    4.04    0.42
   4  -6   0   14.14    1.20
   4  -6   0   15.48    1.18
  -4   6   0   11.75    1.22
   3  -6   0    2.55    0.28
   3  -6   0    3.16    0.25
  -3   6   0    2.99    0.31
   2  -6   0    3.42    0.31
  -2   6   0    3.61    0.32
   1  -6   0    0.06    0.07
  -1   6   0    0.24    0.08
  -1   6   0    0.10    0.03
   0  -6   0   10.72    0.88
   0   6   0   10.39    0.87
   0   6   0   10.73    0.88
  -1  -6   0    1.57    0.17
  -1  -6   0    1.96    0.17
   1   6   0    1.64    0.16
  -2  -6   0    0.86    0.11
  -2  -6   0    0.81    0.12
   2   6   0    0.94    0.11
  -3  -6   0    0.86    0.11
  -3  -6   0    0.80    0.11
   3   6   0    0.57    0.11
  -4  -6   0   17.73    1.37
  -4  -6   0   16.64    1.37
   4   6   0   14.95    1.37
  -5  -6   0    5.24    0.45
  -5  -6   0    4.86    0.46
   5   6   0    5.52    0.47
  -6  -6   0   16.97    1.43
  -6  -6   0   18.01    1.43
   6   6   0   16.49    1.45
  -7  -6   0    0.13    0.14
   7   6   0   -0.01    0.16
   8   6   0    0.09    0.20
   9   6   0    0.92    0.26
  10   6   0    0.15    0.30
  11  -7   0    0.26    0.36
  10  -7   0    0.51    0.32
   9  -7   0    0.42    0.23
  -9   7   0    0.09    0.24
   8  -7   0    0.56    0.21
  -8   7   0    0.85    0.23
   7  -7   0    0.02    0.17
  -7   7   0    0.59    0.22
   6  -7   0    0.09    0.14
  -6   7   0    0.32    0.20
   5  -7   0    0.97    0.16
  -5   7   0    0.55    0.21
   4  -7   0    0.30    0.11
  -4   7   0    0.18    0.17
   3  -7   0    8.62    0.75
  -3   7   0    9.00    0.76
   2  -7   0   -0.01    0.08
  -2   7   0    0.07    0.08
   1  -7   0   11.15    1.01
  -1   7   0   11.29    1.02
  -1   7   0   13.00    1.00
   0  -7   0   14.82    1.22
   0   7   0   14.32    1.21
   0   7   0   15.04    1.22
  -1  -7   0    7.65    0.64
  -1  -7   0    7.70    0.65
   1   7   0    7.52    0.64
  -2  -7   0    2.12    0.22
  -2  -7   0    2.50    0.21
   2   7   0    2.03    0.22
  -3  -7   0   10.03    0.86
  -3  -7   0   11.19    0.86
   3   7   0    9.45    0.86
  -4  -7   0   -0.01    0.11
  -4  -7   0    0.11    0.08
   4   7   0   -0.05    0.10
  -5  -7   0    0.36    0.12
  -5  -7   0    0.47    0.12
   5   7   0    0.24    0.14
  -6  -7   0    0.64    0.15
  -6  -7   0    0.66    0.16
   6   7   0    0.71    0.18
   7   7   0    4.80    0.48
   8   7   0   -0.12    0.19
   9   7   0    0.13    0.24
  10   7   0   -0.01    0.29
  10  -8   0   -0.09    0.29
   9  -8   0    0.10    0.24
  -9   8   0    0.29    0.26
   8  -8   0    1.89    0.28
  -8   8   0    1.73    0.30
   7  -8   0    0.48    0.20
  -7   8   0    1.20    0.27
   6  -8   0    3.41    0.36
  -6   8   0    3.52    0.42
   5  -8   0    0.15    0.14
  -5   8   0    0.23    0.21
   4  -8   0    0.17    0.12
  -4   8   0   -0.03    0.12
   3  -8   0   10.94    0.91
  -3   8   0   10.51    0.92
   2  -8   0    0.14    0.09
  -2   8   0    0.02    0.08
   1  -8   0    3.60    0.36
  -1   8   0    4.23    0.37
  -1   8   0    4.11    0.34
   0  -8   0    3.61    0.35
   0   8   0    4.14    0.34
   0   8   0    3.92    0.36
  -1  -8   0   14.96    1.21
  -1  -8   0   14.09    1.21
   1   8   0   14.53    1.20
  -2  -8   0    7.18    0.65
  -2  -8   0    8.50    0.65
   2   8   0    7.15    0.65
  -3  -8   0   13.62    1.15
  -3  -8   0   13.86    1.16
   3   8   0   14.20    1.16
  -4  -8   0    4.87    0.44
  -4  -8   0    4.92    0.42
   4   8   0    4.40    0.44
  -5  -8   0    9.60    0.84
  -5  -8   0    9.74    0.83
   5   8   0   10.19    0.85
  -6  -8   0    0.22    0.13
   6   8   0    0.39    0.18
   7   8   0    0.01    0.20
   8   8   0    0.25    0.22
   9   8   0   -0.19    0.26
  10   8   0   -0.35    0.29
  10  -9   0   -0.20    0.32
 -10   9   0    0.33    0.38
   9  -9   0    0.17    0.29
  -9   9   0    0.27    0.29
   8  -9   0   -0.02    0.21
  -8   9   0    0.09    0.25
   7  -9   0    1.93    0.28
  -7   9   0    2.06    0.35
   6  -9   0    1.77    0.25
  -6   9   0    1.81    0.33
   5  -9   0    0.88    0.18
  -5   9   0    0.92    0.26
   4  -9   0    0.10    0.13
  -4   9   0    0.66    0.19
   3  -9   0    3.88    0.34
  -3   9   0    3.15    0.36
   2  -9   0    0.81    0.13
  -2   9   0    0.59    0.15
   1  -9   0   17.89    1.52
  -1   9   0   18.78    1.53
   0  -9   0    1.61    0.19
   0   9   0    1.90    0.18
   0   9   0    1.75    0.21
  -1  -9   0    0.61    0.11
   1   9   0    0.60    0.11
   1   9   0    0.24    0.12
  -2  -9   0    1.83    0.21
  -2  -9   0    2.07    0.22
   2   9   0    2.00    0.21
  -3  -9   0    0.58    0.13
  -3  -9   0    0.76    0.14
   3   9   0    0.71    0.14
  -4  -9   0   -0.02    0.12
  -4  -9   0   -0.12    0.11
   4   9   0   -0.17    0.14
  -5  -9   0    4.54    0.39
  -5  -9   0    3.55    0.39
   5   9   0    4.31    0.41
  -6  -9   0    2.10    0.25
   6   9   0    1.98    0.29
   7   9   0    0.10    0.21
   8   9   0   -0.12    0.23
   9   9   0    0.28    0.29
  10 -10   0    0.11    0.34
 -10  10   0    0.07    0.39
   9 -10   0    0.41    0.28
  -9  10   0   -0.02    0.36
   8 -10   0    0.19    0.24
  -8  10   0    0.25    0.29
   7 -10   0    0.34    0.20
  -7  10   0    0.19    0.29
   6 -10   0    0.22    0.18
  -6  10   0   -0.15    0.27
   5 -10   0    0.06    0.14
  -5  10   0    0.34    0.24
   4 -10   0    9.31    0.79
  -4  10   0    8.70    0.82
   3 -10   0    2.26    0.28
  -3  10   0    3.22    0.31
   2 -10   0    7.29    0.64
  -2  10   0    7.52    0.65
   1 -10   0    0.39    0.12
  -1  10   0    0.50    0.14
   0 -10   0    0.36    0.12
   0  10   0    0.40    0.14
   0  10   0    0.63    0.13
  -1 -10   0    2.01    0.21
   1  10   0    1.59    0.22
   1  10   0    1.95    0.21
  -2 -10   0    0.17    0.12
  -2 -10   0    0.02    0.10
   2  10   0    0.31    0.12
  -3 -10   0    1.67    0.20
  -3 -10   0    1.42    0.21
   3  10   0    1.58    0.20
  -4 -10   0   11.42    0.99
   4  10   0   11.77    0.99
  -5 -10   0    0.02    0.15
  -5 -10   0   -0.06    0.16
   5  10   0    0.38    0.18
   6  10   0    2.69    0.33
   7  10   0    0.99    0.26
   8  10   0    0.39    0.27
   9  10   0    0.02    0.31
   9 -11   0    0.22    0.35
  -9  11   0   -0.02    0.40
   8 -11   0    0.51    0.30
  -8  11   0    0.94    0.34
   7 -11   0   -0.17    0.21
  -7  11   0   -0.30    0.34
   6 -11   0    0.24    0.19
  -6  11   0   -0.04    0.29
   5 -11   0   -0.07    0.16
  -5  11   0    0.00    0.25
   4 -11   0   -0.07    0.14
  -4  11   0    0.10    0.20
   3 -11   0   26.45    2.19
  -3  11   0   26.32    2.20
   2 -11   0    0.26    0.13
  -2  11   0    0.29    0.16
   1 -11   0   29.06    2.51
  -1  11   0   31.93    2.52
   0 -11   0    5.27    0.50
   0  11   0    5.87    0.51
  -1 -11   0    1.22    0.16
   1  11   0    0.61    0.16
   1  11   0    0.33    0.17
  -2 -11   0    2.24    0.25
  -2 -11   0    2.23    0.27
   2  11   0    2.65    0.27
  -3 -11   0    5.23    0.50
  -3 -11   0    5.10    0.47
   3  11   0    5.47    0.50
  -4 -11   0    0.38    0.14
  -4 -11   0    0.24    0.17
   4  11   0    0.23    0.17
  -5 -11   0    1.15    0.20
  -5 -11   0    1.04    0.22
   5  11   0    1.01    0.23
   6  11   0    2.94    0.36
   7  11   0    2.44    0.35
   8  11   0    0.46    0.29
   9  11   0    0.26    0.34
   9 -12   0   -0.02    0.38
  -9  12   0    0.51    0.40
   8 -12   0    0.75    0.33
  -8  12   0    0.10    0.38
   7 -12   0    4.00    0.43
  -7  12   0    2.85    0.50
   6 -12   0   -0.04    0.20
  -6  12   0    0.10    0.32
   5 -12   0    1.20    0.22
  -5  12   0    0.71    0.31
   4 -12   0    4.05    0.39
  -4  12   0    3.44    0.44
   3 -12   0   10.67    0.95
  -3  12   0   11.82    0.98
   2 -12   0    3.45    0.36
  -2  12   0    3.57    0.36
   1 -12   0    3.13    0.34
  -1  12   0    3.68    0.37
   0 -12   0    6.52    0.57
   0  12   0    6.15    0.58
  -1 -12   0    4.05    0.39
   1  12   0    4.22    0.42
  -2 -12   0   -0.07    0.13
   2  12   0   -0.09    0.15
  -3 -12   0   15.00    1.27
  -3 -12   0   14.32    1.28
   3  12   0   16.07    1.28
  -4 -12   0    8.54    0.70
  -4 -12   0    6.80    0.66
   4  12   0    7.53    0.68
   5  12   0    2.17    0.30
   6  12   0    2.48    0.36
   7  12   0    0.32    0.26
   8  12   0   -0.13    0.31
   8 -13   0    0.21    0.31
  -8  13   0    0.01    0.42
   7 -13   0    1.01    0.28
  -7  13   0    0.68    0.41
   6 -13   0    0.58    0.24
  -6  13   0    0.60    0.37
   5 -13   0   -0.11    0.19
  -5  13   0   -0.15    0.29
   4 -13   0    3.88    0.41
  -4  13   0    3.87    0.46
   3 -13   0    4.23    0.44
  -3  13   0    4.46    0.47
   2 -13   0    1.08    0.19
  -2  13   0    0.79    0.22
   1 -13   0    1.24    0.23
  -1  13   0    1.65    0.25
   0 -13   0    0.09    0.14
   0  13   0    0.13    0.17
  -1 -13   0    1.05    0.18
   1  13   0    0.89    0.20
  -2 -13   0    1.52    0.23
   2  13   0    2.15    0.27
  -3 -13   0   -0.04    0.15
   3  13   0    0.05    0.21
  -4 -13   0    1.44    0.24
  -4 -13   0    1.03    0.21
   4  13   0    1.15    0.26
   5  13   0    0.14    0.21
   6  13   0    0.14    0.25
   7  13   0   -0.01    0.33
   8  13   0    0.03    0.40
   7 -14   0    0.08    0.29
  -7  14   0    0.39    0.43
   6 -14   0   -0.03    0.25
  -6  14   0    0.30    0.40
   5 -14   0    0.15    0.21
  -5  14   0   -0.06    0.33
   4 -14   0    3.01    0.38
  -4  14   0    4.19    0.47
   3 -14   0    1.85    0.29
  -3  14   0    2.90    0.35
   2 -14   0    0.20    0.17
  -2  14   0    0.01    0.19
   1 -14   0    0.20    0.17
  -1  14   0    0.02    0.19
   0 -14   0    0.45    0.17
   0  14   0    0.30    0.20
  -1 -14   0    0.20    0.18
   1  14   0   -0.04    0.21
  -2 -14   0    1.61    0.26
   2  14   0    1.67    0.27
  -3 -14   0    1.05    0.21
   3  14   0    1.23    0.25
  -4 -14   0    1.12    0.24
   4  14   0    1.11    0.26
   5  14   0    0.14    0.23
   6  14   0    0.58    0.32
   7  14   0    0.26    0.32
  -7  15   0   -0.11    0.58
   6 -15   0    0.07    0.28
  -6  15   0    0.43    0.46
   5 -15   0    1.25    0.27
  -5  15   0    1.42    0.42
   4 -15   0    1.39    0.28
  -4  15   0    1.88    0.37
   3 -15   0    1.55    0.27
  -3  15   0    1.78    0.32
   2 -15   0    0.01    0.18
  -2  15   0   -0.01    0.21
   1 -15   0    0.30    0.18
  -1  15   0    0.02    0.22
   0 -15   0    6.38    0.66
   0  15   0    7.80    0.68
  -1 -15   0    3.26    0.32
   1  15   0    2.17    0.34
  -2 -15   0    1.68    0.27
   2  15   0    1.56    0.31
  -3 -15   0    3.85    0.38
   3  15   0    2.43    0.38
   7  15   0   -0.11    0.36
   5 -16   0    0.48    0.27
  -5  16   0   -0.14    0.43
   4 -16   0    1.58    0.32
  -4  16   0    3.42    0.45
   3 -16   0    0.20    0.23
  -3  16   0    0.40    0.30
   2 -16   0    0.51    0.23
  -2  16   0    0.63    0.27
   1 -16   0   -0.06    0.19
  -1  16   0    0.12    0.25
   0 -16   0    1.56    0.27
   0  16   0    2.08    0.32
  -1 -16   0   -0.04    0.20
   1  16   0    0.16    0.24
  -2 -16   0    0.12    0.20
   2  16   0    0.04    0.24
  -3 -16   0    0.90    0.24
   3  16   0    0.71    0.28
   4 -17   0    1.59    0.32
  -4  17   0    1.51    0.45
   3 -17   0    1.98    0.34
  -3  17   0    2.67    0.45
   2 -17   0   -0.02    0.23
  -2  17   0    0.49    0.30
   1 -17   0    0.51    0.24
  -1  17   0    1.02    0.30
   0 -17   0   -0.24    0.22
   0  17   0   -0.24    0.27
  -1 -17   0    0.49    0.24
   1  17   0    0.61    0.29
  -2 -17   0   -0.14    0.22
   2  17   0    0.00    0.28
   3  17   0    1.15    0.33
   3 -18   0    0.23    0.28
   2 -18   0    0.23    0.29
  -2  18   0    1.02    0.37
   1 -18   0    0.40    0.26
  -1  18   0    0.44    0.32
   0 -18   0    0.59    0.27
   0  18   0    0.08    0.32
  -1 -18   0    0.07    0.26
   1  18   0    0.40    0.33
  -2 -18   0    0.30    0.32
   2  18   0    0.20    0.34
   0 -19   0    0.18    0.35
   0 -19   1    0.00    0.33
   1 -19   1    0.25    0.31
   3  18  -1   -0.11    0.34
   2  18  -1    0.07    0.38
   1  18  -1    0.47    0.34
  -1 -18   1    0.59    0.27
   0  18  -1    0.11    0.32
   0 -18   1   -0.25    0.25
  -1  18  -1    0.23    0.34
   1 -18   1    0.31    0.26
  -2  18  -1   -0.16    0.33
   2 -18   1    0.47    0.28
   3 -18   1   -0.18    0.31
   3  17  -1    1.17    0.34
   2  17  -1    0.28    0.29
  -2 -17   1   -0.19    0.26
   1  17  -1    0.63    0.29
  -1 -17   1    0.33    0.23
   0  17  -1   -0.13    0.26
   0 -17   1   -0.01    0.21
  -1  17  -1   -0.13    0.27
   1 -17   1    0.23    0.25
  -2  17  -1   -0.19    0.27
   2 -17   1   -0.07    0.26
  -3  17  -1    0.02    0.31
   3 -17   1   -0.01    0.24
  -4  17  -1   -0.26    0.37
   4 -17   1   -0.25    0.26
   4  16  -1    0.12    0.42
   3  16  -1   -0.06    0.29
   2  16  -1    1.66    0.35
  -2 -16   1    2.17    0.29
   1  16  -1   -0.17    0.24
  -1 -16   1    0.00    0.22
   0  16  -1    0.51    0.25
   0 -16   1    0.07    0.22
  -1  16  -1    0.01    0.25
   1 -16   1   -0.09    0.19
  -2  16  -1    1.45    0.30
   2 -16   1    0.92    0.24
  -3  16  -1    0.88    0.30
   3 -16   1    0.60    0.24
  -4  16  -1    0.32    0.34
   4 -16   1   -0.07    0.23
  -5  16  -1    0.21    0.43
   5 -16   1   -0.29    0.30
   7  15  -1    0.26    0.37
   4  15  -1    0.06    0.25
   3  15  -1    0.51    0.24
  -3 -15   1    0.12    0.21
   2  15  -1    0.74    0.25
  -2 -15   1    0.90    0.22
   1  15  -1    2.96    0.34
  -1 -15   1    1.68    0.29
   0  15  -1    0.39    0.22
   0 -15   1    0.11    0.18
  -1  15  -1    0.90    0.24
   1 -15   1    0.75    0.20
  -2  15  -1   -0.03    0.23
   2 -15   1   -0.27    0.17
  -3  15  -1    0.60    0.26
   3 -15   1    0.46    0.21
  -4  15  -1   -0.06    0.29
   4 -15   1    0.08    0.21
  -5  15  -1    0.66    0.38
   5 -15   1    0.85    0.26
  -6  15  -1    0.25    0.45
   6 -15   1   -0.01    0.28
  -7  15  -1    0.00    0.52
   7  14  -1   -0.11    0.36
   6  14  -1    0.84    0.30
   5  14  -1    0.79    0.26
  -4 -14   1    1.03    0.24
   3  14  -1    0.54    0.22
  -3 -14   1    0.15    0.20
   2  14  -1    0.20    0.20
  -2 -14   1    0.20    0.18
   1  14  -1    9.69    0.82
  -1 -14   1    8.49    0.79
   0  14  -1    3.68    0.42
   0 -14   1    3.95    0.39
  -1  14  -1    3.42    0.37
   1 -14   1    2.72    0.33
  -2  14  -1   12.35    1.02
   2 -14   1   10.82    0.99
  -3  14  -1    0.54    0.24
   3 -14   1    0.76    0.20
  -4  14  -1   -0.10    0.25
   4 -14   1    0.17    0.19
  -5  14  -1    1.63    0.40
   5 -14   1    2.58    0.33
  -6  14  -1    0.61    0.40
   6 -14   1    0.42    0.25
  -7  14  -1   -0.48    0.45
   7 -14   1    0.09    0.29
   8  13  -1    0.21    0.36
   7  13  -1    0.05    0.29
   6  13  -1    0.04    0.24
   5  13  -1   -0.11    0.22
   4  13  -1    0.30    0.20
  -4 -13   1    0.34    0.20
  -4 -13   1    0.54    0.21
  -3 -13   1    0.03    0.17
  -3 -13   1   -0.04    0.17
   2  13  -1    7.67    0.72
  -2 -13   1    8.09    0.69
   1  13  -1    1.12    0.21
  -1 -13   1    0.81    0.18
   0  13  -1    2.55    0.29
   0 -13   1    2.34    0.28
  -1  13  -1    0.14    0.18
   1 -13   1    0.12    0.15
  -2  13  -1    0.02    0.18
   2 -13   1   -0.11    0.14
  -3  13  -1    0.10    0.20
   3 -13   1   -0.06    0.16
  -4  13  -1    0.31    0.24
   4 -13   1    0.47    0.19
  -5  13  -1    0.14    0.28
   5 -13   1    0.08    0.19
  -6  13  -1    2.17    0.44
   6 -13   1    2.00    0.31
  -7  13  -1    0.02    0.39
   7 -13   1   -0.02    0.26
  -8  13  -1    1.30    0.46
   8 -13   1    1.47    0.36
   8  12  -1    0.07    0.32
   7  12  -1    0.10    0.27
   6  12  -1    1.42    0.31
   5  12  -1    1.16    0.24
  -5 -12   1    1.21    0.23
   4  12  -1   -0.28    0.20
  -4 -12   1   -0.01    0.17
  -4 -12   1    0.12    0.16
   3  12  -1    4.55    0.42
  -3 -12   1    3.72    0.39
  -3 -12   1    3.97    0.41
   2  12  -1   17.90    1.59
  -2 -12   1   19.81    1.58
  -2 -12   1   18.38    1.56
   1  12  -1    2.18    0.29
  -1 -12   1    2.63    0.27
   0  12  -1    1.62    0.22
   0 -12   1    1.12    0.19
  -1  12  -1    6.67    0.59
   1 -12   1    6.14    0.57
  -2  12  -1   15.13    1.34
   2 -12   1   16.70    1.34
  -3  12  -1    0.32    0.18
   3 -12   1    0.29    0.15
  -4  12  -1    0.37    0.22
   4 -12   1    0.27    0.16
  -5  12  -1    1.25    0.32
   5 -12   1    1.88    0.26
  -6  12  -1   -0.24    0.31
   6 -12   1    0.31    0.20
  -7  12  -1   -0.30    0.33
   7 -12   1    0.22    0.23
  -8  12  -1   -0.10    0.38
   8 -12   1    0.05    0.28
  -9  12  -1   -0.10    0.40
   9  11  -1    0.54    0.36
   8  11  -1    0.74    0.30
   7  11  -1    0.11    0.25
   6  11  -1    0.25    0.21
   5  11  -1    5.88    0.52
  -5 -11   1    4.86    0.51
   4  11  -1   -0.06    0.16
  -4 -11   1   -0.03    0.17
  -4 -11   1   -0.07    0.14
   3  11  -1   24.49    1.95
  -3 -11   1   24.20    1.95
  -3 -11   1   21.89    1.94
   2  11  -1    8.93    0.80
  -2 -11   1   10.35    0.82
  -2 -11   1    9.15    0.81
   1  11  -1   -0.13    0.12
   1  11  -1    0.14    0.14
  -1 -11   1    0.04    0.11
   0  11  -1    0.08    0.14
   0 -11   1    0.02    0.13
  -1  11  -1    0.29    0.15
   1 -11   1    0.38    0.13
  -2  11  -1    6.43    0.56
   2 -11   1    5.68    0.54
  -3  11  -1    4.66    0.44
   3 -11   1    4.14    0.42
  -4  11  -1    3.04    0.39
   4 -11   1    3.67    0.36
  -5  11  -1    3.00    0.41
   5 -11   1    3.39    0.35
  -6  11  -1    0.41    0.31
   6 -11   1    0.48    0.20
  -7  11  -1   -0.20    0.31
   7 -11   1    0.12    0.21
  -8  11  -1   -0.27    0.32
   8 -11   1    0.41    0.26
  -9  11  -1   -0.08    0.35
   9 -11   1    0.37    0.31
   9  10  -1    0.13    0.37
   8  10  -1    0.43    0.28
   7  10  -1    3.36    0.40
   6  10  -1    0.38    0.20
   5  10  -1    2.50    0.32
  -5 -10   1    2.52    0.30
  -5 -10   1    2.48    0.27
   4  10  -1    0.46    0.17
  -4 -10   1    1.41    0.19
  -4 -10   1    1.21    0.17
   3  10  -1    0.01    0.12
  -3 -10   1    0.05    0.10
  -3 -10   1    0.07    0.15
   2  10  -1    3.48    0.35
  -2 -10   1    3.89    0.36
  -2 -10   1    3.50    0.34
   1  10  -1    3.04    0.31
  -1 -10   1    3.08    0.30
  -1 -10   1    3.44    0.32
   0  10  -1    1.85    0.23
   0  10  -1    1.79    0.20
   0 -10   1    2.44    0.22
  -1  10  -1   15.60    1.29
   1 -10   1   15.07    1.28
  -2  10  -1    7.15    0.63
   2 -10   1    7.10    0.62
  -3  10  -1    0.26    0.15
   3 -10   1    0.71    0.14
  -4  10  -1    0.16    0.14
   4 -10   1    0.21    0.14
  -5  10  -1   -0.11    0.23
   5 -10   1   -0.14    0.15
  -6  10  -1    5.85    0.66
   6 -10   1    6.49    0.59
  -7  10  -1    0.02    0.29
   7 -10   1    0.34    0.20
  -8  10  -1    0.01    0.28
   8 -10   1    0.21    0.26
  -9  10  -1    2.55    0.42
   9 -10   1    2.25    0.37
   9   9  -1    0.31    0.30
   8   9  -1    1.10    0.28
   7   9  -1   -0.10    0.20
   6   9  -1    1.07    0.22
  -6  -9   1    0.42    0.19
   5   9  -1    1.95    0.24
  -5  -9   1    1.78    0.21
  -5  -9   1    1.65    0.22
   4   9  -1    1.06    0.18
  -4  -9   1    0.67    0.14
  -4  -9   1    0.93    0.16
   3   9  -1    7.70    0.71
  -3  -9   1    8.55    0.70
  -3  -9   1    8.42    0.72
   2   9  -1    5.50    0.47
  -2  -9   1    6.18    0.48
  -2  -9   1    4.62    0.48
   1   9  -1   28.48    2.27
  -1  -9   1   25.49    2.28
  -1  -9   1   28.51    2.27
   0   9  -1    2.90    0.30
   0   9  -1    3.01    0.28
   0  -9   1    3.30    0.29
  -1   9  -1   43.55    3.49
   1  -9   1   41.30    3.48
  -2   9  -1    4.43    0.42
   2  -9   1    4.54    0.41
  -3   9  -1    5.43    0.50
   3  -9   1    5.43    0.49
  -4   9  -1    7.99    0.72
   4  -9   1    7.97    0.69
  -5   9  -1    8.87    0.86
   5  -9   1    9.90    0.83
  -6   9  -1    0.75    0.28
   6  -9   1    0.29    0.18
  -7   9  -1   -0.14    0.25
   7  -9   1   -0.09    0.18
  -8   9  -1    0.23    0.26
   8  -9   1   -0.05    0.21
  -9   9  -1    1.05    0.35
   9  -9   1    1.19    0.29
  10  -9   1    0.03    0.32
  10   8  -1    0.25    0.33
   9   8  -1    1.61    0.32
   8   8  -1    0.86    0.26
   7   8  -1    1.33    0.25
   6   8  -1    0.10    0.16
  -6  -8   1   -0.11    0.15
  -6  -8   1    0.01    0.15
   5   8  -1    5.96    0.51
  -5  -8   1    5.30    0.49
  -5  -8   1    5.46    0.50
   4   8  -1    9.49    0.82
  -4  -8   1    9.01    0.81
  -4  -8   1   10.11    0.81
   3   8  -1    3.34    0.36
  -3  -8   1    4.33    0.35
  -3  -8   1    3.93    0.36
   2   8  -1    1.23    0.15
  -2  -8   1    1.33    0.15
  -2  -8   1    1.33    0.17
   1   8  -1    2.64    0.24
  -1  -8   1    2.25    0.25
  -1  -8   1    2.41    0.23
   0   8  -1    0.75    0.10
   0   8  -1    0.90    0.14
   0  -8   1    0.67    0.11
  -1   8  -1    9.72    0.83
  -1   8  -1    9.79    0.80
   1  -8   1    9.67    0.82
  -2   8  -1    1.57    0.18
   2  -8   1    1.62    0.18
  -3   8  -1    0.24    0.13
   3  -8   1    0.31    0.11
  -4   8  -1    0.13    0.16
   4  -8   1    0.06    0.11
  -5   8  -1   14.52    1.29
   5  -8   1   15.15    1.26
  -6   8  -1    0.35    0.25
   6  -8   1    0.73    0.17
  -7   8  -1    0.39    0.28
   7  -8   1    0.55    0.19
  -8   8  -1    0.12    0.26
   8  -8   1    0.55    0.20
  -9   8  -1    0.60    0.27
   9  -8   1    0.11    0.24
  10  -8   1    0.55    0.30
  10   7  -1   -0.42    0.30
   9   7  -1    0.56    0.26
   8   7  -1    1.48    0.27
   7   7  -1   -0.03    0.17
   6   7  -1   -0.06    0.15
  -6  -7   1    0.08    0.13
  -6  -7   1    0.00    0.12
   5   7  -1   13.15    1.08
  -5  -7   1   12.71    1.07
  -5  -7   1   12.39    1.06
   4   7  -1    0.73    0.14
  -4  -7   1    0.94    0.14
  -4  -7   1    0.73    0.11
   3   7  -1    0.19    0.10
  -3  -7   1    0.31    0.11
  -3  -7   1    0.17    0.08
   2   7  -1    5.84    0.53
  -2  -7   1    6.18    0.54
  -2  -7   1    6.73    0.53
   1   7  -1    7.85    0.72
  -1  -7   1    9.69    0.73
  -1  -7   1    8.64    0.73
   0   7  -1    1.59    0.15
   0  -7   1    1.65    0.17
   0  -7   1    1.49    0.17
  -1   7  -1    0.83    0.08
  -1   7  -1    0.60    0.12
   1  -7   1    0.83    0.11
  -2   7  -1   11.12    0.93
   2  -7   1   11.02    0.93
  -3   7  -1    0.22    0.11
   3  -7   1    0.17    0.09
  -4   7  -1    0.36    0.16
   4  -7   1    0.61    0.13
  -5   7  -1    0.03    0.19
   5  -7   1    0.32    0.13
  -6   7  -1    3.01    0.38
   6  -7   1    3.32    0.34
  -7   7  -1    0.29    0.22
   7  -7   1   -0.15    0.16
  -8   7  -1    0.14    0.21
   8  -7   1    0.20    0.20
  -9   7  -1    2.09    0.32
   9  -7   1    1.62    0.30
  10  -7   1    0.06    0.27
  11  -7   1    0.03    0.36
  10   6  -1    0.11    0.30
   9   6  -1    1.06    0.29
   8   6  -1    2.51    0.31
   7   6  -1    1.92    0.26
  -7  -6   1    1.74    0.25
   6   6  -1   13.94    1.09
  -6  -6   1   12.05    1.07
  -6  -6   1   12.81    1.08
   5   6  -1    8.19    0.76
  -5  -6   1    8.88    0.74
  -5  -6   1    9.16    0.75
   4   6  -1    8.26    0.71
  -4  -6   1    8.56    0.70
  -4  -6   1    8.14    0.71
   3   6  -1    0.14    0.09
  -3  -6   1    0.21    0.07
  -3  -6   1    0.08    0.08
   2   6  -1   12.06    1.00
  -2  -6   1   11.12    1.00
  -2  -6   1   12.77    0.99
   1   6  -1   29.61    2.35
  -1  -6   1   27.77    2.34
  -1  -6   1   28.26    2.35
   0   6  -1   10.46    0.85
   0  -6   1    9.91    0.86
   0  -6   1   10.46    0.86
  -1   6  -1   36.65    3.05
  -1   6  -1   36.21    3.03
   1  -6   1   38.76    3.04
  -2   6  -1    3.77    0.34
   2  -6   1    3.69    0.33
  -3   6  -1    0.84    0.14
   3  -6   1    0.80    0.08
   3  -6   1    0.78    0.12
  -4   6  -1    0.83    0.19
   4  -6   1    1.30    0.13
   4  -6   1    1.41    0.17
  -5   6  -1    0.80    0.21
   5  -6   1    0.77    0.12
   5  -6   1    1.15    0.16
  -6   6  -1    1.80    0.28
   6  -6   1    1.88    0.23
  -7   6  -1    1.32    0.24
   7  -6   1    1.60    0.22
  -8   6  -1    0.17    0.19
   8  -6   1    0.05    0.18
  -9   6  -1    0.84    0.25
   9  -6   1    0.70    0.23
  10  -6   1    0.24    0.26
  11  -6   1    0.42    0.34
  11   5  -1    0.31    0.37
  10   5  -1   -0.03    0.27
   9   5  -1    3.11    0.40
   8   5  -1    0.23    0.20
   7   5  -1    1.98    0.27
  -7  -5   1    2.54    0.25
  -7  -5   1    2.28    0.26
   6   5  -1    0.49    0.15
  -6  -5   1    0.36    0.13
  -6  -5   1    0.46    0.12
   5   5  -1    1.00    0.15
  -5  -5   1    0.88    0.14
  -5  -5   1    0.99    0.13
   4   5  -1    5.74    0.56
  -4  -5   1    7.25    0.55
  -4  -5   1    6.19    0.55
   3   5  -1   78.41    6.41
  -3  -5   1   77.84    6.41
  -3  -5   1   78.44    6.40
   2   5  -1   16.77    1.35
  -2  -5   1   15.48    1.35
  -2  -5   1   16.66    1.34
   1   5  -1  161.47   13.23
  -1  -5   1  157.27   13.23
  -1  -5   1  166.65   13.23
   0   5  -1    0.05    0.04
   0  -5   1   -0.04    0.06
   0  -5   1    0.08    0.05
  -1   5  -1  103.37    8.33
  -1   5  -1   98.24    8.35
   1  -5   1  104.18    8.34
  -2   5  -1   11.76    1.05
   2  -5   1   12.34    1.05
   2  -5   1   13.15    1.03
  -3   5  -1   86.24    7.10
   3  -5   1   86.98    7.08
   3  -5   1   86.45    7.09
  -4   5  -1   34.02    3.05
   4  -5   1   37.73    3.03
   4  -5   1   38.06    3.02
  -5   5  -1   -0.05    0.14
   5  -5   1    0.09    0.11
   5  -5   1   -0.03    0.08
  -6   5  -1    0.07    0.14
   6  -5   1    0.25    0.13
   6  -5   1    0.17    0.10
  -7   5  -1    4.66    0.43
   7  -5   1    3.90    0.42
  -8   5  -1   -0.07    0.18
   8  -5   1    0.21    0.19
  -9   5  -1    3.89    0.46
   9  -5   1    3.14    0.39
  10  -5   1    0.15    0.23
  11  -5   1    0.97    0.37
  11   4  -1   -0.05    0.33
  10   4  -1   -0.13    0.26
   9   4  -1    1.10    0.26
   8   4  -1   -0.02    0.18
   7   4  -1    0.09    0.15
  -7  -4   1    0.05    0.12
  -7  -4   1    0.06    0.12
   6   4  -1    3.90    0.40
  -6  -4   1    4.56    0.39
  -6  -4   1    4.30    0.40
   5   4  -1   26.12    2.14
  -5  -4   1   26.02    2.13
  -5  -4   1   25.57    2.13
   4   4  -1    0.12    0.09
  -4  -4   1    0.08    0.07
  -4  -4   1    0.15    0.08
   3   4  -1   -0.01    0.07
  -3  -4   1    0.13    0.06
  -3  -4   1    0.03    0.06
   2   4  -1   28.41    2.34
  -2  -4   1   28.58    2.34
  -2  -4   1   28.51    2.34
   1   4  -1   67.31    5.37
  -1  -4   1   63.46    5.37
  -1  -4   1   66.05    5.37
   0   4  -1    0.62    0.07
   0  -4   1    0.98    0.09
   0  -4   1    0.72    0.09
  -1   4  -1   39.61    3.19
  -1   4  -1   38.23    3.20
   1  -4   1   39.21    3.20
  -2   4  -1    1.34    0.15
   2  -4   1    1.43    0.13
   2  -4   1    1.86    0.15
  -3   4  -1   13.62    1.20
   3  -4   1   13.85    1.19
   3  -4   1   15.08    1.18
  -4   4  -1   12.95    1.14
   4  -4   1   13.93    1.13
   4  -4   1   13.53    1.12
  -5   4  -1    0.30    0.15
   5  -4   1    0.41    0.09
   5  -4   1    0.49    0.11
  -6   4  -1    9.71    0.83
   6  -4   1    9.17    0.81
   6  -4   1   10.23    0.83
  -7   4  -1    0.04    0.16
   7  -4   1    0.24    0.14
   7  -4   1   -0.01    0.13
  -8   4  -1    1.68    0.26
   8  -4   1    1.64    0.26
   9  -4   1    0.31    0.20
  10  -4   1    0.04    0.23
 -11   4  -1    0.59    0.33
  11   3  -1   -0.24    0.29
  10   3  -1   -0.08    0.24
   9   3  -1    0.00    0.21
   8   3  -1    6.64    0.62
   7   3  -1    0.94    0.19
  -7  -3   1    1.04    0.18
  -7  -3   1    1.34    0.17
   6   3  -1    1.23    0.20
  -6  -3   1    1.67    0.18
  -6  -3   1    1.59    0.19
   5   3  -1    0.94    0.13
  -5  -3   1    0.78    0.12
  -5  -3   1    0.68    0.12
   4   3  -1    3.21    0.29
  -4  -3   1    3.44    0.27
  -4  -3   1    2.71    0.28
   3   3  -1   19.19    1.63
  -3  -3   1   19.82    1.62
  -3  -3   1   20.20    1.63
   2   3  -1    0.55    0.07
  -2  -3   1    0.42    0.06
  -2  -3   1    0.41    0.06
   1   3  -1  331.10   27.36
  -1  -3   1  336.53   27.36
  -1  -3   1  337.11   27.36
   0   3  -1    0.25    0.04
   0  -3   1    0.28    0.04
   0  -3   1    0.22    0.04
  -1   3  -1  107.37    8.72
   1  -3   1  103.36    8.72
   1  -3   1  109.15    8.72
  -2   3  -1   10.31    0.86
   2  -3   1   10.55    0.85
   2  -3   1    9.92    0.85
  -3   3  -1   16.40    1.45
   3  -3   1   18.87    1.43
   3  -3   1   16.50    1.44
  -4   3  -1    0.17    0.11
   4  -3   1    0.03    0.08
   4  -3   1    0.09    0.08
  -5   3  -1    0.33    0.12
   5  -3   1    0.20    0.10
   5  -3   1    0.46    0.10
  -6   3  -1    0.76    0.15
   6  -3   1    0.51    0.13
   6  -3   1    0.49    0.12
  -7   3  -1    0.39    0.15
   7  -3   1    0.43    0.14
   7  -3   1    0.22    0.14
  -8   3  -1    1.56    0.21
   8  -3   1    0.71    0.19
   8  -3   1    1.15    0.21
   9  -3   1    1.42    0.26
 -10   3  -1   -0.07    0.26
  11   2  -1    0.32    0.30
  10   2  -1   -0.01    0.24
   9   2  -1    1.16    0.25
   8   2  -1    1.86    0.26
  -8  -2   1    2.36    0.24
  -8  -2   1    1.41    0.24
   7   2  -1    0.52    0.15
  -7  -2   1    0.26    0.12
  -7  -2   1    0.37    0.12
   6   2  -1    0.26    0.12
  -6  -2   1    0.18    0.10
  -6  -2   1    0.21    0.10
   5   2  -1   30.39    2.60
  -5  -2   1   31.34    2.60
  -5  -2   1   32.85    2.59
   4   2  -1    5.17    0.40
  -4  -2   1    4.35    0.38
  -4  -2   1    4.22    0.39
   3   2  -1   11.32    0.96
  -3  -2   1   11.73    0.96
  -3  -2   1   11.57    0.95
   2   2  -1  433.71   36.39
  -2  -2   1  438.19   36.39
  -2  -2   1  464.52   36.39
   1   2  -1   12.92    1.07
  -1  -2   1   13.15    1.07
  -1  -2   1   12.84    1.06
   0   2  -1   12.58    1.05
   0  -2   1   12.55    1.05
   0  -2   1   13.39    1.05
  -1   2  -1    5.79    0.48
   1  -2   1    5.95    0.48
   1  -2   1    5.66    0.48
  -2   2  -1  196.34   16.35
   2  -2   1  205.28   16.34
   2  -2   1  198.27   16.35
  -3   2  -1   27.06    2.36
   3  -2   1   30.91    2.36
   3  -2   1   27.97    2.36
  -4   2  -1    5.80    0.50
   4  -2   1    6.28    0.50
   4  -2   1    5.55    0.50
  -5   2  -1   45.18    3.65
   5  -2   1   44.49    3.65
   5  -2   1   43.82    3.65
  -6   2  -1    0.09    0.10
   6  -2   1    0.14    0.10
   6  -2   1   -0.01    0.10
  -7   2  -1    0.15    0.12
   7  -2   1   -0.03    0.12
   7  -2   1   -0.13    0.12
  -8   2  -1    0.17    0.17
   8  -2   1   -0.13    0.16
   8  -2   1   -0.06    0.15
  -9   2  -1    1.78    0.28
   9  -2   1    1.43    0.27
 -10   2  -1    0.41    0.22
  11   1  -1    0.07    0.30
  10   1  -1    0.07    0.22
   9   1  -1    2.21    0.30
   8   1  -1    1.00    0.22
  -8  -1   1    0.72    0.16
  -8  -1   1    0.86    0.17
   7   1  -1    0.06    0.14
  -7  -1   1    0.03    0.12
  -7  -1   1    0.05    0.12
   6   1  -1    2.02    0.22
  -6  -1   1    1.90    0.21
  -6  -1   1    1.71    0.19
   5   1  -1   19.95    1.74
  -5  -1   1   22.26    1.73
  -5  -1   1   20.66    1.73
   4   1  -1    1.50    0.15
  -4  -1   1    1.29    0.13
  -4  -1   1    1.00    0.13
   3   1  -1    5.92    0.54
  -3  -1   1    7.07    0.54
  -3  -1   1    6.34    0.54
   2   1  -1  236.66   19.70
  -2  -1   1  240.99   19.70
  -2  -1   1  245.70   19.70
   1   1  -1  291.50   23.61
  -1  -1   1  282.85   23.61
  -1  -1   1  292.84   23.61
   0   1  -1    0.79    0.07
   0  -1   1    0.79    0.07
  -1   1  -1  227.78   18.51
   1  -1   1  233.75   18.51
   1  -1   1  218.00   18.51
  -2   1  -1  224.55   19.45
   2  -1   1  251.50   19.45
   2  -1   1  237.94   19.45
  -3   1  -1   31.59    2.50
   3  -1   1   28.35    2.50
   3  -1   1   31.56    2.50
  -4   1  -1   20.86    1.69
   4  -1   1   21.37    1.70
   4  -1   1   19.41    1.69
  -5   1  -1    2.08    0.21
   5  -1   1    2.14    0.22
   5  -1   1    2.15    0.22
  -6   1  -1    0.97    0.14
   6  -1   1    0.80    0.14
   6  -1   1    0.52    0.12
  -7   1  -1    0.04    0.13
   7  -1   1   -0.08    0.13
   7  -1   1    0.27    0.15
  -8   1  -1    0.69    0.22
  -8   1  -1    0.82    0.20
   8  -1   1    1.12    0.20
  -9   1  -1    1.10    0.22
   9  -1   1    1.10    0.24
 -10   1  -1    0.44    0.23
  10  -1   1    0.79    0.24
  11   0  -1   -0.42    0.28
  10   0  -1    1.36    0.27
   9   0  -1    0.26    0.20
  -9   0   1    0.34    0.20
   8   0  -1    2.42    0.31
  -8   0   1    2.57    0.30
  -8   0   1    3.42    0.32
   7   0  -1    1.40    0.18
  -7   0   1    0.82    0.15
  -7   0   1    0.66    0.15
   6   0  -1    5.32    0.50
   6   0  -1    5.72    0.49
  -6   0   1    5.80    0.49
   5   0  -1    0.22    0.09
   5   0  -1    0.29    0.09
  -5   0   1    0.20    0.08
   4   0  -1    1.97    0.19
   4   0  -1    2.18    0.20
  -4   0   1    2.15    0.20
   3   0  -1    0.82    0.10
   3   0  -1    0.85    0.10
  -3   0   1    1.02    0.10
   2   0  -1  559.51   46.69
   2   0  -1  588.99   46.69
  -2   0   1  566.12   46.69
   1   0  -1   74.92    6.02
   1   0  -1   73.32    6.02
  -1   0   1   72.77    6.02
   0   0  -1    0.00    0.01
   0   0   1    0.08    0.01
   0   0   1    0.01    0.01
  -1   0  -1  106.40    9.23
   1   0   1  116.03    9.24
   1   0   1  116.86    9.24
  -2   0  -1  781.80   64.22
   2   0   1  789.32   64.22
   2   0   1  786.84   64.21
  -3   0  -1   20.89    1.71
   3   0   1   20.85    1.71
   3   0   1   20.87    1.72
  -4   0  -1    1.87    0.18
   4   0   1    2.02    0.19
   4   0   1    1.72    0.18
  -5   0  -1    1.18    0.14
   5   0   1    1.32    0.15
   5   0   1    1.11    0.15
  -6   0  -1    7.46    0.64
  -6   0  -1    8.14    0.64
   6   0   1    6.76    0.64
  -7   0  -1    1.33    0.20
  -7   0  -1    1.66    0.20
   7   0   1    1.87    0.22
  -8   0  -1    0.09    0.16
   8   0   1   -0.09    0.16
  -9   0  -1    0.40    0.21
   9   0   1   -0.12    0.18
 -10   0  -1    0.09    0.27
  10   0   1   -0.06    0.22
  11   0   1    1.08    0.31
  10  -1  -1    0.40    0.23
   9  -1  -1    0.81    0.24
  -9   1   1    1.08    0.22
   8  -1  -1    0.75    0.18
   8  -1  -1    1.16    0.21
  -8   1   1    1.31    0.20
   7  -1  -1    1.37    0.20
   7  -1  -1    1.19    0.18
  -7   1   1    1.27    0.18
   6  -1  -1    0.11    0.09
   6  -1  -1    0.03    0.11
  -6   1   1    0.12    0.10
   5  -1  -1   15.24    1.26
   5  -1  -1   14.59    1.26
  -5   1   1   15.88    1.27
   4  -1  -1    0.01    0.06
   4  -1  -1    0.05    0.06
  -4   1   1    0.05    0.07
   3  -1  -1   12.27    1.01
   3  -1  -1   12.34    1.01
  -3   1   1   12.08    1.01
   2  -1  -1   25.19    2.09
   2  -1  -1   24.70    2.09
  -2   1   1   26.74    2.09
   1  -1  -1  128.92   10.38
   1  -1  -1  126.51   10.38
  -1   1   1  125.64   10.38
   0  -1  -1    0.13    0.02
   0   1   1    0.13    0.02
   0   1   1    0.20    0.02
  -1  -1  -1   99.30    8.39
  -1  -1  -1  102.62    8.39
   1   1   1  106.30    8.40
  -2  -1  -1  169.56   14.08
  -2  -1  -1  172.40   14.08
   2   1   1  174.97   14.08
  -3  -1  -1   90.01    7.26
  -3  -1  -1   89.51    7.26
   3   1   1   86.69    7.26
  -4  -1  -1    0.61    0.10
  -4  -1  -1    0.82    0.10
   4   1   1    0.94    0.11
  -5  -1  -1   23.03    1.86
  -5  -1  -1   23.02    1.86
   5   1   1   21.47    1.86
  -6  -1  -1    0.28    0.12
  -6  -1  -1    0.40    0.11
   6   1   1    0.13    0.12
  -7  -1  -1    3.76    0.36
  -7  -1  -1    3.89    0.36
   7   1   1    3.46    0.37
  -8  -1  -1    0.48    0.18
   8   1   1    0.59    0.18
  -9  -1  -1    0.08    0.20
   9   1   1    0.39    0.19
  10   1   1    0.27    0.23
  11   1   1    0.24    0.30
   9  -2  -1    4.65    0.43
   9  -2  -1    4.08    0.43
  -9   2   1    3.58    0.43
   8  -2  -1    2.44    0.31
   8  -2  -1    3.08    0.33
  -8   2   1    3.17    0.32
   7  -2  -1    0.27    0.13
   7  -2  -1    0.64    0.15
  -7   2   1    0.32    0.14
   6  -2  -1    0.83    0.15
   6  -2  -1    0.78    0.13
  -6   2   1    0.78    0.14
   5  -2  -1   27.46    2.28
   5  -2  -1   27.27    2.28
  -5   2   1   28.46    2.29
   4  -2  -1    4.34    0.36
   4  -2  -1    3.90    0.36
  -4   2   1    4.29    0.37
   3  -2  -1   15.93    1.34
   3  -2  -1   16.16    1.34
  -3   2   1   16.89    1.35
   2  -2  -1   95.75    7.79
   2  -2  -1   97.37    7.79
  -2   2   1   92.54    7.79
   1  -2  -1    1.14    0.09
   1  -2  -1    0.78    0.10
  -1   2   1    0.95    0.11
   0  -2  -1    0.13    0.03
   0   2   1    0.21    0.03
   0   2   1    0.14    0.02
  -1  -2  -1    2.30    0.20
  -1  -2  -1    2.54    0.20
   1   2   1    2.27    0.20
  -2  -2  -1   86.84    7.08
  -2  -2  -1   89.11    7.08
   2   2   1   83.69    7.08
  -3  -2  -1   52.05    4.33
  -3  -2  -1   52.35    4.33
   3   2   1   54.40    4.33
  -4  -2  -1    0.36    0.07
  -4  -2  -1    0.40    0.09
   4   2   1    0.49    0.10
  -5  -2  -1    0.53    0.10
  -5  -2  -1    0.62    0.10
   5   2   1    0.38    0.12
  -6  -2  -1    7.96    0.73
  -6  -2  -1    8.79    0.73
   6   2   1    9.34    0.74
  -7  -2  -1    0.08    0.12
  -7  -2  -1   -0.01    0.12
   7   2   1    0.04    0.14
  -8  -2  -1    5.98    0.57
   8   2   1    6.93    0.60
  -9  -2  -1    0.25    0.20
   9   2   1   -0.04    0.19
  10   2   1   -0.11    0.23
  11   2   1    0.07    0.29
   9  -3  -1   -0.05    0.17
  -9   3   1    0.05    0.22
   8  -3  -1    9.46    0.82
   8  -3  -1    9.00    0.81
  -8   3   1    9.62    0.82
   7  -3  -1    0.04    0.12
   7  -3  -1    0.03    0.13
  -7   3   1    0.09    0.13
   6  -3  -1   10.32    0.90
   6  -3  -1   10.47    0.90
  -6   3   1   11.17    0.90
   5  -3  -1    0.05    0.09
   5  -3  -1    0.01    0.10
  -5   3   1    0.01    0.09
   4  -3  -1   19.21    1.63
   4  -3  -1   19.84    1.63
  -4   3   1   20.58    1.64
   3  -3  -1  160.44   12.93
   3  -3  -1  158.51   12.93
  -3   3   1  155.34   12.94
   2  -3  -1 1000.00   76.97
   2  -3  -1  958.29   76.96
  -2   3   1  868.09   76.97
   1  -3  -1    5.33    0.45
  -1   3   1    5.51    0.46
   0  -3  -1    0.35    0.06
   0   3   1    0.45    0.05
   0   3   1    0.38    0.06
  -1  -3  -1   19.97    1.71
  -1  -3  -1   21.03    1.71
   1   3   1   21.38    1.71
  -2  -3  -1  954.26   80.32
  -2  -3  -1  999.51   80.33
   2   3   1  995.48   80.31
  -3  -3  -1  136.99   11.31
  -3  -3  -1  139.49   11.31
   3   3   1  138.61   11.32
  -4  -3  -1   82.57    6.80
  -4  -3  -1   83.47    6.80
   4   3   1   83.44    6.81
  -5  -3  -1    0.00    0.08
  -5  -3  -1   -0.02    0.08
   5   3   1   -0.14    0.09
  -6  -3  -1   12.77    1.01
  -6  -3  -1   11.54    1.01
   6   3   1   12.14    1.03
  -7  -3  -1    1.25    0.19
   7   3   1    1.59    0.22
  -8  -3  -1    4.18    0.40
   8   3   1    3.77    0.42
  -9  -3  -1    0.16    0.25
   9   3   1    0.33    0.21
  10   3   1   -0.06    0.24
  11   3   1    0.26    0.32
  10  -4  -1   -0.04    0.25
   9  -4  -1   -0.16    0.18
  -9   4   1    0.28    0.23
   8  -4  -1    2.07    0.29
  -8   4   1    3.03    0.32
   7  -4  -1    0.72    0.14
   7  -4  -1    0.73    0.18
  -7   4   1    0.32    0.15
   6  -4  -1   12.24    1.04
   6  -4  -1   12.32    1.04
  -6   4   1   12.61    1.05
   5  -4  -1    1.65    0.19
   5  -4  -1    1.96    0.18
  -5   4   1    1.67    0.21
   4  -4  -1   35.01    2.86
   4  -4  -1   35.61    2.87
  -4   4   1   34.00    2.88
   3  -4  -1    0.45    0.10
   3  -4  -1    0.91    0.08
  -3   4   1    0.55    0.12
   2  -4  -1  143.56   11.79
   2  -4  -1  149.59   11.78
  -2   4   1  138.85   11.80
   1  -4  -1    1.74    0.16
  -1   4   1    1.62    0.16
  -1   4   1    1.62    0.14
   0  -4  -1    0.21    0.05
   0   4   1    0.01    0.03
   0   4   1    0.09    0.05
  -1  -4  -1    0.02    0.04
  -1  -4  -1    0.05    0.04
   1   4   1    0.04    0.04
  -2  -4  -1  125.00   10.38
  -2  -4  -1  129.00   10.39
   2   4   1  127.05   10.39
  -3  -4  -1    1.86    0.18
  -3  -4  -1    1.76    0.18
   3   4   1    2.15    0.19
  -4  -4  -1  100.57    8.01
  -4  -4  -1   99.71    8.01
   4   4   1   93.22    8.02
  -5  -4  -1   10.79    0.94
  -5  -4  -1   12.04    0.94
   5   4   1   11.13    0.95
  -6  -4  -1    0.89    0.14
  -6  -4  -1    1.08    0.15
   6   4   1    0.90    0.17
  -7  -4  -1    0.18    0.12
   7   4   1   -0.11    0.12
  -8  -4  -1    2.17    0.25
   8   4   1    1.48    0.27
   9   4   1    0.33    0.22
  10   4   1   -0.01    0.25
  11   4   1    0.16    0.31
  10  -5  -1   -0.11    0.23
   9  -5  -1    0.89    0.22
  -9   5   1    0.73    0.24
   8  -5  -1    0.25    0.17
  -8   5   1    0.33    0.19
   7  -5  -1   -0.16    0.14
  -7   5   1   -0.10    0.16
   6  -5  -1    0.08    0.13
   6  -5  -1    0.03    0.10
  -6   5   1    0.23    0.14
   5  -5  -1   16.94    1.36
   5  -5  -1   15.85    1.37
  -5   5   1   16.14    1.38
   4  -5  -1    0.39    0.07
   4  -5  -1    0.30    0.10
  -4   5   1    0.41    0.16
   3  -5  -1   22.00    1.74
   3  -5  -1   20.76    1.75
  -3   5   1   19.88    1.76
   2  -5  -1   21.70    1.80
  -2   5   1   22.14    1.81
   1  -5  -1   15.99    1.32
  -1   5   1   16.04    1.31
  -1   5   1   16.06    1.33
   0  -5  -1    3.21    0.29
   0   5   1    3.23    0.30
   0   5   1    3.61    0.29
  -1  -5  -1   10.86    0.87
  -1  -5  -1   10.12    0.87
   1   5   1   10.67    0.87
  -2  -5  -1   24.91    2.00
  -2  -5  -1   24.56    2.00
   2   5   1   23.43    2.00
  -3  -5  -1   53.36    4.30
  -3  -5  -1   52.20    4.30
   3   5   1   51.69    4.30
  -4  -5  -1    1.11    0.13
  -4  -5  -1    0.92    0.12
   4   5   1    0.69    0.14
  -5  -5  -1    4.47    0.38
  -5  -5  -1    4.41    0.38
   5   5   1    3.84    0.40
  -6  -5  -1    2.33    0.25
  -6  -5  -1    2.40    0.25
   6   5   1    2.35    0.27
  -7  -5  -1   -0.03    0.12
   7   5   1    0.03    0.13
  -8  -5  -1    0.02    0.17
   8   5   1    0.03    0.19
   9   5   1    0.26    0.22
  10   5   1    0.13    0.27
  10  -6  -1    0.05    0.24
 -10   6   1   -0.10    0.41
   9  -6  -1    0.69    0.23
  -9   6   1    1.11    0.28
   8  -6  -1    0.04    0.18
  -8   6   1    0.34    0.21
   7  -6  -1    4.81    0.52
  -7   6   1    6.09    0.53
   6  -6  -1    2.76    0.31
  -6   6   1    3.37    0.35
   5  -6  -1   17.12    1.44
  -5   6   1   17.37    1.46
   4  -6  -1    2.66    0.22
   4  -6  -1    1.98    0.24
  -4   6   1    2.45    0.30
   3  -6  -1    0.07    0.08
  -3   6   1    0.04    0.11
   2  -6  -1  110.78    9.42
  -2   6   1  119.73    9.43
   1  -6  -1    7.68    0.64
  -1   6   1    7.59    0.62
  -1   6   1    7.41    0.64
   0  -6  -1    7.61    0.66
   0   6   1    7.81    0.65
   0   6   1    8.07    0.66
  -1  -6  -1    8.07    0.70
  -1  -6  -1    8.54    0.70
   1   6   1    8.38    0.70
  -2  -6  -1   17.28    1.44
  -2  -6  -1   17.05    1.44
   2   6   1   18.00    1.44
  -3  -6  -1    3.49    0.31
  -3  -6  -1    3.48    0.31
   3   6   1    3.33    0.32
  -4  -6  -1    0.64    0.11
  -4  -6  -1    0.78    0.12
   4   6   1    0.23    0.12
  -5  -6  -1    1.83    0.22
  -5  -6  -1    2.30    0.22
   5   6   1    2.24    0.24
  -6  -6  -1   23.13    1.85
  -6  -6  -1   22.52    1.86
   6   6   1   21.13    1.86
  -7  -6  -1    2.53    0.28
   7   6   1    2.32    0.30
   8   6   1    2.53    0.32
   9   6   1   -0.06    0.24
  10   6   1   -0.05    0.28
  10  -7  -1    0.18    0.27
 -10   7   1    0.15    0.29
   9  -7  -1    0.11    0.22
  -9   7   1    0.11    0.23
   8  -7  -1    3.83    0.40
  -8   7   1    3.56    0.42
   7  -7  -1    2.31    0.31
  -7   7   1    3.39    0.36
   6  -7  -1    4.73    0.47
  -6   7   1    5.34    0.51
   5  -7  -1   17.24    1.42
  -5   7   1   16.58    1.45
   4  -7  -1    5.05    0.43
  -4   7   1    4.18    0.47
   3  -7  -1    5.39    0.49
  -3   7   1    6.11    0.52
   2  -7  -1    0.77    0.12
  -2   7   1    0.71    0.11
   1  -7  -1    3.52    0.36
  -1   7   1    4.13    0.34
  -1   7   1    4.56    0.37
   0  -7  -1    2.83    0.27
   0   7   1    3.25    0.26
   0   7   1    2.76    0.28
  -1  -7  -1    1.51    0.16
  -1  -7  -1    1.22    0.16
   1   7   1    1.71    0.16
  -2  -7  -1    0.13    0.09
  -2  -7  -1    0.30    0.08
   2   7   1    0.16    0.08
  -3  -7  -1    2.92    0.27
  -3  -7  -1    2.81    0.27
   3   7   1    2.56    0.28
  -4  -7  -1   26.61    2.15
  -4  -7  -1   26.71    2.15
   4   7   1   24.57    2.15
  -5  -7  -1   47.03    3.82
  -5  -7  -1   45.85    3.82
   5   7   1   46.41    3.83
  -6  -7  -1    0.32    0.14
   6   7   1   -0.13    0.16
  -7  -7  -1   13.95    1.19
   7   7   1   14.15    1.21
   8   7   1    1.09    0.25
   9   7   1   -0.11    0.23
  10   7   1    0.55    0.32
  10  -8  -1    0.25    0.33
 -10   8   1    0.21    0.31
   9  -8  -1    1.03    0.31
  -9   8   1    1.90    0.33
   8  -8  -1    0.09    0.20
  -8   8   1    0.08    0.22
   7  -8  -1    0.55    0.19
  -7   8   1    0.87    0.25
   6  -8  -1    5.28    0.53
  -6   8   1    6.66    0.59
   5  -8  -1    0.49    0.15
  -5   8   1    0.43    0.23
   4  -8  -1   -0.18    0.11
  -4   8   1   -0.03    0.18
   3  -8  -1    8.29    0.68
  -3   8   1    7.57    0.70
   2  -8  -1    0.07    0.09
  -2   8   1    0.18    0.09
   1  -8  -1   28.26    2.54
  -1   8   1   33.40    2.55
  -1   8   1   31.17    2.53
   0  -8  -1    6.79    0.61
   0   8   1    7.19    0.61
   0   8   1    7.74    0.62
  -1  -8  -1   40.96    3.44
   1   8   1   41.08    3.43
   1   8   1   43.68    3.44
  -2  -8  -1    0.01    0.10
  -2  -8  -1   -0.06    0.08
   2   8   1    0.04    0.10
  -3  -8  -1    3.13    0.29
  -3  -8  -1    2.81    0.28
   3   8   1    2.98    0.29
  -4  -8  -1    0.62    0.13
  -4  -8  -1    0.59    0.12
   4   8   1    0.57    0.15
  -5  -8  -1    1.31    0.20
  -5  -8  -1    1.59    0.20
   5   8   1    1.49    0.22
  -6  -8  -1    0.21    0.15
   6   8   1    0.10    0.18
  -7  -8  -1    1.01    0.20
   7   8   1    0.96    0.22
   8   8   1    0.45    0.22
   9   8   1    0.59    0.27
  10   8   1   -0.17    0.31
  10  -9  -1    0.51    0.32
 -10   9   1    0.42    0.35
   9  -9  -1    0.10    0.28
  -9   9   1    0.04    0.28
   8  -9  -1    0.86    0.24
  -8   9   1    0.86    0.28
   7  -9  -1    0.04    0.18
  -7   9   1   -0.04    0.24
   6  -9  -1    0.17    0.16
  -6   9   1    0.27    0.25
   5  -9  -1    5.78    0.52
  -5   9   1    5.44    0.59
   4  -9  -1    0.89    0.16
  -4   9   1    0.67    0.21
   3  -9  -1    0.17    0.11
  -3   9   1    0.06    0.14
   2  -9  -1    8.80    0.78
  -2   9   1    9.51    0.79
   1  -9  -1    2.91    0.28
  -1   9   1    2.78    0.29
   0  -9  -1    1.84    0.20
   0   9   1    1.58    0.18
   0   9   1    2.15    0.21
  -1  -9  -1    5.98    0.51
   1   9   1    5.99    0.52
   1   9   1    5.76    0.51
  -2  -9  -1    4.45    0.42
  -2  -9  -1    5.29    0.41
   2   9   1    4.15    0.41
  -3  -9  -1    0.61    0.12
  -3  -9  -1    0.68    0.13
   3   9   1    0.41    0.13
  -4  -9  -1   12.73    1.07
  -4  -9  -1   11.63    1.07
   4   9   1   14.08    1.08
  -5  -9  -1    0.13    0.13
  -5  -9  -1   -0.03    0.12
   5   9   1    0.09    0.16
  -6  -9  -1    1.14    0.20
   6   9   1    1.02    0.22
   7   9   1   -0.11    0.20
   8   9   1    2.97    0.39
   9   9   1    0.20    0.29
  10 -10  -1    0.54    0.39
 -10  10   1    0.63    0.41
   9 -10  -1   -0.07    0.27
  -9  10   1    0.04    0.32
   8 -10  -1    0.23    0.24
  -8  10   1   -0.12    0.27
   7 -10  -1    2.34    0.32
  -7  10   1    2.44    0.38
   6 -10  -1    0.31    0.19
  -6  10   1    0.43    0.28
   5 -10  -1    0.05    0.15
  -5  10   1    0.14    0.25
   4 -10  -1    0.06    0.13
  -4  10   1    0.47    0.21
   3 -10  -1    0.29    0.13
  -3  10   1    0.00    0.12
   2 -10  -1    2.96    0.29
  -2  10   1    2.80    0.29
   1 -10  -1    0.77    0.14
  -1  10   1    0.78    0.16
   0 -10  -1    3.18    0.31
   0  10   1    3.12    0.32
  -1 -10  -1    3.19    0.30
   1  10   1    2.86    0.31
   1  10   1    3.06    0.30
  -2 -10  -1    0.01    0.11
   2  10   1   -0.01    0.10
   2  10   1    0.03    0.12
  -3 -10  -1    1.04    0.15
  -3 -10  -1    0.87    0.16
   3  10   1    0.44    0.16
  -4 -10  -1    0.13    0.15
  -4 -10  -1    0.02    0.14
   4  10   1    0.23    0.17
  -5 -10  -1    2.03    0.24
   5  10   1    1.72    0.26
  -6 -10  -1    2.64    0.28
   6  10   1    1.79    0.30
   7  10   1    0.05    0.22
   8  10   1   -0.04    0.24
   9  10   1    1.62    0.37
   9 -11  -1   -0.26    0.30
  -9  11   1   -0.14    0.35
   8 -11  -1   -0.16    0.24
  -8  11   1    0.16    0.32
   7 -11  -1    0.03    0.21
  -7  11   1   -0.02    0.30
   6 -11  -1    0.81    0.22
  -6  11   1    1.53    0.30
   5 -11  -1    4.47    0.43
  -5  11   1    3.75    0.50
   4 -11  -1    1.78    0.22
  -4  11   1    1.33    0.28
   3 -11  -1   24.97    2.16
  -3  11   1   27.41    2.18
   2 -11  -1    0.65    0.16
  -2  11   1    0.65    0.18
   1 -11  -1    8.00    0.66
  -1  11   1    7.12    0.66
   0 -11  -1    0.03    0.11
   0  11   1    0.11    0.14
  -1 -11  -1   12.65    1.05
   1  11   1   12.13    1.05
  -2 -11  -1    3.17    0.32
   2  11   1    3.21    0.33
   2  11   1    3.16    0.33
  -3 -11  -1    1.52    0.20
  -3 -11  -1    1.34    0.21
   3  11   1    1.76    0.23
  -4 -11  -1    2.89    0.32
  -4 -11  -1    3.09    0.31
   4  11   1    2.75    0.32
  -5 -11  -1    8.49    0.76
   5  11   1    9.01    0.78
   6  11   1    0.11    0.20
   7  11   1    0.57    0.25
   8  11   1    0.02    0.27
   9  11   1    0.43    0.36
   9 -12  -1    0.01    0.38
  -9  12   1   -0.05    0.39
   8 -12  -1   -0.07    0.26
  -8  12   1    0.14    0.36
   7 -12  -1   -0.09    0.24
  -7  12   1   -0.01    0.33
   6 -12  -1    0.45    0.21
  -6  12   1   -0.26    0.31
   5 -12  -1    7.65    0.68
  -5  12   1    7.21    0.76
   4 -12  -1    0.32    0.16
  -4  12   1    0.21    0.23
   3 -12  -1    0.41    0.17
  -3  12   1    0.97    0.23
   2 -12  -1    2.35    0.30
  -2  12   1    3.41    0.34
   1 -12  -1    0.41    0.15
  -1  12   1    0.36    0.17
   0 -12  -1    0.08    0.13
   0  12   1    0.30    0.16
  -1 -12  -1    2.07    0.27
   1  12   1    3.00    0.30
  -2 -12  -1    0.20    0.14
   2  12   1   -0.02    0.15
  -3 -12  -1    5.10    0.48
   3  12   1    5.54    0.50
   3  12   1    4.90    0.49
  -4 -12  -1    0.91    0.19
  -4 -12  -1    1.46    0.23
   4  12   1    1.05    0.24
  -5 -12  -1    1.02    0.22
   5  12   1    0.79    0.23
   6  12   1    0.36    0.25
   7  12   1    0.45    0.27
   8  12   1    0.66    0.33
   8 -13  -1   -0.22    0.30
  -8  13   1    0.07    0.41
   7 -13  -1    0.12    0.26
  -7  13   1    0.47    0.38
   6 -13  -1   -0.19    0.22
  -6  13   1   -0.08    0.35
   5 -13  -1    1.50    0.24
  -5  13   1    0.59    0.33
   4 -13  -1    1.28    0.22
  -4  13   1    0.81    0.28
   3 -13  -1    0.12    0.16
  -3  13   1   -0.09    0.16
   2 -13  -1    5.61    0.56
  -2  13   1    6.83    0.60
   1 -13  -1    0.44    0.16
  -1  13   1    0.60    0.20
   0 -13  -1    2.22    0.26
   0  13   1    1.90    0.27
  -1 -13  -1    0.70    0.17
   1  13   1    0.44    0.19
  -2 -13  -1    0.15    0.15
   2  13   1    0.22    0.18
  -3 -13  -1    0.16    0.15
   3  13   1   -0.01    0.17
  -4 -13  -1   -0.14    0.16
   4  13   1   -0.04    0.21
   4  13   1   -0.11    0.21
  -5 -13  -1    1.15    0.26
   5  13   1    0.96    0.27
   6  13   1    0.37    0.24
   7  13   1    0.09    0.28
   8  13   1    0.26    0.40
   7 -14  -1    0.04    0.28
  -7  14   1    0.22    0.45
   6 -14  -1    0.77    0.25
  -6  14   1    0.37    0.40
   5 -14  -1    3.21    0.38
  -5  14   1    3.17    0.50
   4 -14  -1    0.06    0.19
  -4  14   1   -0.16    0.27
   3 -14  -1    0.75    0.20
  -3  14   1    0.56    0.25
   2 -14  -1    0.62    0.18
  -2  14   1    0.48    0.22
   1 -14  -1    6.22    0.54
  -1  14   1    5.27    0.56
   0 -14  -1    0.46    0.17
   0  14   1    0.63    0.21
  -1 -14  -1    0.99    0.20
   1  14   1    0.80    0.22
  -2 -14  -1   -0.07    0.16
   2  14   1    0.05    0.19
  -3 -14  -1   -0.11    0.19
   3  14   1    0.18    0.23
  -4 -14  -1    0.95    0.22
   5  14   1    2.54    0.38
   6  14   1   -0.08    0.26
   7  14   1   -0.04    0.32
   6 -15  -1    0.25    0.27
  -6  15   1    0.38    0.46
   5 -15  -1    1.15    0.27
  -5  15   1    1.22    0.42
   4 -15  -1   -0.07    0.21
  -4  15   1    0.08    0.32
   3 -15  -1    1.72    0.27
  -3  15   1    1.80    0.31
   2 -15  -1    3.77    0.42
  -2  15   1    4.15    0.46
   1 -15  -1    6.33    0.61
  -1  15   1    6.86    0.64
   0 -15  -1    0.23    0.18
   0  15   1    0.09    0.21
  -1 -15  -1   10.53    0.93
   1  15   1   10.84    0.95
  -2 -15  -1    1.01    0.22
   2  15   1    0.72    0.27
  -3 -15  -1    1.11    0.24
   3  15   1    1.00    0.29
  -4 -15  -1    1.64    0.30
   7  15   1   -0.39    0.42
   5 -16  -1    0.39    0.31
  -5  16   1    2.02    0.49
   4 -16  -1    0.17    0.24
  -4  16   1    0.41    0.37
   3 -16  -1    0.42    0.23
  -3  16   1    0.43    0.33
   2 -16  -1    1.31    0.25
  -2  16   1    0.85    0.30
   1 -16  -1   -0.03    0.20
  -1  16   1    0.27    0.24
   0 -16  -1    0.02    0.19
   0  16   1   -0.10    0.24
  -1 -16  -1    0.22    0.22
   1  16   1    0.29    0.25
  -2 -16  -1    1.68    0.30
   2  16   1    2.82    0.35
  -3 -16  -1   -0.08    0.22
   3  16   1    0.02    0.25
   4 -17  -1    0.83    0.29
  -4  17   1    0.99    0.43
   3 -17  -1    0.14    0.26
  -3  17   1   -0.06    0.35
   2 -17  -1    0.08    0.23
  -2  17   1    0.01    0.31
   1 -17  -1    1.06    0.26
  -1  17   1    1.01    0.31
   0 -17  -1    0.48    0.23
   0  17   1    0.28    0.28
  -1 -17  -1    0.19    0.23
   1  17   1   -0.06    0.27
  -2 -17  -1   -0.13    0.26
   2  17   1    0.10    0.29
  -3 -17  -1    0.01    0.25
   3 -18  -1    0.42    0.28
  -3  18   1   -0.24    0.45
   2 -18  -1    0.22    0.28
  -2  18   1    0.58    0.37
   1 -18  -1    0.75    0.31
  -1  18   1   -0.03    0.33
   0 -18  -1    0.32    0.27
   0  18   1    0.09    0.31
  -1 -18  -1    0.39    0.28
   1  18   1    0.47    0.33
  -2 -18  -1    1.61    0.36
   2  18   1    1.51    0.38
   0 -19  -1    0.45    0.34
   0  19   1    0.06    0.48
   0 -19   2   -0.37    0.33
   1 -19   2    0.26    0.30
   3  18  -2    0.22    0.36
   2  18  -2    0.08    0.32
   1  18  -2    0.32    0.33
  -1 -18   2    0.42    0.36
   0  18  -2   -0.18    0.31
   0 -18   2   -0.05    0.28
  -1  18  -2   -0.14    0.31
   1 -18   2   -0.14    0.30
  -2  18  -2    0.37    0.33
   2 -18   2   -0.17    0.27
   3 -18   2    0.46    0.29
   4  17  -2    0.18    0.35
   3  17  -2    0.37    0.36
   2  17  -2    0.09    0.29
   1  17  -2    0.50    0.29
  -1 -17   2   -0.05    0.23
   0  17  -2    0.14    0.28
   0 -17   2    0.03    0.22
  -1  17  -2   -0.10    0.27
   1 -17   2    0.05    0.23
  -2  17  -2    0.23    0.29
   2 -17   2    0.19    0.24
  -3  17  -2    0.31    0.33
   3 -17   2    0.20    0.25
  -4  17  -2    0.84    0.40
   4 -17   2    0.87    0.30
   4  16  -2    1.50    0.34
   3  16  -2   -0.03    0.26
   2  16  -2    0.04    0.25
  -2 -16   2   -0.07    0.20
   1  16  -2    0.07    0.25
  -1 -16   2   -0.01    0.21
   0  16  -2    1.26    0.29
   0 -16   2    1.46    0.25
  -1  16  -2    0.16    0.25
   1 -16   2    0.35    0.23
  -2  16  -2    0.61    0.27
   2 -16   2    0.93    0.24
  -3  16  -2    0.72    0.29
   3 -16   2    0.44    0.23
  -4  16  -2    1.32    0.36
   4 -16   2    0.73    0.27
  -5  16  -2    1.22    0.45
   5 -16   2    1.63    0.33
   7  15  -2    0.37    0.44
  -4 -15   2    0.01    0.26
   3  15  -2    1.58    0.30
   2  15  -2    0.32    0.22
  -2 -15   2    0.39    0.20
   1  15  -2    0.06    0.21
  -1 -15   2    0.14    0.18
   0  15  -2    0.00    0.20
   0 -15   2   -0.05    0.17
  -1  15  -2    1.52    0.30
   1 -15   2    2.13    0.27
  -2  15  -2    0.58    0.25
   2 -15   2    1.32    0.23
  -3  15  -2    0.40    0.25
   3 -15   2    0.24    0.20
  -4  15  -2    0.02    0.27
   4 -15   2   -0.05    0.21
  -5  15  -2   -0.27    0.33
   5 -15   2    0.40    0.25
  -6  15  -2    0.57    0.46
   6 -15   2    0.28    0.28
  -7  15  -2    0.25    0.67
   7  14  -2   -0.31    0.36
   6  14  -2    0.41    0.33
   5  14  -2    0.37    0.26
  -5 -14   2    0.35    0.35
  -4 -14   2   -0.11    0.24
  -3 -14   2    0.06    0.22
  -3 -14   2    0.46    0.18
   2  14  -2    0.92    0.23
  -2 -14   2    0.66    0.20
   1  14  -2    0.10    0.20
  -1 -14   2    0.52    0.17
   0  14  -2    0.71    0.22
   0 -14   2    1.37    0.22
  -1  14  -2    0.31    0.20
   1 -14   2   -0.03    0.15
  -2  14  -2    2.05    0.29
   2 -14   2    1.44    0.24
  -3  14  -2    0.53    0.22
   3 -14   2    0.32    0.19
  -4  14  -2    1.34    0.29
   4 -14   2    1.12    0.24
  -5  14  -2    0.39    0.31
   5 -14   2    0.32    0.23
  -6  14  -2   -0.21    0.37
   6 -14   2    0.04    0.25
  -7  14  -2    0.03    0.46
   7 -14   2    0.60    0.31
  -8  14  -2    0.18    0.60
   8  13  -2    0.02    0.36
   7  13  -2    0.25    0.31
   6  13  -2   -0.12    0.28
   5  13  -2    0.34    0.25
  -5 -13   2   -0.01    0.24
   4  13  -2    0.69    0.22
  -4 -13   2    1.17    0.24
  -3 -13   2    0.07    0.21
  -3 -13   2    0.01    0.17
  -2 -13   2    3.83    0.39
  -2 -13   2    3.30    0.35
   1  13  -2    0.48    0.19
  -1 -13   2    0.88    0.17
   0  13  -2    5.50    0.57
   0 -13   2    6.46    0.55
  -1  13  -2    1.58    0.25
   1 -13   2    1.46    0.21
  -2  13  -2    0.74    0.22
   2 -13   2    1.21    0.20
  -3  13  -2    1.31    0.23
   3 -13   2    0.48    0.19
  -4  13  -2   -0.04    0.22
   4 -13   2    0.01    0.18
  -5  13  -2   -0.18    0.26
   5 -13   2    0.26    0.20
  -6  13  -2    1.04    0.38
   6 -13   2    1.16    0.27
  -7  13  -2    0.04    0.40
   7 -13   2    0.13    0.25
  -8  13  -2   -0.32    0.43
   8 -13   2    0.25    0.31
   8  12  -2   -0.33    0.33
   7  12  -2    1.23    0.31
   6  12  -2   -0.08    0.22
   5  12  -2   -0.11    0.20
  -5 -12   2   -0.11    0.19
   4  12  -2    1.24    0.23
  -4 -12   2    1.36    0.23
   3  12  -2    5.32    0.48
  -3 -12   2    5.82    0.50
  -3 -12   2    4.46    0.47
   2  12  -2    1.03    0.19
  -2 -12   2    1.59    0.22
  -2 -12   2    1.06    0.19
   1  12  -2   18.62    1.50
  -1 -12   2   17.06    1.48
   0  12  -2    1.81    0.26
   0 -12   2    2.24    0.25
  -1  12  -2    3.02    0.33
   1 -12   2    2.90    0.31
  -2  12  -2    1.06    0.21
   2 -12   2    0.80    0.17
  -3  12  -2    2.16    0.29
   3 -12   2    2.42    0.28
  -4  12  -2    1.02    0.24
   4 -12   2    1.09    0.21
  -5  12  -2   -0.32    0.24
   5 -12   2    0.12    0.18
  -6  12  -2    0.18    0.31
   6 -12   2   -0.06    0.20
  -7  12  -2    5.98    0.66
   7 -12   2    4.28    0.51
  -8  12  -2    0.38    0.45
   8 -12   2    0.26    0.29
  -9  12  -2    0.22    0.42
   9  11  -2    0.30    0.37
   8  11  -2    1.40    0.34
   7  11  -2    2.89    0.38
   6  11  -2   -0.17    0.20
  -6 -11   2    0.23    0.23
   5  11  -2    0.34    0.19
  -5 -11   2    0.34    0.18
   4  11  -2   -0.11    0.15
  -4 -11   2    0.08    0.18
  -4 -11   2   -0.22    0.14
   3  11  -2   12.64    1.04
  -3 -11   2   12.48    1.05
  -3 -11   2   11.79    1.03
   2  11  -2    0.08    0.13
  -2 -11   2   -0.02    0.13
  -2 -11   2   -0.12    0.13
   1  11  -2   20.10    1.64
  -1 -11   2   18.74    1.65
  -1 -11   2   20.83    1.66
   0  11  -2   26.48    2.16
   0 -11   2   25.40    2.14
  -1  11  -2   23.87    1.97
   1 -11   2   23.35    1.96
  -2  11  -2    2.24    0.26
   2 -11   2    1.85    0.23
  -3  11  -2    7.81    0.68
   3 -11   2    7.34    0.67
  -4  11  -2    6.21    0.49
   4 -11   2    3.72    0.45
  -5  11  -2    0.50    0.25
   5 -11   2    0.42    0.18
  -6  11  -2   -0.23    0.28
   6 -11   2    0.07    0.19
  -7  11  -2    2.10    0.41
   7 -11   2    1.73    0.30
  -8  11  -2    1.35    0.43
   8 -11   2    1.45    0.31
  -9  11  -2    0.22    0.36
   9 -11   2    0.31    0.31
   9  10  -2    1.11    0.37
   8  10  -2    1.07    0.30
   7  10  -2    0.81    0.25
   6  10  -2    0.32    0.20
  -6 -10   2    0.24    0.20
   5  10  -2    1.28    0.23
  -5 -10   2    1.10    0.22
   4  10  -2    2.44    0.26
  -4 -10   2    1.95    0.23
  -4 -10   2    1.81    0.25
   3  10  -2    0.28    0.15
  -3 -10   2    0.51    0.15
  -3 -10   2    0.39    0.13
   2  10  -2    0.12    0.12
  -2 -10   2   -0.02    0.11
  -2 -10   2    0.13    0.13
   1  10  -2   14.02    1.18
  -1 -10   2   13.74    1.18
  -1 -10   2   14.91    1.20
   0  10  -2   31.78    2.62
   0  10  -2   32.59    2.61
   0 -10   2   30.59    2.61
  -1  10  -2    0.15    0.14
   1 -10   2    0.31    0.11
  -2  10  -2   -0.02    0.13
   2 -10   2    0.03    0.11
  -3  10  -2    0.04    0.14
   3 -10   2    0.01    0.12
  -4  10  -2    2.89    0.33
   4 -10   2    2.57    0.30
  -5  10  -2    1.24    0.28
   5 -10   2    1.77    0.23
  -6  10  -2    1.01    0.31
   6 -10   2    0.90    0.21
  -7  10  -2   -0.10    0.29
   7 -10   2    0.44    0.21
  -8  10  -2    2.51    0.40
   8 -10   2    1.98    0.33
  -9  10  -2    0.02    0.35
   9 -10   2    0.16    0.29
   9   9  -2   -0.02    0.31
   8   9  -2    0.22    0.24
   7   9  -2    3.28    0.39
   6   9  -2    0.90    0.21
  -6  -9   2    1.19    0.22
   5   9  -2    1.13    0.19
  -5  -9   2    0.49    0.16
  -5  -9   2    0.68    0.15
   4   9  -2    4.65    0.39
  -4  -9   2    4.35    0.40
  -4  -9   2    3.40    0.37
   3   9  -2    1.34    0.20
  -3  -9   2    2.25    0.19
  -3  -9   2    1.44    0.21
   2   9  -2   -0.08    0.11
  -2  -9   2    0.04    0.11
  -2  -9   2   -0.07    0.08
   1   9  -2   40.76    3.28
  -1  -9   2   39.69    3.28
  -1  -9   2   39.36    3.29
   0   9  -2    2.84    0.24
   0   9  -2    2.16    0.25
   0  -9   2    2.47    0.26
  -1   9  -2    0.04    0.07
  -1   9  -2    0.17    0.11
   1  -9   2    0.57    0.11
  -2   9  -2   -0.08    0.11
   2  -9   2    0.01    0.10
  -3   9  -2    2.72    0.29
   3  -9   2    2.78    0.28
  -4   9  -2    2.11    0.26
   4  -9   2    1.60    0.22
  -5   9  -2    0.40    0.22
   5  -9   2    0.62    0.16
  -6   9  -2    2.80    0.41
   6  -9   2    2.90    0.32
  -7   9  -2    5.90    0.69
   7  -9   2    7.59    0.64
  -8   9  -2    0.03    0.30
   8  -9   2   -0.26    0.21
  -9   9  -2   -0.48    0.27
   9  -9   2   -0.03    0.29
  10  -9   2    0.27    0.37
  10   8  -2   -0.07    0.32
   9   8  -2    0.15    0.27
   8   8  -2   -0.02    0.22
   7   8  -2    2.70    0.33
   6   8  -2    0.39    0.17
  -6  -8   2    0.68    0.16
   5   8  -2    5.39    0.48
  -5  -8   2    5.03    0.48
  -5  -8   2    5.17    0.46
   4   8  -2    1.27    0.19
  -4  -8   2    0.77    0.14
  -4  -8   2    1.02    0.17
   3   8  -2    7.41    0.67
  -3  -8   2    8.00    0.66
  -3  -8   2    7.77    0.67
   2   8  -2    0.48    0.11
  -2  -8   2    0.41    0.11
  -2  -8   2    0.47    0.10
   1   8  -2   13.15    1.08
  -1  -8   2   12.73    1.09
  -1  -8   2   13.19    1.08
   0   8  -2   42.73    3.39
   0  -8   2   38.28    3.40
   0  -8   2   42.76    3.40
  -1   8  -2   10.09    0.80
  -1   8  -2    9.18    0.82
   1  -8   2    9.59    0.82
  -2   8  -2    1.64    0.16
  -2   8  -2    1.30    0.19
   2  -8   2    1.68    0.18
  -3   8  -2    7.52    0.66
   3  -8   2    7.52    0.65
  -4   8  -2    2.02    0.24
   4  -8   2    1.52    0.21
  -5   8  -2    1.18    0.25
   5  -8   2    0.98    0.18
  -6   8  -2   -0.14    0.23
   6  -8   2    0.10    0.16
  -7   8  -2    1.25    0.29
   7  -8   2    0.94    0.21
  -8   8  -2    2.24    0.35
   8  -8   2    1.67    0.29
  -9   8  -2   -0.08    0.29
   9  -8   2    0.09    0.24
  10  -8   2    0.06    0.30
  10   7  -2    0.40    0.33
   9   7  -2   -0.14    0.26
   8   7  -2    0.20    0.23
   7   7  -2    0.01    0.18
  -7  -7   2    0.23    0.18
   6   7  -2    8.19    0.70
  -6  -7   2    7.56    0.68
   5   7  -2    3.84    0.34
  -5  -7   2    2.92    0.32
  -5  -7   2    3.35    0.31
   4   7  -2   18.86    1.60
  -4  -7   2   19.22    1.60
  -4  -7   2   19.42    1.59
   3   7  -2    9.17    0.78
  -3  -7   2    9.71    0.77
  -3  -7   2    8.74    0.78
   2   7  -2    4.05    0.38
  -2  -7   2    4.81    0.38
  -2  -7   2    4.17    0.39
   1   7  -2   25.45    2.11
  -1  -7   2   27.04    2.11
  -1  -7   2   24.51    2.12
   0   7  -2    1.99    0.17
   0  -7   2    1.71    0.18
   0  -7   2    1.63    0.19
  -1   7  -2    5.18    0.52
  -1   7  -2    6.48    0.51
   1  -7   2    6.06    0.52
  -2   7  -2    0.01    0.04
  -2   7  -2    0.12    0.09
   2  -7   2    0.08    0.08
  -3   7  -2    4.90    0.45
   3  -7   2    5.23    0.45
  -4   7  -2   21.39    1.78
   4  -7   2   21.34    1.77
  -5   7  -2    0.36    0.20
   5  -7   2    0.47    0.14
  -6   7  -2    0.57    0.24
   6  -7   2    1.28    0.19
  -7   7  -2   10.14    0.86
   7  -7   2    8.74    0.82
  -8   7  -2    0.07    0.24
   8  -7   2    0.05    0.18
  -9   7  -2    0.43    0.34
   9  -7   2    0.06    0.22
  10  -7   2    0.07    0.27
  11  -7   2    0.62    0.45
  10   6  -2   -0.03    0.29
   9   6  -2   -0.07    0.24
   8   6  -2    0.13    0.20
   7   6  -2    1.32    0.21
  -7  -6   2    1.53    0.22
   6   6  -2    0.24    0.15
  -6  -6   2    0.47    0.15
  -6  -6   2    0.36    0.11
   5   6  -2    5.49    0.49
  -5  -6   2    5.26    0.46
  -5  -6   2    5.28    0.48
   4   6  -2   16.85    1.43
  -4  -6   2   17.58    1.41
  -4  -6   2   16.73    1.42
   3   6  -2   16.05    1.24
  -3  -6   2   14.97    1.23
  -3  -6   2   13.75    1.24
   2   6  -2   49.78    4.12
  -2  -6   2   50.21    4.11
  -2  -6   2   50.57    4.12
   1   6  -2    4.85    0.42
  -1  -6   2    5.09    0.43
  -1  -6   2    4.89    0.42
   0   6  -2   55.49    4.58
   0  -6   2   58.47    4.58
   0  -6   2   53.82    4.58
  -1   6  -2   35.75    3.02
  -1   6  -2   36.70    3.01
   1  -6   2   37.76    3.02
  -2   6  -2    2.78    0.24
  -2   6  -2    2.58    0.27
   2  -6   2    3.29    0.26
  -3   6  -2   80.01    6.59
   3  -6   2   80.08    6.57
   3  -6   2   81.03    6.58
  -4   6  -2   22.00    1.91
   4  -6   2   22.55    1.90
   4  -6   2   23.76    1.89
  -5   6  -2    5.22    0.61
   5  -6   2    6.78    0.56
   5  -6   2    7.20    0.58
  -6   6  -2    1.05    0.23
   6  -6   2    0.86    0.15
  -7   6  -2    1.13    0.22
   7  -6   2    0.97    0.22
  -8   6  -2    0.05    0.22
   8  -6   2    0.00    0.18
   9  -6   2    0.52    0.23
  10  -6   2    0.01    0.27
  11  -6   2   -0.02    0.33
  11   5  -2    0.40    0.40
  10   5  -2   -0.17    0.28
   9   5  -2    0.07    0.22
   8   5  -2    0.40    0.20
   7   5  -2    0.04    0.15
  -7  -5   2    0.02    0.13
   6   5  -2    2.72    0.28
  -6  -5   2    2.47    0.27
  -6  -5   2    2.46    0.25
   5   5  -2    0.36    0.13
  -5  -5   2    0.65    0.13
  -5  -5   2    0.69    0.10
   4   5  -2    8.72    0.78
  -4  -5   2    9.46    0.77
  -4  -5   2    9.26    0.78
   3   5  -2  142.62   11.98
  -3  -5   2  145.17   11.97
  -3  -5   2  151.53   11.98
   2   5  -2   26.40    2.15
  -2  -5   2   26.71    2.14
  -2  -5   2   25.21    2.15
   1   5  -2    1.59    0.17
  -1  -5   2    1.72    0.18
  -1  -5   2    2.06    0.17
   0   5  -2   -0.02    0.04
   0  -5   2    0.02    0.06
   0  -5   2    0.05    0.05
  -1   5  -2    5.97    0.53
  -1   5  -2    6.46    0.52
   1  -5   2    6.30    0.53
  -2   5  -2    0.06    0.06
   2  -5   2    0.06    0.06
   2  -5   2   -0.01    0.04
  -3   5  -2   47.96    3.77
   3  -5   2   44.81    3.76
   3  -5   2   45.06    3.75
  -4   5  -2   22.47    1.96
   4  -5   2   23.24    1.95
   4  -5   2   24.46    1.94
  -5   5  -2   -0.04    0.18
   5  -5   2    0.05    0.08
   5  -5   2   -0.04    0.10
  -6   5  -2    0.74    0.19
   6  -5   2    0.98    0.17
   6  -5   2    1.24    0.15
  -7   5  -2    3.45    0.37
   7  -5   2    3.75    0.37
  -8   5  -2    1.77    0.26
   8  -5   2    1.04    0.23
   9  -5   2    0.27    0.21
  10  -5   2   -0.36    0.23
  11   4  -2   -0.27    0.33
  10   4  -2    0.67    0.29
   9   4  -2    0.32    0.23
   8   4  -2   -0.05    0.17
  -8  -4   2    0.10    0.18
   7   4  -2    5.92    0.45
  -7  -4   2    3.76    0.43
  -7  -4   2    4.80    0.44
   6   4  -2    2.89    0.30
  -6  -4   2    2.68    0.27
  -6  -4   2    3.00    0.29
   5   4  -2    0.15    0.11
  -5  -4   2   -0.07    0.08
  -5  -4   2    0.00    0.09
   4   4  -2    2.11    0.24
  -4  -4   2    2.50    0.22
  -4  -4   2    2.52    0.23
   3   4  -2    1.80    0.21
  -3  -4   2    2.46    0.20
  -3  -4   2    2.20    0.21
   2   4  -2  135.96   10.93
  -2  -4   2  134.85   10.93
  -2  -4   2  130.38   10.92
   1   4  -2   16.57    1.37
  -1  -4   2   16.59    1.38
  -1  -4   2   16.88    1.37
   0   4  -2   16.96    1.41
   0  -4   2   17.11    1.41
   0  -4   2   17.43    1.41
  -1   4  -2   15.70    1.31
  -1   4  -2   16.20    1.30
   1  -4   2   15.63    1.31
  -2   4  -2   73.22    5.91
   2  -4   2   71.82    5.90
   2  -4   2   71.57    5.91
  -3   4  -2   40.88    3.38
   3  -4   2   41.85    3.37
   3  -4   2   40.69    3.37
  -4   4  -2    5.67    0.55
   4  -4   2    6.15    0.54
   4  -4   2    6.53    0.52
  -5   4  -2    2.51    0.29
   5  -4   2    2.55    0.25
   5  -4   2    2.90    0.27
  -6   4  -2    8.90    0.76
   6  -4   2    8.56    0.74
   6  -4   2    8.54    0.74
  -7   4  -2   -0.11    0.16
   7  -4   2   -0.20    0.14
   7  -4   2    0.06    0.13
  -8   4  -2    1.19    0.21
   8  -4   2    0.92    0.20
   9  -4   2    0.37    0.20
  10  -4   2    0.20    0.24
 -11   4  -2    0.66    0.32
  11   3  -2    0.51    0.33
  10   3  -2    1.41    0.32
   9   3  -2    0.70    0.23
   8   3  -2    0.14    0.18
  -8  -3   2    0.09    0.17
   7   3  -2    0.25    0.15
  -7  -3   2    0.15    0.13
  -7  -3   2    0.32    0.15
   6   3  -2    0.58    0.15
  -6  -3   2    0.46    0.12
  -6  -3   2    0.59    0.12
   5   3  -2   21.53    1.83
  -5  -3   2   21.19    1.82
  -5  -3   2   23.36    1.82
   4   3  -2    1.27    0.15
  -4  -3   2    1.05    0.14
  -4  -3   2    1.34    0.13
   3   3  -2    1.84    0.19
  -3  -3   2    1.84    0.18
  -3  -3   2    2.06    0.17
   2   3  -2   15.22    1.28
  -2  -3   2   15.49    1.27
  -2  -3   2   15.70    1.28
   1   3  -2   29.09    2.46
  -1  -3   2   30.16    2.45
  -1  -3   2   30.72    2.46
   0   3  -2   50.79    4.17
   0  -3   2   51.27    4.18
   0  -3   2   51.07    4.17
  -1   3  -2   11.74    1.00
   1  -3   2   12.57    1.00
   1  -3   2   12.00    0.99
  -2   3  -2   19.61    1.69
   2  -3   2   21.30    1.69
   2  -3   2   20.68    1.69
  -3   3  -2    8.02    0.73
   3  -3   2    8.65    0.73
   3  -3   2    9.27    0.72
  -4   3  -2    0.03    0.10
   4  -3   2   -0.09    0.07
   4  -3   2    0.00    0.07
  -5   3  -2   13.70    1.14
   5  -3   2   13.62    1.13
   5  -3   2   13.44    1.13
  -6   3  -2    0.05    0.12
   6  -3   2   -0.02    0.11
   6  -3   2   -0.04    0.10
  -7   3  -2    2.16    0.28
   7  -3   2    2.72    0.28
   7  -3   2    3.12    0.29
  -8   3  -2    1.26    0.22
   8  -3   2    1.48    0.21
   8  -3   2    0.77    0.19
   9  -3   2   -0.21    0.18
 -10   3  -2   -0.12    0.23
 -11   3  -2    0.72    0.36
  11   2  -2    0.39    0.36
  10   2  -2    0.11    0.25
   9   2  -2    0.49    0.21
   8   2  -2    1.38    0.22
  -8  -2   2    1.03    0.19
   7   2  -2    0.13    0.14
  -7  -2   2    0.54    0.13
  -7  -2   2    0.33    0.13
   6   2  -2    3.18    0.33
  -6  -2   2    3.46    0.31
  -6  -2   2    3.33    0.32
   5   2  -2    4.12    0.36
  -5  -2   2    3.86    0.34
  -5  -2   2    3.59    0.35
   4   2  -2   12.49    1.06
  -4  -2   2   12.15    1.06
  -4  -2   2   13.41    1.05
   3   2  -2    0.34    0.07
  -3  -2   2    0.24    0.06
  -3  -2   2    0.43    0.06
   2   2  -2  154.80   12.94
  -2  -2   2  157.97   12.93
  -2  -2   2  162.11   12.94
   1   2  -2  350.45   27.52
  -1  -2   2  332.29   27.52
  -1  -2   2  327.75   27.52
   0   2  -2   10.41    0.85
   0  -2   2   10.20    0.85
   0  -2   2   10.32    0.85
  -1   2  -2  620.42   51.00
   1  -2   2  641.12   51.00
   1  -2   2  611.21   50.99
  -2   2  -2  116.70    9.18
   2  -2   2  110.82    9.18
   2  -2   2  109.24    9.18
  -3   2  -2    1.94    0.21
   3  -2   2    1.82    0.20
   3  -2   2    2.51    0.19
  -4   2  -2   15.42    1.28
   4  -2   2   14.85    1.27
   4  -2   2   15.78    1.27
  -5   2  -2    2.89    0.28
   5  -2   2    2.82    0.28
   5  -2   2    3.16    0.28
  -6   2  -2    0.11    0.11
   6  -2   2    0.05    0.11
   6  -2   2    0.16    0.11
  -7   2  -2    5.96    0.49
   7  -2   2    4.99    0.49
   7  -2   2    4.92    0.48
   8  -2   2    0.22    0.16
   8  -2   2    0.39    0.20
  -9   2  -2    0.54    0.20
   9  -2   2    0.54    0.19
 -10   2  -2    0.83    0.25
 -11   2  -2   -0.06    0.29
  11   1  -2    0.54    0.31
  10   1  -2    0.94    0.27
   9   1  -2    0.14    0.20
   8   1  -2    1.56    0.26
  -8  -1   2    2.21    0.24
  -8  -1   2    2.28    0.26
   7   1  -2    5.22    0.48
  -7  -1   2    5.74    0.47
  -7  -1   2    4.80    0.48
   6   1  -2    0.51    0.13
  -6  -1   2    0.63    0.11
  -6  -1   2    0.52    0.13
   5   1  -2   17.63    1.50
  -5  -1   2   17.69    1.49
  -5  -1   2   18.63    1.49
   4   1  -2   22.46    1.90
  -4  -1   2   23.82    1.90
  -4  -1   2   22.90    1.90
   3   1  -2   37.13    3.06
  -3  -1   2   37.39    3.06
  -3  -1   2   37.53    3.06
   2   1  -2   24.88    2.02
  -2  -1   2   25.18    2.01
  -2  -1   2   23.65    2.02
   1   1  -2   17.96    1.50
  -1  -1   2   18.56    1.50
   0  -1   2    0.43    0.05
   0  -1   2    0.43    0.05
   0  -1   2    0.46    0.04
  -1   1  -2   49.65    4.01
   1  -1   2   47.33    4.01
   1  -1   2   50.16    4.01
  -2   1  -2    0.04    0.04
   2  -1   2    0.05    0.04
   2  -1   2    0.02    0.04
  -3   1  -2   29.63    2.36
   3  -1   2   27.99    2.36
   3  -1   2   28.42    2.36
  -4   1  -2    6.29    0.53
   4  -1   2    6.27    0.53
   4  -1   2    6.31    0.54
  -5   1  -2    0.11    0.08
   5  -1   2    0.06    0.09
   5  -1   2    0.07    0.09
  -6   1  -2    0.31    0.10
   6  -1   2    0.31    0.11
   6  -1   2    0.09    0.12
  -7   1  -2    2.61    0.27
   7  -1   2    2.60    0.28
  -8   1  -2    0.35    0.16
   8  -1   2    0.07    0.19
  -9   1  -2    0.07    0.18
   9  -1   2    0.15    0.18
 -10   1  -2    0.48    0.23
  10  -1   2    0.47    0.25
  11   0  -2    0.09    0.33
  10   0  -2    1.00    0.28
   9   0  -2   -0.10    0.21
  -9   0   2    0.03    0.20
   8   0  -2    0.43    0.17
  -8   0   2    0.34    0.16
  -8   0   2    0.17    0.17
   7   0  -2    3.17    0.30
  -7   0   2    2.61    0.28
  -7   0   2    2.74    0.30
   6   0  -2    0.20    0.10
   6   0  -2    0.25    0.10
  -6   0   2    0.36    0.11
   5   0  -2    0.06    0.09
   5   0  -2   -0.01    0.08
  -5   0   2    0.01    0.08
   4   0  -2   32.18    2.73
   4   0  -2   33.95    2.74
  -4   0   2   33.98    2.74
   3   0  -2   31.05    2.44
   3   0  -2   28.94    2.44
  -3   0   2   29.47    2.44
   2   0  -2    0.07    0.03
   2   0  -2    0.12    0.04
  -2   0   2    0.05    0.04
   1   0  -2    1.83    0.15
   1   0  -2    1.75    0.15
  -1   0   2    1.87    0.15
   0   0  -2   64.56    5.27
   0   0   2   66.09    5.27
   0   0   2   62.62    5.27
  -1   0  -2   39.40    3.30
  -1   0  -2   40.79    3.30
   1   0   2   40.79    3.30
  -2   0  -2    7.66    0.62
   2   0   2    7.20    0.63
   2   0   2    7.82    0.63
  -3   0  -2   30.54    2.47
   3   0   2   29.77    2.47
   3   0   2   29.98    2.47
  -4   0  -2   32.68    2.62
   4   0   2   32.37    2.62
   4   0   2   30.60    2.62
  -5   0  -2    3.90    0.34
  -5   0  -2    4.27    0.36
   5   0   2    3.68    0.35
  -6   0  -2    0.11    0.10
  -6   0  -2    0.16    0.09
   6   0   2    0.14    0.11
  -7   0  -2    3.76    0.35
  -7   0  -2    2.92    0.34
   7   0   2    4.03    0.37
  -8   0  -2    1.76    0.23
   8   0   2    1.73    0.25
  -9   0  -2    1.02    0.21
   9   0   2    0.48    0.21
 -10   0  -2    0.05    0.22
  10   0   2   -0.10    0.21
  11   0   2   -0.24    0.30
  10  -1  -2    4.02    0.45
   9  -1  -2    0.54    0.21
  -9   1   2    0.33    0.21
   8  -1  -2    5.91    0.59
   8  -1  -2    6.49    0.58
  -8   1   2    6.65    0.58
   7  -1  -2    5.45    0.49
   7  -1  -2    6.23    0.50
  -7   1   2    5.02    0.50
   6  -1  -2    0.15    0.11
   6  -1  -2    0.18    0.10
  -6   1   2    0.22    0.11
   5  -1  -2    0.23    0.09
   5  -1  -2    0.37    0.09
  -5   1   2    0.15    0.09
   4  -1  -2    2.46    0.23
   4  -1  -2    2.65    0.24
  -4   1   2    2.78    0.24
   3  -1  -2   87.96    7.21
   3  -1  -2   89.53    7.20
  -3   1   2   86.79    7.21
   2  -1  -2  194.06   15.64
   2  -1  -2  184.56   15.64
  -2   1   2  195.64   15.64
   1  -1  -2    5.72    0.47
   1  -1  -2    5.72    0.47
  -1   1   2    5.79    0.48
   0  -1  -2  188.21   15.33
   0   1   2  185.68   15.33
   0   1   2  188.93   15.33
  -1  -1  -2    9.86    0.81
   1   1   2    9.81    0.81
  -2  -1  -2  262.99   21.32
  -2  -1  -2  267.06   21.31
   2   1   2  252.38   21.32
  -3  -1  -2   84.96    6.65
  -3  -1  -2   81.81    6.65
   3   1   2   76.76    6.65
  -4  -1  -2   -0.04    0.05
  -4  -1  -2    0.08    0.07
   4   1   2    0.11    0.09
  -5  -1  -2    4.04    0.35
  -5  -1  -2    4.41    0.36
   5   1   2    3.40    0.36
  -6  -1  -2    4.37    0.40
  -6  -1  -2    4.49    0.41
   6   1   2    5.10    0.42
  -7  -1  -2    1.08    0.17
   7   1   2    1.12    0.18
  -8  -1  -2    0.47    0.16
   8   1   2    0.60    0.21
  -9  -1  -2    0.32    0.20
   9   1   2    0.39    0.20
 -10  -1  -2   -0.02    0.24
  10   1   2    0.08    0.23
  11   1   2    0.16    0.28
   9  -2  -2   -0.18    0.18
   9  -2  -2    0.30    0.20
  -9   2   2   -0.05    0.19
   8  -2  -2    3.24    0.36
   8  -2  -2    3.32    0.35
  -8   2   2    3.61    0.37
   7  -2  -2    5.44    0.57
   7  -2  -2    6.63    0.57
  -7   2   2    7.55    0.58
   6  -2  -2    3.21    0.31
   6  -2  -2    3.02    0.31
  -6   2   2    3.61    0.33
   5  -2  -2   13.59    1.04
   5  -2  -2   11.57    1.04
  -5   2   2   12.42    1.05
   4  -2  -2  104.60    8.70
   4  -2  -2  108.68    8.70
  -4   2   2  105.83    8.71
   3  -2  -2   46.84    3.92
   3  -2  -2   49.15    3.92
  -3   2   2   47.64    3.92
   2  -2  -2  592.45   46.92
   2  -2  -2  547.19   46.92
  -2   2   2  583.23   46.92
   1  -2  -2   42.36    3.38
   1  -2  -2   43.52    3.38
  -1   2   2   37.79    3.39
   0  -2  -2  113.81    9.69
   0   2   2  121.96    9.70
   0   2   2  120.08    9.69
  -1  -2  -2   14.83    1.17
  -1  -2  -2   13.39    1.17
   1   2   2   14.41    1.17
  -2  -2  -2  323.71   27.34
  -2  -2  -2  341.59   27.35
   2   2   2  339.11   27.35
  -3  -2  -2   69.40    5.53
  -3  -2  -2   68.52    5.53
   3   2   2   64.58    5.54
  -4  -2  -2  103.18    8.49
  -4  -2  -2  104.43    8.49
  -5  -2  -2    0.03    0.07
  -5  -2  -2    0.02    0.08
   5   2   2   -0.12    0.10
  -6  -2  -2    9.32    0.78
  -6  -2  -2    8.82    0.77
   6   2   2    9.57    0.79
  -7  -2  -2   -0.10    0.12
   7   2   2    0.09    0.14
  -8  -2  -2    2.92    0.34
   8   2   2    3.89    0.37
  -9  -2  -2    3.65    0.35
   9   2   2    2.16    0.33
  10   2   2    0.11    0.27
  11   2   2    0.12    0.33
   9  -3  -2    3.93    0.39
  -9   3   2    3.01    0.40
   8  -3  -2    3.90    0.39
   8  -3  -2    3.55    0.38
  -8   3   2    3.39    0.38
   7  -3  -2    0.47    0.15
   7  -3  -2    0.28    0.15
  -7   3   2    0.32    0.15
   6  -3  -2    0.20    0.12
   6  -3  -2    0.07    0.11
  -6   3   2    0.23    0.11
   5  -3  -2    4.04    0.38
   5  -3  -2    4.14    0.38
  -5   3   2    4.79    0.39
   4  -3  -2  128.41   10.69
   4  -3  -2  127.59   10.69
  -4   3   2  136.40   10.70
   3  -3  -2    3.40    0.31
   3  -3  -2    3.80    0.31
  -3   3   2    3.40    0.32
   2  -3  -2   29.66    2.32
   2  -3  -2   29.48    2.33
  -2   3   2   25.10    2.33
   1  -3  -2  150.29   12.02
  -1   3   2  151.13   12.02
  -1   3   2  139.53   12.03
   0  -3  -2  231.47   19.27
   0   3   2  237.68   19.27
   0   3   2  238.22   19.27
  -1  -3  -2  192.32   15.66
  -1  -3  -2  191.27   15.65
   1   3   2  191.17   15.66
  -2  -3  -2  143.19   11.38
  -2  -3  -2  138.13   11.38
   2   3   2  136.02   11.38
  -3  -3  -2   25.58    2.02
  -3  -3  -2   25.05    2.01
   3   3   2   22.69    2.02
  -4  -3  -2  137.07   11.14
  -4  -3  -2  140.65   11.14
   4   3   2  130.46   11.14
  -5  -3  -2    7.39    0.64
  -5  -3  -2    7.77    0.65
   5   3   2    7.85    0.65
  -6  -3  -2    4.88    0.43
  -6  -3  -2    4.75    0.44
   6   3   2    4.67    0.44
  -7  -3  -2    0.55    0.16
   7   3   2    0.32    0.15
  -8  -3  -2   -0.09    0.15
   8   3   2    0.17    0.17
  -9  -3  -2    1.40    0.24
   9   3   2    0.84    0.26
  10   3   2    0.34    0.25
  11   3   2    0.27    0.32
 -10   4   2    0.26    0.46
   9  -4  -2    1.17    0.25
  -9   4   2    1.21    0.28
   8  -4  -2    0.48    0.18
  -8   4   2    0.64    0.19
   7  -4  -2    0.47    0.14
   7  -4  -2    0.77    0.16
  -7   4   2    0.71    0.17
   6  -4  -2   -0.03    0.10
   6  -4  -2    0.03    0.11
  -6   4   2    0.14    0.13
   5  -4  -2   11.40    0.92
   5  -4  -2   10.66    0.93
  -5   4   2   10.93    0.94
   4  -4  -2   29.22    2.39
   4  -4  -2   28.88    2.39
  -4   4   2   29.08    2.40
   3  -4  -2   77.29    6.14
   3  -4  -2   75.32    6.13
  -3   4   2   72.07    6.15
   2  -4  -2   10.32    0.83
   2  -4  -2   10.31    0.84
  -2   4   2    9.38    0.85
   1  -4  -2   66.58    5.59
  -1   4   2   67.76    5.58
  -1   4   2   70.67    5.59
   0  -4  -2    3.52    0.30
   0   4   2    3.58    0.31
   0   4   2    3.56    0.30
  -1  -4  -2   71.22    5.96
   1   4   2   72.75    5.96
   1   4   2   74.51    5.96
  -2  -4  -2    0.94    0.10
  -2  -4  -2    0.89    0.10
   2   4   2    0.72    0.11
  -3  -4  -2  141.21   11.37
  -3  -4  -2  136.42   11.37
   3   4   2  139.74   11.38
  -4  -4  -2   14.84    1.22
  -4  -4  -2   14.31    1.22
   4   4   2   15.37    1.23
  -5  -4  -2    8.61    0.71
  -5  -4  -2    8.26    0.72
  -6  -4  -2    0.98    0.14
  -6  -4  -2    0.96    0.14
   6   4   2    0.70    0.16
  -7  -4  -2    0.97    0.16
   7   4   2    0.50    0.18
  -8  -4  -2    0.66    0.18
   8   4   2    0.67    0.20
  -9  -4  -2    1.77    0.25
   9   4   2    1.23    0.27
  10   4   2    0.20    0.25
  11   4   2    0.50    0.33
  10  -5  -2   -0.17    0.24
 -10   5   2    0.10    0.29
   9  -5  -2    0.34    0.22
  -9   5   2    0.13    0.21
   8  -5  -2    0.17    0.18
  -8   5   2    0.59    0.20
   7  -5  -2    3.49    0.38
  -7   5   2    4.31    0.41
   6  -5  -2    0.21    0.11
   6  -5  -2    0.14    0.13
  -6   5   2    0.18    0.14
   5  -5  -2    0.14    0.08
   5  -5  -2    0.06    0.10
  -5   5   2    0.00    0.13
   4  -5  -2  128.31   10.27
   4  -5  -2  125.22   10.28
  -4   5   2  122.92   10.30
   3  -5  -2  102.37    8.16
   3  -5  -2  104.75    8.15
  -3   5   2   90.16    8.17
   2  -5  -2   41.48    3.25
   2  -5  -2   39.51    3.24
  -2   5   2   37.82    3.26
   1  -5  -2   60.86    5.14
  -1   5   2   66.70    5.15
  -1   5   2   61.32    5.13
   0  -5  -2  173.10   14.77
   0   5   2  192.54   14.76
   0   5   2  175.93   14.77
  -1  -5  -2   12.30    1.06
   1   5   2   13.34    1.06
   1   5   2   12.88    1.06
  -2  -5  -2    3.56    0.29
  -2  -5  -2    3.42    0.29
   2   5   2    2.95    0.30
  -3  -5  -2   18.69    1.41
  -3  -5  -2   16.16    1.42
   3   5   2   16.24    1.42
  -4  -5  -2  117.01    9.56
  -4  -5  -2  117.99    9.55
   4   5   2  115.26    9.56
  -5  -5  -2    2.33    0.24
  -5  -5  -2    2.53    0.25
   5   5   2    2.48    0.27
  -6  -5  -2    1.62    0.20
   6   5   2    1.44    0.21
  -7  -5  -2    0.45    0.14
   7   5   2    0.16    0.16
  -8  -5  -2    0.74    0.20
   8   5   2    0.80    0.21
   9   5   2    0.20    0.22
  10   5   2    0.88    0.30
  10  -6  -2   -0.16    0.24
 -10   6   2    0.29    0.32
   9  -6  -2    1.48    0.29
  -9   6   2    1.49    0.28
   8  -6  -2    1.78    0.27
  -8   6   2    1.70    0.28
   7  -6  -2    0.08    0.15
  -7   6   2    0.38    0.18
   6  -6  -2   38.44    3.32
  -6   6   2   42.34    3.33
   5  -6  -2    0.01    0.12
  -5   6   2    0.15    0.16
   4  -6  -2  168.44   13.18
   4  -6  -2  164.14   13.19
  -4   6   2  149.52   13.21
   3  -6  -2    9.64    0.84
   3  -6  -2   10.54    0.82
  -3   6   2    8.36    0.86
   2  -6  -2    0.77    0.11
  -2   6   2    0.65    0.15
   1  -6  -2    7.72    0.70
  -1   6   2    8.73    0.70
  -1   6   2    8.38    0.68
   0  -6  -2   63.71    5.20
   0   6   2   64.40    5.19
   0   6   2   62.29    5.20
  -1  -6  -2    5.27    0.43
   1   6   2    4.86    0.43
   1   6   2    4.77    0.42
  -2  -6  -2    0.86    0.11
  -2  -6  -2    0.82    0.11
   2   6   2    0.73    0.11
  -3  -6  -2   10.68    0.87
  -3  -6  -2   10.26    0.87
   3   6   2   10.43    0.88
  -4  -6  -2  155.80   12.20
  -4  -6  -2  150.52   12.20
   4   6   2  140.65   12.21
  -5  -6  -2    0.57    0.12
  -5  -6  -2    0.39    0.12
   5   6   2    0.83    0.15
  -6  -6  -2   35.50    2.85
   6   6   2   33.54    2.86
  -7  -6  -2    0.10    0.14
   7   6   2    0.11    0.18
  -8  -6  -2    0.06    0.19
   8   6   2    0.09    0.18
   9   6   2    0.08    0.22
  10   6   2    0.19    0.29
  10  -7  -2    0.27    0.27
 -10   7   2    0.51    0.31
   9  -7  -2    0.71    0.24
  -9   7   2    0.66    0.25
   8  -7  -2    0.39    0.20
  -8   7   2    0.78    0.23
   7  -7  -2    0.83    0.20
  -7   7   2    1.10    0.25
   6  -7  -2   29.76    2.55
  -6   7   2   32.05    2.57
   5  -7  -2    0.95    0.16
  -5   7   2    0.69    0.21
   4  -7  -2   33.99    2.57
  -4   7   2   27.59    2.59
   3  -7  -2    2.42    0.22
  -3   7   2    1.99    0.27
   2  -7  -2   26.68    2.24
  -2   7   2   27.79    2.25
   1  -7  -2   15.64    1.30
  -1   7   2   16.07    1.28
  -1   7   2   14.83    1.30
   0  -7  -2    6.44    0.59
   0   7   2    7.37    0.59
   0   7   2    6.94    0.58
  -1  -7  -2    4.56    0.43
   1   7   2    5.21    0.43
   1   7   2    4.97    0.42
  -2  -7  -2    6.49    0.60
  -2  -7  -2    7.55    0.61
   2   7   2    7.35    0.61
  -3  -7  -2    8.62    0.76
  -3  -7  -2    9.68    0.76
   3   7   2    8.85    0.76
  -4  -7  -2   18.05    1.54
  -4  -7  -2   19.46    1.55
   4   7   2   18.51    1.55
  -5  -7  -2    0.05    0.11
  -5  -7  -2   -0.04    0.12
   5   7   2    0.00    0.13
  -6  -7  -2   66.41    5.54
   6   7   2   68.88    5.56
  -7  -7  -2    1.38    0.23
   7   7   2    1.89    0.26
   8   7   2    1.14    0.25
   9   7   2    0.23    0.24
  10   7   2    0.39    0.31
  10  -8  -2    0.17    0.29
 -10   8   2   -0.02    0.31
   9  -8  -2    0.01    0.23
  -9   8   2   -0.25    0.29
   8  -8  -2    0.32    0.21
  -8   8   2    0.72    0.28
   7  -8  -2    1.22    0.22
  -7   8   2    0.99    0.25
   6  -8  -2    0.56    0.17
  -6   8   2    1.23    0.25
   5  -8  -2   14.43    1.15
  -5   8   2   12.58    1.17
   4  -8  -2    1.10    0.16
  -4   8   2    0.83    0.23
   3  -8  -2    6.83    0.59
  -3   8   2    6.79    0.62
   2  -8  -2    1.64    0.20
  -2   8   2    2.31    0.23
   1  -8  -2   40.37    3.38
  -1   8   2   41.94    3.39
  -1   8   2   41.24    3.37
   0  -8  -2    0.71    0.12
   0   8   2    0.76    0.10
   0   8   2    0.73    0.13
  -1  -8  -2   24.26    2.05
   1   8   2   25.00    2.05
   1   8   2   25.07    2.04
  -2  -8  -2    6.49    0.52
  -2  -8  -2    5.89    0.52
   2   8   2    5.55    0.51
  -3  -8  -2    0.10    0.10
  -3  -8  -2    0.05    0.10
   3   8   2    0.16    0.11
  -4  -8  -2    0.18    0.10
  -4  -8  -2    0.00    0.10
   4   8   2    0.02    0.13
  -5  -8  -2    1.32    0.18
  -5  -8  -2    1.39    0.26
   5   8   2    1.22    0.20
  -6  -8  -2    0.43    0.16
   6   8   2    0.50    0.18
  -7  -8  -2    0.34    0.16
   7   8   2    0.12    0.19
   8   8   2    0.87    0.25
   9   8   2   -0.09    0.25
  10   8   2    0.18    0.34
  10  -9  -2    0.77    0.33
 -10   9   2    0.97    0.37
   9  -9  -2    0.78    0.27
  -9   9   2    0.98    0.32
   8  -9  -2    1.11    0.26
  -8   9   2    1.07    0.28
   7  -9  -2   -0.04    0.18
  -7   9   2    0.12    0.24
   6  -9  -2    7.84    0.74
  -6   9   2    9.39    0.81
   5  -9  -2    3.80    0.38
  -5   9   2    3.80    0.45
   4  -9  -2    4.91    0.42
  -4   9   2    3.78    0.47
   3  -9  -2    2.73    0.28
  -3   9   2    2.55    0.31
   2  -9  -2    2.65    0.28
  -2   9   2    3.07    0.29
   1  -9  -2    1.24    0.17
  -1   9   2    1.45    0.19
   0  -9  -2   42.57    3.59
   0   9   2   43.59    3.60
   0   9   2   44.67    3.58
  -1  -9  -2    3.82    0.36
   1   9   2    4.01    0.37
  -2  -9  -2    0.41    0.11
   2   9   2    0.56    0.12
   2   9   2    0.40    0.12
  -3  -9  -2    0.01    0.12
  -3  -9  -2    0.02    0.11
   3   9   2   -0.07    0.11
  -4  -9  -2    8.69    0.74
  -4  -9  -2    8.21    0.74
   4   9   2    9.09    0.75
  -5  -9  -2    1.24    0.20
   5   9   2    1.31    0.21
  -6  -9  -2    4.52    0.43
   6   9   2    4.51    0.46
  -7  -9  -2    0.08    0.19
   7   9   2    0.06    0.20
   8   9   2    2.68    0.37
   9   9   2    1.01    0.31
  10 -10  -2   -0.30    0.34
 -10  10   2   -0.12    0.36
   9 -10  -2    0.67    0.33
  -9  10   2   -0.04    0.32
   8 -10  -2    0.75    0.25
  -8  10   2    0.47    0.29
   7 -10  -2    2.05    0.28
  -7  10   2    1.41    0.33
   6 -10  -2    5.58    0.55
  -6  10   2    6.27    0.64
   5 -10  -2    1.33    0.20
  -5  10   2    0.77    0.28
   4 -10  -2    1.62    0.22
  -4  10   2    1.52    0.28
   3 -10  -2    3.87    0.38
  -3  10   2    3.96    0.42
   2 -10  -2    1.09    0.16
  -2  10   2    0.85    0.18
   1 -10  -2   19.35    1.60
  -1  10   2   19.23    1.61
   0 -10  -2    0.16    0.12
   0  10   2    0.21    0.13
  -1 -10  -2    4.57    0.42
   1  10   2    4.50    0.42
   1  10   2    5.06    0.43
  -2 -10  -2    0.56    0.13
   2  10   2    0.46    0.12
   2  10   2    0.57    0.14
  -3 -10  -2    7.25    0.62
   3  10   2    6.90    0.62
  -4 -10  -2    0.18    0.15
  -4 -10  -2    0.14    0.13
   4  10   2    0.18    0.15
  -5 -10  -2    0.81    0.18
   5  10   2    1.23    0.21
  -6 -10  -2    3.21    0.34
   6  10   2    3.07    0.36
   7  10   2    4.43    0.48
   8  10   2    0.13    0.26
   9  10   2    1.76    0.38
   9 -11  -2    0.44    0.31
  -9  11   2   -0.04    0.35
   8 -11  -2    0.16    0.24
  -8  11   2   -0.08    0.30
   7 -11  -2    1.90    0.28
  -7  11   2    1.48    0.36
   6 -11  -2   -0.01    0.18
  -6  11   2    0.31    0.29
   5 -11  -2   -0.16    0.15
  -5  11   2    0.33    0.28
   4 -11  -2   11.03    0.92
  -4  11   2   10.14    0.97
   3 -11  -2    0.79    0.16
  -3  11   2    0.55    0.21
   2 -11  -2   14.69    1.27
  -2  11   2   15.51    1.28
   1 -11  -2   10.98    0.92
  -1  11   2   10.64    0.93
   0 -11  -2    1.49    0.20
   0  11   2    1.37    0.21
  -1 -11  -2   24.09    2.02
   1  11   2   24.65    2.03
  -2 -11  -2    2.57    0.29
   2  11   2    2.93    0.32
   2  11   2    3.20    0.31
  -3 -11  -2    4.28    0.46
   3  11   2    5.35    0.47
   3  11   2    5.32    0.48
  -4 -11  -2    0.34    0.17
  -4 -11  -2    0.48    0.15
   4  11   2    0.37    0.17
  -5 -11  -2    0.30    0.16
   5  11   2    0.09    0.18
  -6 -11  -2    0.25    0.18
   6  11   2    0.90    0.23
   7  11   2    0.65    0.26
   8  11   2    2.04    0.36
   9  11   2   -0.30    0.39
   9 -12  -2    0.16    0.34
  -9  12   2   -0.14    0.39
   8 -12  -2    0.77    0.32
  -8  12   2    0.74    0.37
   7 -12  -2    0.52    0.24
  -7  12   2    0.27    0.34
   6 -12  -2    0.56    0.21
  -6  12   2    0.12    0.31
   5 -12  -2    0.80    0.20
  -5  12   2    0.18    0.30
   4 -12  -2   -0.26    0.15
  -4  12   2   -0.01    0.26
   3 -12  -2    4.76    0.48
  -3  12   2    5.72    0.54
   2 -12  -2    0.79    0.19
  -2  12   2    1.89    0.24
   1 -12  -2    0.25    0.14
  -1  12   2    0.07    0.16
   0 -12  -2   27.09    2.26
   0  12   2   27.55    2.27
  -1 -12  -2   -0.02    0.13
   1  12   2   -0.12    0.14
  -2 -12  -2    6.67    0.59
   2  12   2    6.44    0.60
  -3 -12  -2    0.20    0.15
   3  12   2   -0.10    0.18
   3  12   2    0.10    0.18
  -4 -12  -2    0.36    0.19
   4  12   2    0.66    0.21
   4  12   2    0.61    0.19
  -5 -12  -2    1.57    0.24
   5  12   2    1.05    0.24
   6  12   2   -0.13    0.21
   7  12   2    0.30    0.25
   8  12   2    0.69    0.34
   8 -13  -2    0.61    0.33
  -8  13   2    1.31    0.43
   7 -13  -2    0.14    0.26
  -7  13   2    0.09    0.37
   6 -13  -2    0.47    0.23
  -6  13   2    0.29    0.36
   5 -13  -2    0.04    0.18
  -5  13   2   -0.07    0.31
   4 -13  -2    0.38    0.18
  -4  13   2    0.42    0.28
   3 -13  -2    0.32    0.17
  -3  13   2    1.10    0.27
   2 -13  -2   -0.02    0.15
  -2  13   2   -0.20    0.19
   1 -13  -2    1.14    0.20
  -1  13   2    1.16    0.22
   0 -13  -2    0.23    0.15
   0  13   2    0.11    0.17
  -1 -13  -2    0.36    0.16
   1  13   2    0.32    0.18
  -2 -13  -2    0.00    0.15
   2  13   2   -0.32    0.16
  -3 -13  -2    0.16    0.16
   3  13   2    0.20    0.20
  -4 -13  -2   -0.03    0.17
   4  13   2    0.02    0.19
  -5 -13  -2   -0.13    0.21
   5  13   2    0.00    0.21
   6  13   2    0.11    0.24
   7  13   2    0.25    0.29
   8  13   2    0.21    0.40
   7 -14  -2    0.33    0.30
  -7  14   2    0.94    0.46
   6 -14  -2    0.41    0.25
  -6  14   2   -0.19    0.38
   5 -14  -2    0.45    0.22
  -5  14   2    0.43    0.36
   4 -14  -2    2.15    0.27
  -4  14   2    0.68    0.34
   3 -14  -2    6.22    0.55
  -3  14   2    5.04    0.60
   2 -14  -2    0.51    0.19
  -2  14   2    0.42    0.23
   1 -14  -2    8.69    0.83
  -1  14   2   10.24    0.85
   0 -14  -2    0.18    0.17
   0  14   2    0.13    0.20
  -1 -14  -2    0.38    0.17
   1  14   2    0.55    0.21
  -2 -14  -2    1.04    0.21
   2  14   2    1.21    0.24
  -3 -14  -2    3.51    0.37
   3  14   2    3.36    0.40
  -4 -14  -2    0.40    0.20
  -5 -14  -2   -0.10    0.23
   5  14   2    0.29    0.29
   6  14   2    0.11    0.28
   7  14   2    1.43    0.37
   6 -15  -2   -0.03    0.26
  -6  15   2    0.25    0.46
   5 -15  -2    0.83    0.26
  -5  15   2    1.05    0.42
   4 -15  -2    1.18    0.28
  -4  15   2    1.78    0.40
   3 -15  -2    0.12    0.20
  -3  15   2    0.28    0.29
   2 -15  -2   -0.05    0.19
  -2  15   2    0.28    0.24
   1 -15  -2    0.20    0.19
  -1  15   2    1.04    0.24
   0 -15  -2    0.67    0.20
   0  15   2    0.79    0.24
  -1 -15  -2    1.95    0.27
   1  15   2    1.56    0.31
  -2 -15  -2    0.22    0.19
   2  15   2    0.03    0.21
  -3 -15  -2    0.04    0.20
   3  15   2   -0.03    0.23
  -4 -15  -2    1.17    0.27
   5 -16  -2    0.85    0.28
  -5  16   2    1.17    0.49
   4 -16  -2    0.09    0.24
  -4  16   2    0.21    0.40
   3 -16  -2   -0.15    0.21
  -3  16   2   -0.04    0.33
   2 -16  -2   -0.03    0.20
  -2  16   2   -0.14    0.27
   1 -16  -2    0.44    0.21
  -1  16   2    0.22    0.25
   0 -16  -2    3.94    0.43
   0  16   2    4.00    0.45
  -1 -16  -2   -0.04    0.23
   1  16   2    0.12    0.24
  -2 -16  -2    0.09    0.21
   2  16   2    0.28    0.24
  -3 -16  -2    1.69    0.29
  -4 -16  -2   -0.16    0.28
   4 -17  -2    0.09    0.30
  -4  17   2    0.08    0.45
   3 -17  -2    0.35    0.26
  -3  17   2    0.84    0.38
   2 -17  -2    0.08    0.24
  -2  17   2   -0.23    0.32
   1 -17  -2    0.29    0.24
  -1  17   2    0.22    0.29
   0 -17  -2    0.06    0.26
   0  17   2    0.05    0.31
  -1 -17  -2    1.35    0.28
   1  17   2    1.20    0.31
  -2 -17  -2   -0.05    0.24
   2  17   2   -0.30    0.27
  -3 -17  -2    1.61    0.34
  -3  18   2   -0.13    0.49
   2 -18  -2   -0.10    0.27
  -2  18   2   -0.19    0.39
   1 -18  -2    0.21    0.28
  -1  18   2    0.45    0.35
   0 -18  -2    0.79    0.28
   0  18   2    0.58    0.39
  -1 -18  -2    1.37    0.32
   1  18   2    1.44    0.36
  -2 -18  -2    0.62    0.28
  -3 -18  -2    1.19    0.38
   0  19   2    0.54    0.39
   3  18  -3    0.28    0.37
   2  18  -3    0.07    0.35
   1  18  -3    0.33    0.35
   0  18  -3    0.11    0.34
   0 -18   3   -0.15    0.25
  -1  18  -3   -0.36    0.32
   1 -18   3   -0.14    0.26
  -2  18  -3    0.01    0.32
   2 -18   3    0.05    0.27
   3 -18   3   -0.03    0.28
   4  17  -3    0.19    0.34
   3  17  -3    0.27    0.32
   2  17  -3    0.00    0.29
   1  17  -3    0.08    0.27
  -1 -17   3    0.05    0.23
   0  17  -3    0.64    0.29
   0 -17   3    0.21    0.22
  -1  17  -3   -0.14    0.27
   1 -17   3    0.03    0.26
  -2  17  -3    0.14    0.29
   2 -17   3    0.35    0.24
  -3  17  -3   -0.09    0.32
   3 -17   3   -0.08    0.25
  -4  17  -3    0.05    0.36
   4 -17   3   -0.08    0.28
   3  16  -3    0.03    0.30
   2  16  -3    0.26    0.25
   1  16  -3    0.63    0.27
  -1 -16   3    1.19    0.23
   0  16  -3   -0.31    0.23
   0 -16   3    0.05    0.21
  -1  16  -3    0.54    0.26
   1 -16   3    0.14    0.20
  -2  16  -3   -0.11    0.25
   2 -16   3   -0.03    0.23
  -3  16  -3   -0.04    0.26
   3 -16   3   -0.07    0.21
  -4  16  -3    2.18    0.39
   4 -16   3    1.51    0.32
  -5  16  -3    0.26    0.39
   5 -16   3    0.08    0.28
  -5 -15   3    0.17    0.28
  -4 -15   3    0.65    0.29
  -3 -15   3    0.28    0.23
   2  15  -3    0.86    0.25
  -2 -15   3    0.76    0.23
   1  15  -3    0.46    0.23
  -1 -15   3    0.51    0.21
   0  15  -3    0.19    0.17
   0 -15   3    0.30    0.18
  -1  15  -3   -0.06    0.22
   1 -15   3    0.20    0.18
  -2  15  -3    0.20    0.23
   2 -15   3    0.07    0.18
  -3  15  -3    0.95    0.26
   3 -15   3    0.23    0.20
  -4  15  -3   -0.19    0.27
   4 -15   3    0.07    0.21
  -5  15  -3    0.38    0.35
   5 -15   3    0.44    0.26
  -6  15  -3    0.41    0.47
   6 -15   3    1.80    0.33
  -7  15  -3    0.49    0.61
   7  14  -3   -0.23    0.33
   6  14  -3    0.21    0.28
   5  14  -3    0.24    0.25
  -5 -14   3    0.61    0.25
  -4 -14   3    0.25    0.22
  -3 -14   3    0.39    0.22
   2  14  -3   -0.04    0.21
  -2 -14   3    0.17    0.18
   1  14  -3    0.56    0.22
  -1 -14   3    0.86    0.20
   0  14  -3    0.33    0.16
   0 -14   3    0.30    0.18
  -1  14  -3    1.14    0.24
   1 -14   3    0.88    0.20
  -2  14  -3    4.65    0.50
   2 -14   3    5.08    0.48
  -3  14  -3    2.21    0.28
   3 -14   3    1.90    0.28
  -4  14  -3    0.11    0.24
   4 -14   3    0.53    0.21
  -5  14  -3    0.42    0.31
   5 -14   3    0.10    0.23
  -6  14  -3    0.21    0.39
   6 -14   3    0.15    0.26
  -7  14  -3    0.17    0.47
   7 -14   3    0.19    0.29
  -8  14  -3   -0.41    0.57
   8  13  -3    1.81    0.43
   7  13  -3   -0.11    0.30
   6  13  -3    0.38    0.26
   5  13  -3    0.15    0.22
  -5 -13   3    0.11    0.21
   4  13  -3    0.06    0.19
  -4 -13   3   -0.19    0.22
  -3 -13   3    0.55    0.21
  -2 -13   3    0.51    0.19
  -2 -13   3    0.59    0.17
   1  13  -3    0.30    0.19
  -1 -13   3    0.59    0.15
   0  13  -3    0.05    0.17
   0 -13   3   -0.15    0.14
  -1  13  -3    0.84    0.21
   1 -13   3    0.91    0.18
  -2  13  -3    4.43    0.46
   2 -13   3    4.25    0.43
  -3  13  -3   -0.01    0.19
   3 -13   3   -0.19    0.16
  -4  13  -3   -0.01    0.21
   4 -13   3    0.21    0.18
  -5  13  -3    2.11    0.37
   5 -13   3    2.53    0.32
  -6  13  -3   -0.05    0.34
   6 -13   3   -0.22    0.23
  -7  13  -3   -0.08    0.40
   7 -13   3    0.30    0.26
  -8  13  -3   -0.09    0.51
   8 -13   3    0.19    0.30
   8  12  -3    0.68    0.35
   7  12  -3    0.18    0.31
   6  12  -3    0.17    0.23
  -6 -12   3    0.79    0.26
   5  12  -3    3.76    0.42
  -5 -12   3    4.04    0.43
   4  12  -3   -0.07    0.17
  -4 -12   3    0.19    0.21
   3  12  -3    2.45    0.29
  -3 -12   3    2.24    0.27
  -3 -12   3    2.93    0.31
   2  12  -3    1.03    0.20
  -2 -12   3    1.43    0.22
  -2 -12   3    1.19    0.19
  -1 -12   3    2.00    0.26
  -1 -12   3    2.10    0.24
   0  12  -3    1.03    0.21
   0 -12   3    1.46    0.19
  -1  12  -3    0.59    0.18
   1 -12   3    0.84    0.16
  -2  12  -3   12.74    1.07
   2 -12   3   12.28    1.06
  -3  12  -3    4.12    0.45
   3 -12   3    4.53    0.43
  -4  12  -3   -0.08    0.19
   4 -12   3   -0.26    0.16
  -5  12  -3    2.02    0.35
   5 -12   3    2.51    0.31
  -6  12  -3    0.26    0.31
   6 -12   3    0.38    0.22
  -7  12  -3   -0.06    0.35
   7 -12   3   -0.04    0.23
  -8  12  -3   -0.13    0.39
   8 -12   3   -0.11    0.28
  -9  12  -3    1.13    0.46
   9  11  -3    2.29    0.49
   8  11  -3    0.12    0.29
   7  11  -3    1.29    0.29
   6  11  -3    0.29    0.21
  -6 -11   3    0.40    0.20
   5  11  -3    1.57    0.25
  -5 -11   3    1.15    0.23
   4  11  -3    0.19    0.15
  -4 -11   3    0.05    0.16
   3  11  -3    0.64    0.18
  -3 -11   3    0.41    0.14
  -3 -11   3    0.51    0.17
   2  11  -3    0.06    0.14
  -2 -11   3   -0.01    0.14
  -2 -11   3   -0.01    0.12
   1  11  -3    0.71    0.15
  -1 -11   3    0.61    0.17
  -1 -11   3    0.73    0.15
   0  11  -3    1.33    0.22
   0 -11   3    1.74    0.21
  -1  11  -3    5.86    0.53
   1 -11   3    5.63    0.51
  -2  11  -3    8.12    0.71
   2 -11   3    7.74    0.69
  -3  11  -3    0.90    0.20
   3 -11   3    0.87    0.17
  -4  11  -3    1.34    0.21
   4 -11   3    1.49    0.22
  -5  11  -3    0.24    0.24
   5 -11   3    0.29    0.17
  -6  11  -3    0.08    0.29
   6 -11   3    0.02    0.18
  -7  11  -3   -0.15    0.33
   7 -11   3   -0.09    0.21
  -8  11  -3   -0.05    0.34
   8 -11   3    0.01    0.25
  -9  11  -3   -0.03    0.41
   9 -11   3   -0.42    0.35
   9  10  -3    0.15    0.33
   8  10  -3   -0.08    0.27
   7  10  -3    0.13    0.21
   6  10  -3    0.50    0.21
  -6 -10   3    0.36    0.19
   5  10  -3    2.49    0.31
  -5 -10   3    2.67    0.31
   4  10  -3    0.01    0.14
  -4 -10   3    0.16    0.15
  -4 -10   3    0.24    0.13
   3  10  -3   -0.04    0.13
  -3 -10   3    0.06    0.14
  -3 -10   3   -0.15    0.11
   2  10  -3   10.36    0.86
  -2 -10   3   10.01    0.87
  -2 -10   3    9.95    0.85
   1  10  -3    4.87    0.45
  -1 -10   3    4.87    0.45
  -1 -10   3    5.68    0.47
   0  10  -3    8.56    0.76
   0 -10   3    9.58    0.77
  -1  10  -3    1.25    0.18
   1 -10   3    0.83    0.15
  -2  10  -3    0.88    0.17
   2 -10   3    0.86    0.15
  -3  10  -3    6.12    0.58
   3 -10   3    6.67    0.57
  -4  10  -3    0.97    0.18
   4 -10   3    0.70    0.17
  -5  10  -3    2.50    0.33
   5 -10   3    1.88    0.26
  -6  10  -3   -0.37    0.27
   6 -10   3   -0.10    0.17
  -7  10  -3   -0.19    0.30
   7 -10   3    0.06    0.20
  -8  10  -3   -0.33    0.35
   8 -10   3   -0.05    0.23
  -9  10  -3    0.51    0.39
   9 -10   3    0.35    0.29
   9   9  -3    1.98    0.37
   8   9  -3    0.20    0.24
   7   9  -3    0.67    0.22
  -7  -9   3    0.57    0.24
   6   9  -3    0.56    0.20
  -6  -9   3    0.42    0.20
   5   9  -3    5.72    0.54
  -5  -9   3    5.97    0.54
   4   9  -3    0.02    0.14
  -4  -9   3    0.23    0.13
  -4  -9   3    0.09    0.11
   3   9  -3    0.09    0.13
  -3  -9   3    0.09    0.12
  -3  -9   3    0.18    0.10
   2   9  -3   -0.06    0.11
  -2  -9   3   -0.01    0.11
  -2  -9   3   -0.02    0.09
   1   9  -3   55.33    4.41
  -1  -9   3   53.41    4.41
  -1  -9   3   52.60    4.42
   0   9  -3    2.64    0.26
   0  -9   3    2.48    0.28
   0  -9   3    2.99    0.26
  -1   9  -3   46.07    3.70
  -1   9  -3   46.03    3.72
   1  -9   3   43.25    3.71
  -2   9  -3    0.56    0.12
   2  -9   3    0.99    0.14
  -3   9  -3    4.46    0.39
   3  -9   3    3.90    0.39
  -4   9  -3    2.91    0.31
   4  -9   3    2.45    0.29
  -5   9  -3   11.47    1.00
   5  -9   3   11.28    0.98
  -6   9  -3    1.12    0.30
   6  -9   3    1.09    0.21
  -7   9  -3    0.34    0.29
   7  -9   3    0.55    0.20
  -8   9  -3   -0.06    0.27
   8  -9   3   -0.02    0.22
   9  -9   3    2.94    0.40
  10  -9   3    0.22    0.33
  10   8  -3    0.27    0.34
   9   8  -3    0.65    0.29
   8   8  -3   -0.04    0.20
   7   8  -3    0.21    0.19
  -7  -8   3    0.15    0.17
   6   8  -3    0.31    0.17
  -6  -8   3    0.44    0.19
   5   8  -3    8.75    0.76
  -5  -8   3    8.70    0.77
   4   8  -3   -0.07    0.12
  -4  -8   3    0.15    0.09
  -4  -8   3   -0.05    0.12
   3   8  -3    9.48    0.80
  -3  -8   3    9.42    0.79
  -3  -8   3    9.17    0.80
   2   8  -3    4.19    0.40
  -2  -8   3    5.11    0.40
  -2  -8   3    4.39    0.41
   1   8  -3   47.16    3.85
  -1  -8   3   46.12    3.86
  -1  -8   3   47.51    3.85
   0   8  -3    0.82    0.11
   0  -8   3    0.66    0.13
   0  -8   3    1.05    0.12
  -1   8  -3   70.00    5.51
  -1   8  -3   64.06    5.52
   1  -8   3   67.27    5.52
  -2   8  -3   14.67    1.27
  -2   8  -3   15.24    1.25
   2  -8   3   15.62    1.27
  -3   8  -3   10.71    0.96
   3  -8   3   12.03    0.96
  -4   8  -3    1.69    0.21
   4  -8   3    1.20    0.19
  -5   8  -3    8.16    0.79
   5  -8   3    9.35    0.77
  -6   8  -3    2.11    0.35
   6  -8   3    2.65    0.29
  -7   8  -3    0.19    0.26
   7  -8   3    0.58    0.19
  -8   8  -3    0.37    0.26
   8  -8   3    0.34    0.21
   9  -8   3    0.09    0.28
  10  -8   3    1.04    0.34
  10   7  -3    0.31    0.32
   9   7  -3   -0.14    0.25
   8   7  -3    0.15    0.21
   7   7  -3    0.53    0.21
  -7  -7   3    0.89    0.21
   6   7  -3   10.50    0.94
  -6  -7   3   11.26    0.94
   5   7  -3    2.44    0.29
  -5  -7   3    2.62    0.26
  -5  -7   3    2.76    0.28
   4   7  -3    0.12    0.12
  -4  -7   3    0.31    0.09
  -4  -7   3    0.11    0.11
   3   7  -3   11.73    0.99
  -3  -7   3   11.20    0.99
  -3  -7   3   12.28    0.98
   2   7  -3   33.37    2.82
  -2  -7   3   35.88    2.82
  -2  -7   3   33.49    2.83
   1   7  -3    2.83    0.26
  -1  -7   3    3.15    0.26
  -1  -7   3    2.64    0.27
   0   7  -3    0.98    0.12
   0  -7   3    1.02    0.14
   0  -7   3    1.35    0.13
  -1   7  -3    8.59    0.69
  -1   7  -3    7.98    0.71
   1  -7   3    8.33    0.70
  -2   7  -3   25.11    2.02
  -2   7  -3   23.76    2.04
   2  -7   3   24.87    2.03
  -3   7  -3    0.98    0.17
   3  -7   3    1.32    0.12
   3  -7   3    1.17    0.16
  -4   7  -3    7.94    0.69
   4  -7   3    7.72    0.68
  -5   7  -3   -0.12    0.18
   5  -7   3   -0.02    0.12
  -6   7  -3   10.98    1.07
   6  -7   3   13.12    1.04
  -7   7  -3    3.65    0.41
   7  -7   3    2.55    0.33
  -8   7  -3    0.07    0.21
   8  -7   3   -0.13    0.19
   9  -7   3    1.45    0.29
  10  -7   3   -0.03    0.32
  10   6  -3    0.05    0.29
   9   6  -3    0.58    0.27
   8   6  -3    0.29    0.20
   7   6  -3    0.64    0.19
  -7  -6   3    0.36    0.16
   6   6  -3    0.06    0.15
  -6  -6   3   -0.16    0.14
   5   6  -3   10.59    0.85
  -5  -6   3    9.37    0.84
  -5  -6   3    9.94    0.83
   4   6  -3    0.43    0.12
  -4  -6   3    0.73    0.09
  -4  -6   3    0.46    0.13
   3   6  -3   12.42    1.05
  -3  -6   3   12.03    1.04
  -3  -6   3   13.35    1.05
   2   6  -3    0.07    0.07
  -2  -6   3    0.05    0.08
  -2  -6   3    0.00    0.06
   1   6  -3    4.29    0.37
  -1  -6   3    4.38    0.37
  -1  -6   3    4.41    0.38
   0   6  -3    0.02    0.05
   0  -6   3   -0.04    0.07
   0  -6   3   -0.02    0.06
  -1   6  -3   42.39    3.43
   1  -6   3   40.70    3.44
   1  -6   3   42.53    3.44
  -2   6  -3    0.16    0.09
   2  -6   3    0.22    0.08
   2  -6   3    0.31    0.06
  -3   6  -3    8.96    0.84
   3  -6   3    9.92    0.84
   3  -6   3   10.58    0.83
  -4   6  -3    6.78    0.63
   4  -6   3    7.56    0.60
   4  -6   3    6.81    0.62
  -5   6  -3    9.12    0.94
   5  -6   3   11.98    0.93
   5  -6   3   11.05    0.91
  -6   6  -3    2.36    0.32
   6  -6   3    2.60    0.28
  -7   6  -3    0.42    0.22
   7  -6   3    0.26    0.16
  -8   6  -3    0.03    0.19
   8  -6   3   -0.19    0.17
   9  -6   3    0.56    0.23
  10  -6   3    0.11    0.26
  11  -6   3    0.08    0.38
  10   5  -3   -0.05    0.28
   9   5  -3    1.21    0.28
   8   5  -3    1.10    0.24
  -8  -5   3    1.25    0.21
   7   5  -3    3.11    0.35
  -7  -5   3    3.14    0.33
   6   5  -3    0.73    0.16
  -6  -5   3    0.53    0.13
  -6  -5   3    0.00    0.12
   5   5  -3    7.76    0.73
  -5  -5   3    8.98    0.71
   4   5  -3   15.09    1.25
  -4  -5   3   14.82    1.24
  -4  -5   3   14.95    1.23
   3   5  -3   30.49    2.48
  -3  -5   3   30.11    2.47
  -3  -5   3   29.70    2.48
   2   5  -3   30.19    2.37
  -2  -5   3   27.53    2.37
  -2  -5   3   28.92    2.37
   1   5  -3    3.60    0.32
  -1  -5   3    3.64    0.33
  -1  -5   3    3.95    0.32
   0   5  -3   12.32    1.08
   0  -5   3   13.56    1.09
   0  -5   3   13.61    1.08
  -1   5  -3    8.33    0.68
   1  -5   3    8.07    0.69
   1  -5   3    8.36    0.70
  -2   5  -3  152.94   12.57
   2  -5   3  154.25   12.57
   2  -5   3  153.93   12.56
  -3   5  -3    0.58    0.11
   3  -5   3    0.39    0.10
   3  -5   3    0.60    0.08
  -4   5  -3    1.48    0.20
   4  -5   3    1.46    0.15
   4  -5   3    1.37    0.17
  -5   5  -3    3.84    0.48
   5  -5   3    5.24    0.46
   5  -5   3    5.59    0.44
  -6   5  -3    4.26    0.40
   6  -5   3    3.12    0.34
   6  -5   3    4.35    0.37
  -7   5  -3    0.19    0.19
   7  -5   3    0.02    0.15
  -8   5  -3    2.74    0.29
   8  -5   3    1.63    0.27
   9  -5   3    1.39    0.26
  10  -5   3    0.31    0.26
 -11   5  -3    0.42    0.40
  11   4  -3    0.67    0.36
  10   4  -3    0.26    0.27
   9   4  -3    3.08    0.37
   8   4  -3   -0.09    0.18
  -8  -4   3   -0.05    0.18
   7   4  -3    0.53    0.18
  -7  -4   3    0.65    0.17
   6   4  -3   -0.06    0.13
  -6  -4   3    0.02    0.09
  -6  -4   3   -0.02    0.10
   5   4  -3    2.63    0.27
  -5  -4   3    2.86    0.25
  -5  -4   3    2.47    0.26
   4   4  -3    8.95    0.75
  -4  -4   3    9.21    0.75
  -4  -4   3    8.67    0.74
   3   4  -3  176.30   14.66
  -3  -4   3  182.50   14.66
  -3  -4   3  179.15   14.65
   2   4  -3    8.83    0.73
  -2  -4   3    9.00    0.72
  -2  -4   3    8.29    0.73
   1   4  -3   42.08    3.53
  -1  -4   3   44.29    3.53
  -1  -4   3   42.82    3.53
   0   4  -3   12.99    1.12
   0  -4   3   14.22    1.12
   0  -4   3   13.57    1.12
   1  -4   3   11.82    0.96
   1  -4   3   10.91    0.95
   1  -4   3   11.80    0.95
  -2   4  -3    0.44    0.08
   2  -4   3    0.57    0.07
   2  -4   3    0.58    0.08
  -3   4  -3  148.98   11.68
   3  -4   3  136.66   11.67
   3  -4   3  142.93   11.67
  -4   4  -3   11.27    1.08
   4  -4   3   12.40    1.07
   4  -4   3   14.12    1.06
  -5   4  -3   19.34    1.69
   5  -4   3   21.12    1.67
   5  -4   3   19.81    1.68
  -6   4  -3    0.17    0.16
   6  -4   3    0.72    0.13
   6  -4   3    0.10    0.12
  -7   4  -3    0.15    0.16
   7  -4   3    0.21    0.15
   7  -4   3    0.08    0.14
   8  -4   3    2.26    0.29
   9  -4   3    0.13    0.20
 -11   4  -3    0.21    0.31
  11   3  -3   -0.01    0.33
  10   3  -3   -0.05    0.25
   9   3  -3   -0.01    0.20
   8   3  -3    3.13    0.34
  -8  -3   3    2.90    0.32
   7   3  -3    6.66    0.60
  -7  -3   3    6.64    0.59
   6   3  -3    1.39    0.21
  -6  -3   3    1.93    0.18
  -6  -3   3    1.32    0.18
   5   3  -3   13.18    1.15
  -5  -3   3   14.92    1.14
  -5  -3   3   12.89    1.15
   4   3  -3    2.43    0.23
  -4  -3   3    2.31    0.23
  -4  -3   3    2.29    0.21
   3   3  -3   34.94    2.91
  -3  -3   3   35.85    2.91
  -3  -3   3   35.54    2.90
   2   3  -3   75.58    6.36
  -2  -3   3   78.67    6.35
  -2  -3   3   78.80    6.36
   1   3  -3  198.16   15.95
  -1  -3   3  188.90   15.95
  -1  -3   3  198.26   15.94
   0   3  -3    0.95    0.09
   0  -3   3    0.97    0.10
   0  -3   3    0.91    0.09
   1  -3   3   69.34    5.67
   1  -3   3   68.20    5.67
   1  -3   3   70.32    5.67
  -2   3  -3   53.67    4.39
   2  -3   3   55.01    4.39
   2  -3   3   52.29    4.39
  -3   3  -3   48.62    3.94
   3  -3   3   48.05    3.94
   3  -3   3   47.45    3.93
  -4   3  -3    0.98    0.16
   4  -3   3    1.21    0.15
   4  -3   3    1.45    0.14
  -5   3  -3   40.05    3.31
   5  -3   3   38.52    3.30
   5  -3   3   41.73    3.30
  -6   3  -3    0.21    0.13
   6  -3   3    0.53    0.11
   6  -3   3    0.52    0.13
  -7   3  -3    8.83    0.76
   7  -3   3    9.97    0.77
   7  -3   3    8.04    0.76
   8  -3   3    0.79    0.20
   8  -3   3    0.25    0.17
   9  -3   3    1.14    0.25
   9  -3   3    1.18    0.24
 -10   3  -3    0.00    0.23
 -11   3  -3    0.09    0.30
  11   2  -3    0.09    0.32
  10   2  -3   -0.21    0.24
   9   2  -3    1.37    0.26
   8   2  -3    0.60    0.19
  -8  -2   3    0.14    0.15
   7   2  -3    0.00    0.14
  -7  -2   3    0.07    0.13
  -7  -2   3    0.04    0.11
   6   2  -3    2.53    0.27
  -6  -2   3    2.18    0.25
  -6  -2   3    2.56    0.24
   5   2  -3   18.48    1.52
  -5  -2   3   18.46    1.51
  -5  -2   3   18.10    1.52
   4   2  -3    1.95    0.20
  -4  -2   3    2.02    0.18
  -4  -2   3    1.73    0.19
   3   2  -3    0.23    0.06
  -3  -2   3    0.10    0.06
  -3  -2   3    0.16    0.04
   2   2  -3    0.00    0.05
  -2  -2   3    0.04    0.02
  -2  -2   3    0.05    0.05
   1   2  -3   27.28    2.26
  -1  -2   3   27.20    2.27
  -1  -2   3   28.22    2.26
   0  -2   3   10.59    0.88
   0  -2   3   10.85    0.88
   1  -2   3   11.50    0.96
   1  -2   3   11.14    0.96
   1  -2   3   12.22    0.96
  -2   2  -3   13.08    1.08
   2  -2   3   13.08    1.08
   2  -2   3   13.20    1.08
  -3   2  -3    9.69    0.82
   3  -2   3    9.22    0.81
   3  -2   3   10.29    0.81
  -4   2  -3    0.04    0.09
   4  -2   3   -0.07    0.07
   4  -2   3   -0.16    0.07
  -5   2  -3   25.41    2.00
   5  -2   3   23.49    2.01
   5  -2   3   23.84    2.00
  -6   2  -3    1.09    0.14
   6  -2   3    0.81    0.15
   6  -2   3    1.13    0.16
  -7   2  -3    8.02    0.66
   7  -2   3    7.07    0.66
   7  -2   3    7.54    0.67
   8  -2   3   -0.28    0.15
  -9   2  -3    0.21    0.18
   9  -2   3    0.32    0.18
 -10   2  -3    0.93    0.26
  10  -2   3    1.22    0.46
 -11   2  -3   -0.12    0.29
  11   1  -3    0.21    0.31
  10   1  -3    0.60    0.29
   9   1  -3    2.60    0.32
  -9  -1   3    2.03    0.31
   8   1  -3    0.71    0.19
  -8  -1   3    0.75    0.19
   7   1  -3    5.03    0.49
  -7  -1   3    5.45    0.48
  -7  -1   3    5.64    0.49
   6   1  -3    1.16    0.17
  -6  -1   3    0.99    0.16
  -6  -1   3    1.35    0.15
   5   1  -3    7.23    0.65
  -5  -1   3    8.02    0.65
  -5  -1   3    7.49    0.64
   4   1  -3    8.65    0.68
   4   1  -3    7.58    0.67
  -4  -1   3    8.27    0.68
   3   1  -3    5.51    0.42
   3   1  -3    4.68    0.41
  -3  -1   3    4.89    0.42
   2   1  -3    1.29    0.10
   2   1  -3    1.00    0.12
  -2  -1   3    1.06    0.12
   1   1  -3  260.27   22.01
  -1  -1   3  278.39   22.01
   0  -1   3    0.76    0.08
   0  -1   3    0.87    0.07
   0  -1   3    0.67    0.08
   1  -1   3   52.87    4.31
   1  -1   3   51.94    4.31
   1  -1   3   53.20    4.31
  -2   1  -3    2.92    0.26
   2  -1   3    3.00    0.26
   2  -1   3    3.16    0.26
  -3   1  -3   14.52    1.35
   3  -1   3   17.97    1.35
   3  -1   3   17.03    1.35
  -4   1  -3    0.63    0.09
   4  -1   3    0.62    0.12
   4  -1   3    0.53    0.10
  -5   1  -3    1.60    0.18
   5  -1   3    2.06    0.19
   5  -1   3    1.64    0.19
  -6   1  -3    1.72    0.17
   6  -1   3    1.53    0.18
   6  -1   3    0.90    0.17
  -7   1  -3    2.88    0.28
  -7   1  -3    2.16    0.28
   7  -1   3    2.97    0.30
  -8   1  -3    1.78    0.25
   8  -1   3    1.60    0.25
  -9   1  -3    1.65    0.25
   9  -1   3    1.25    0.23
 -10   1  -3    0.42    0.27
  10  -1   3    0.52    0.25
 -11   1  -3    0.00    0.29
  11   0  -3    0.67    0.36
  10   0  -3    1.33    0.29
   9   0  -3    0.19    0.19
  -9   0   3    0.21    0.22
   8   0  -3    0.15    0.16
  -8   0   3    0.01    0.14
  -8   0   3    0.08    0.17
   7   0  -3   -0.03    0.10
   7   0  -3    0.06    0.12
  -7   0   3   -0.15    0.12
   6   0  -3    2.12    0.23
   6   0  -3    1.96    0.21
  -6   0   3    1.97    0.22
   5   0  -3    2.09    0.20
   5   0  -3    1.61    0.18
  -5   0   3    1.89    0.20
   4   0  -3    0.13    0.08
   4   0  -3    0.03    0.05
  -4   0   3    0.03    0.07
   3   0  -3    7.96    0.64
   3   0  -3    7.76    0.65
  -3   0   3    7.58    0.65
   2   0  -3  419.90   34.25
   2   0  -3  424.60   34.26
  -2   0   3  413.48   34.26
   1   0  -3    4.06    0.33
  -1   0   3    3.88    0.33
   0   0  -3    0.68    0.05
   0   0   3    0.50    0.05
   0   0   3    0.42    0.06
  -1   0  -3    4.96    0.43
   1   0   3    5.15    0.43
   1   0   3    5.34    0.43
  -2   0  -3  157.97   13.59
  -2   0  -3  165.93   13.59
   2   0   3  175.55   13.60
  -3   0  -3   10.75    0.86
  -3   0  -3   10.24    0.87
   3   0   3   10.21    0.87
  -4   0  -3   -0.02    0.07
  -4   0  -3   -0.14    0.05
   4   0   3    0.04    0.11
  -5   0  -3    7.26    0.61
  -5   0  -3    7.67    0.62
   5   0   3    6.89    0.62
  -6   0  -3    0.13    0.09
  -6   0  -3    0.22    0.11
   6   0   3   -0.03    0.11
  -7   0  -3    1.48    0.20
   7   0   3    1.50    0.21
  -8   0  -3    2.23    0.28
   8   0   3    2.51    0.30
  -9   0  -3    0.65    0.21
   9   0   3    0.75    0.23
 -10   0  -3   -0.04    0.25
  10   0   3    0.13    0.24
  11   0   3    0.16    0.28
  10  -1  -3    0.47    0.23
   9  -1  -3   -0.11    0.21
  -9   1   3   -0.01    0.19
   8  -1  -3    1.22    0.19
   8  -1  -3    0.79    0.18
  -8   1   3    0.62    0.19
   7  -1  -3    0.17    0.12
   7  -1  -3    0.24    0.15
  -7   1   3    0.35    0.16
   6  -1  -3    2.61    0.27
   6  -1  -3    2.88    0.27
  -6   1   3    2.52    0.27
   5  -1  -3   46.23    3.65
   5  -1  -3   43.91    3.64
  -5   1   3   43.29    3.65
   4  -1  -3   26.56    2.23
   4  -1  -3   27.68    2.23
  -4   1   3   27.32    2.24
   3  -1  -3   79.63    6.53
   3  -1  -3   82.69    6.53
  -3   1   3   77.00    6.53
   2  -1  -3    3.31    0.28
   2  -1  -3    3.55    0.29
  -2   1   3    3.22    0.29
   1  -1  -3  884.22   72.75
   1  -1  -3  903.26   72.75
  -1   1   3  883.88   72.76
   0  -1  -3    4.87    0.41
   0   1   3    4.84    0.41
   0   1   3    5.11    0.41
  -1  -1  -3  809.71   66.84
   1   1   3  826.52   66.84
  -2  -1  -3   12.35    1.05
  -2  -1  -3   12.91    1.04
   2   1   3   12.73    1.05
  -3  -1  -3   78.94    6.40
  -3  -1  -3   78.46    6.41
   3   1   3   77.41    6.41
  -4  -1  -3   17.47    1.49
  -4  -1  -3   18.53    1.48
   4   1   3   17.86    1.50
  -5  -1  -3   60.87    4.92
  -5  -1  -3   61.56    4.91
   5   1   3   57.07    4.92
  -6  -1  -3    0.79    0.14
  -6  -1  -3    0.78    0.13
   6   1   3    1.09    0.16
  -7  -1  -3    7.27    0.65
   7   1   3    7.75    0.66
  -8  -1  -3    3.81    0.37
   8   1   3    3.24    0.38
  -9  -1  -3    0.28    0.19
   9   1   3    0.73    0.21
 -10  -1  -3   -0.09    0.21
  10   1   3   -0.04    0.22
  11   1   3    0.07    0.32
   9  -2  -3   -0.07    0.21
  -9   2   3   -0.07    0.19
   8  -2  -3    1.97    0.25
   8  -2  -3    2.07    0.25
  -8   2   3    1.69    0.26
   7  -2  -3    0.75    0.18
   7  -2  -3    1.08    0.18
  -7   2   3    1.61    0.19
   6  -2  -3    0.73    0.14
   6  -2  -3    0.92    0.15
  -6   2   3    0.57    0.14
   5  -2  -3    0.66    0.10
   5  -2  -3    0.26    0.10
  -5   2   3    0.55    0.11
   4  -2  -3    7.97    0.70
   4  -2  -3    8.91    0.70
  -4   2   3    8.11    0.70
   3  -2  -3    6.06    0.48
   3  -2  -3    5.39    0.48
  -3   2   3    5.52    0.48
   2  -2  -3    4.63    0.38
   2  -2  -3    4.59    0.38
  -2   2   3    4.42    0.39
   1  -2  -3    1.65    0.15
  -1   2   3    1.76    0.15
  -1   2   3    1.66    0.16
   0  -2  -3    4.89    0.41
   0   2   3    4.42    0.41
   0   2   3    5.32    0.41
  -1  -2  -3    1.85    0.16
   1   2   3    1.77    0.15
   1   2   3    1.79    0.16
  -2  -2  -3   26.58    2.22
  -2  -2  -3   27.19    2.23
   2   2   3   27.92    2.23
  -3  -2  -3    7.45    0.64
  -3  -2  -3    8.01    0.65
   3   2   3    8.27    0.65
  -4  -2  -3    0.25    0.08
  -4  -2  -3    0.30    0.06
   4   2   3    0.07    0.09
  -5  -2  -3    1.17    0.14
  -5  -2  -3    0.70    0.10
   5   2   3    0.55    0.13
  -6  -2  -3    0.15    0.11
  -6  -2  -3    0.14    0.09
   6   2   3    0.02    0.12
  -7  -2  -3    0.45    0.13
   7   2   3    0.14    0.14
  -8  -2  -3    0.84    0.19
   8   2   3    1.28    0.22
  -9  -2  -3    5.92    0.57
   9   2   3    5.71    0.57
 -10  -2  -3    0.00    0.26
  10   2   3    0.08    0.23
  11   2   3   -0.17    0.33
 -10   3   3    0.14    0.28
  -9   3   3    0.10    0.20
   8  -3  -3    1.21    0.20
   8  -3  -3    1.17    0.21
  -8   3   3    0.71    0.20
   7  -3  -3    0.04    0.12
   7  -3  -3   -0.11    0.11
  -7   3   3    0.08    0.14
   6  -3  -3   12.42    1.04
   6  -3  -3   12.18    1.04
  -6   3   3   12.69    1.05
   5  -3  -3    2.16    0.22
   5  -3  -3    2.15    0.22
  -5   3   3    2.11    0.23
   4  -3  -3   10.35    0.82
   4  -3  -3    9.30    0.82
  -4   3   3    9.80    0.83
   3  -3  -3   14.49    1.17
   3  -3  -3   14.61    1.16
  -3   3   3   13.13    1.17
   2  -3  -3  343.18   27.97
   2  -3  -3  347.92   27.97
  -2   3   3  335.86   27.98
   1  -3  -3   51.41    4.07
  -1   3   3   45.77    4.07
  -1   3   3   51.47    4.06
   0  -3  -3    0.15    0.04
   0   3   3    0.23    0.05
   0   3   3    0.09    0.04
  -1  -3  -3   68.61    5.68
   1   3   3   68.54    5.68
   1   3   3   71.13    5.68
  -2  -3  -3  163.79   13.38
  -2  -3  -3  164.70   13.37
   2   3   3  162.47   13.38
  -3  -3  -3   41.98    3.51
  -3  -3  -3   43.44    3.51
   3   3   3   43.05    3.52
  -4  -3  -3   33.28    2.74
  -4  -3  -3   33.65    2.74
   4   3   3   33.26    2.75
  -5  -3  -3    8.32    0.65
  -5  -3  -3    7.85    0.66
   5   3   3    6.60    0.66
  -6  -3  -3    7.24    0.62
   6   3   3    7.08    0.63
  -7  -3  -3    0.01    0.13
   7   3   3   -0.03    0.15
  -8  -3  -3    0.59    0.17
   8   3   3    0.49    0.19
  -9  -3  -3    1.13    0.22
   9   3   3    0.75    0.22
  10   3   3    0.60    0.26
  11   3   3    0.17    0.31
 -10   4   3    0.13    0.25
   9  -4  -3    1.28    0.26
  -9   4   3    1.07    0.25
   8  -4  -3    4.17    0.42
  -8   4   3    4.16    0.44
   7  -4  -3    3.40    0.36
   7  -4  -3    3.53    0.35
  -7   4   3    3.93    0.38
   6  -4  -3    1.22    0.16
   6  -4  -3    1.17    0.19
  -6   4   3    1.69    0.20
   5  -4  -3   24.02    1.94
   5  -4  -3   23.11    1.94
  -5   4   3   23.55    1.95
   4  -4  -3   67.87    5.63
   4  -4  -3   67.27    5.63
  -4   4   3   71.45    5.64
   3  -4  -3   33.17    2.68
   3  -4  -3   31.74    2.67
  -3   4   3   33.15    2.69
   2  -4  -3   44.47    3.67
   2  -4  -3   46.57    3.66
  -2   4   3   42.37    3.68
   1  -4  -3   15.79    1.29
  -1   4   3   15.11    1.30
  -1   4   3   15.87    1.28
   0  -4  -3    3.57    0.32
   0   4   3    3.95    0.32
   0   4   3    3.75    0.32
  -1  -4  -3   31.36    2.64
   1   4   3   33.19    2.64
   1   4   3   31.90    2.64
  -2  -4  -3   12.36    1.07
  -2  -4  -3   13.93    1.07
   2   4   3   12.10    1.07
  -3  -4  -3   33.15    2.69
  -3  -4  -3   32.91    2.68
   3   4   3   31.97    2.69
  -4  -4  -3    0.10    0.08
  -4  -4  -3    0.38    0.07
   4   4   3    0.00    0.10
  -5  -4  -3   26.43    2.10
  -5  -4  -3   26.78    2.11
   5   4   3   22.84    2.11
  -6  -4  -3    0.03    0.11
   6   4   3    0.16    0.13
  -7  -4  -3    0.16    0.13
   7   4   3    0.38    0.17
  -8  -4  -3    2.29    0.27
   8   4   3    1.77    0.28
  -9  -4  -3    0.20    0.19
   9   4   3    0.02    0.21
  10   4   3   -0.13    0.25
  11   4   3    0.03    0.32
 -10   5   3    0.03    0.29
   9  -5  -3    0.50    0.21
  -9   5   3    0.54    0.23
   8  -5  -3    1.58    0.25
  -8   5   3    2.16    0.28
   7  -5  -3    0.48    0.15
  -7   5   3   -0.16    0.15
   6  -5  -3    0.68    0.16
   6  -5  -3    0.75    0.13
  -6   5   3    0.84    0.17
   5  -5  -3    3.61    0.33
   5  -5  -3    3.77    0.32
  -5   5   3    3.12    0.33
   4  -5  -3   19.27    1.53
   4  -5  -3   17.57    1.54
  -4   5   3   18.68    1.56
   3  -5  -3    5.81    0.52
   3  -5  -3    6.47    0.51
  -3   5   3    5.19    0.55
   2  -5  -3   52.42    4.25
   2  -5  -3   54.65    4.24
  -2   5   3   47.15    4.26
   1  -5  -3   46.65    3.82
  -1   5   3   46.88    3.83
  -1   5   3   46.46    3.81
   0  -5  -3    1.85    0.19
   0   5   3    2.02    0.19
   0   5   3    2.01    0.18
  -1  -5  -3   29.73    2.49
   1   5   3   30.62    2.49
   1   5   3   30.65    2.49
  -2  -5  -3   55.56    4.56
  -2  -5  -3   54.24    4.56
   2   5   3   57.41    4.57
  -3  -5  -3    4.64    0.39
  -3  -5  -3    4.69    0.40
   3   5   3    4.46    0.41
  -4  -5  -3   11.35    0.90
  -4  -5  -3   11.24    0.89
   4   5   3    9.33    0.90
  -5  -5  -3    1.99    0.23
  -5  -5  -3    2.23    0.22
   5   5   3    2.45    0.25
  -6  -5  -3   14.78    1.24
   6   5   3   14.71    1.25
  -7  -5  -3    0.24    0.16
   7   5   3    0.14    0.16
  -8  -5  -3    0.44    0.17
   8   5   3    0.32    0.19
  -9  -5  -3    0.00    0.19
   9   5   3   -0.05    0.23
  10   5   3    0.34    0.28
 -10   6   3    0.00    0.32
   9  -6  -3    0.04    0.20
  -9   6   3    0.15    0.26
   8  -6  -3    0.94    0.23
  -8   6   3    0.84    0.23
   7  -6  -3   12.21    1.09
  -7   6   3   13.44    1.11
   6  -6  -3   26.38    2.23
  -6   6   3   27.59    2.25
   5  -6  -3    0.24    0.12
  -5   6   3    0.15    0.15
   4  -6  -3    0.96    0.10
   4  -6  -3    1.02    0.14
  -4   6   3    0.78    0.19
   3  -6  -3    4.68    0.46
   3  -6  -3    5.70    0.44
  -3   6   3    4.52    0.50
   2  -6  -3    0.05    0.03
   2  -6  -3    0.01    0.07
  -2   6   3    0.07    0.14
   1  -6  -3   56.18    4.93
  -1   6   3   60.93    4.92
  -1   6   3   63.27    4.93
   0  -6  -3    0.95    0.11
   0   6   3    0.86    0.11
   0   6   3    1.12    0.13
  -1  -6  -3   77.18    6.32
   1   6   3   77.13    6.32
   1   6   3   77.44    6.32
  -2  -6  -3    4.07    0.34
   2   6   3    3.56    0.34
  -3  -6  -3   12.29    0.97
  -3  -6  -3   11.56    0.97
   3   6   3   11.02    0.97
  -4  -6  -3   13.65    1.14
  -4  -6  -3   15.93    1.15
   4   6   3   11.68    1.15
  -5  -6  -3    1.47    0.18
   5   6   3    1.64    0.21
  -6  -6  -3    4.04    0.34
   6   6   3    2.62    0.35
  -7  -6  -3   15.63    1.31
   7   6   3   15.50    1.33
  -8  -6  -3    0.73    0.21
   8   6   3    0.48    0.21
   9   6   3    2.38    0.35
  10   6   3   -0.07    0.30
  10  -7  -3    0.36    0.32
 -10   7   3    0.63    0.31
   9  -7  -3    0.01    0.25
  -9   7   3   -0.01    0.24
   8  -7  -3    1.55    0.28
  -8   7   3    2.90    0.33
   7  -7  -3   -0.01    0.15
  -7   7   3   -0.10    0.22
   6  -7  -3    0.30    0.16
  -6   7   3    0.97    0.21
   5  -7  -3    4.45    0.42
  -5   7   3    4.54    0.46
   4  -7  -3    1.37    0.18
  -4   7   3    1.41    0.23
   3  -7  -3    0.09    0.09
  -3   7   3    0.00    0.15
   2  -7  -3    0.23    0.09
   2  -7  -3    0.43    0.04
  -2   7   3    0.45    0.14
   1  -7  -3   13.12    1.18
  -1   7   3   15.25    1.19
  -1   7   3   14.39    1.17
   0  -7  -3    0.22    0.08
   0   7   3    0.27    0.09
   0   7   3    0.22    0.06
  -1  -7  -3   35.65    2.92
   1   7   3   37.86    2.92
   1   7   3   33.39    2.92
  -2  -7  -3    0.04    0.08
   2   7   3    0.02    0.08
   2   7   3   -0.04    0.08
  -3  -7  -3   -0.05    0.08
  -3  -7  -3    0.00    0.08
   3   7   3   -0.08    0.10
  -4  -7  -3    0.13    0.10
  -4  -7  -3    0.00    0.10
   4   7   3    0.05    0.11
  -5  -7  -3    0.53    0.13
   5   7   3    0.42    0.15
  -6  -7  -3    0.10    0.15
   6   7   3    0.14    0.16
  -7  -7  -3    0.81    0.18
   7   7   3    0.51    0.20
  -8  -7  -3    0.27    0.18
   8   7   3    0.18    0.20
   9   7   3    1.03    0.27
  10   7   3    0.04    0.30
  10  -8  -3    0.26    0.29
 -10   8   3    0.27    0.37
   9  -8  -3    1.69    0.29
  -9   8   3    1.25    0.31
   8  -8  -3   -0.04    0.23
  -8   8   3   -0.03    0.23
   7  -8  -3    1.36    0.24
  -7   8   3    1.97    0.30
   6  -8  -3    5.83    0.55
  -6   8   3    6.11    0.59
   5  -8  -3   17.87    1.52
  -5   8   3   18.56    1.55
   4  -8  -3    0.45    0.13
  -4   8   3    0.47    0.20
   3  -8  -3   15.93    1.35
  -3   8   3   16.57    1.38
   2  -8  -3    9.21    0.87
  -2   8   3   12.08    0.90
   1  -8  -3   21.59    1.84
  -1   8   3   22.65    1.85
  -1   8   3   22.51    1.83
   0  -8  -3    0.65    0.12
   0   8   3    0.76    0.10
   0   8   3    0.83    0.13
  -1  -8  -3   24.13    2.02
   1   8   3   24.48    2.01
   1   8   3   24.68    2.02
  -2  -8  -3   25.67    2.13
   2   8   3   25.94    2.13
   2   8   3   25.63    2.12
  -3  -8  -3    1.18    0.16
  -3  -8  -3    1.79    0.18
   3   8   3    1.49    0.18
  -4  -8  -3    7.02    0.57
  -4  -8  -3    6.27    0.56
   4   8   3    6.22    0.57
  -5  -8  -3    0.41    0.13
   5   8   3    0.35    0.15
  -6  -8  -3    2.94    0.30
   6   8   3    2.61    0.32
  -7  -8  -3    0.64    0.19
   7   8   3    0.99    0.23
  -8  -8  -3    3.16    0.36
   8   8   3    3.25    0.39
   9   8   3    0.17    0.28
  10  -9  -3   -0.13    0.32
 -10   9   3    0.49    0.35
   9  -9  -3    0.33    0.26
  -9   9   3    0.33    0.30
   8  -9  -3    1.62    0.31
  -8   9   3    3.36    0.37
   7  -9  -3    0.21    0.19
  -7   9   3    0.33    0.23
   6  -9  -3    2.50    0.31
  -6   9   3    3.07    0.40
   5  -9  -3    0.70    0.17
  -5   9   3    0.77    0.26
   4  -9  -3   22.41    1.88
  -4   9   3   23.02    1.92
   3  -9  -3    4.76    0.42
  -3   9   3    4.19    0.46
   2  -9  -3   14.32    1.28
  -2   9   3   16.66    1.30
   1  -9  -3    0.09    0.10
  -1   9   3    0.54    0.13
   0  -9  -3    2.18    0.23
   0   9   3    2.20    0.23
   0   9   3    2.01    0.21
  -1  -9  -3    0.93    0.15
   1   9   3    1.15    0.15
   1   9   3    0.99    0.14
  -2  -9  -3   23.42    1.93
   2   9   3   22.63    1.93
   2   9   3   24.04    1.94
  -3  -9  -3    4.20    0.38
   3   9   3    3.81    0.38
   3   9   3    4.16    0.38
  -4  -9  -3    3.50    0.35
  -4  -9  -3    3.49    0.36
   4   9   3    4.00    0.37
  -5  -9  -3    4.59    0.44
   5   9   3    4.38    0.44
  -6  -9  -3    5.35    0.48
   6   9   3    4.53    0.49
  -7  -9  -3    0.03    0.17
   7   9   3    0.03    0.20
   8   9   3    2.32    0.35
   9   9   3    0.25    0.31
  10 -10  -3    0.38    0.35
 -10  10   3   -0.24    0.38
   9 -10  -3    0.06    0.28
  -9  10   3    0.13    0.37
   8 -10  -3    0.42    0.23
  -8  10   3    0.38    0.29
   7 -10  -3    0.40    0.20
  -7  10   3    0.09    0.25
   6 -10  -3    2.48    0.30
  -6  10   3    2.50    0.38
   5 -10  -3    0.18    0.15
  -5  10   3    0.29    0.26
   4 -10  -3    0.10    0.14
  -4  10   3    0.04    0.22
   3 -10  -3    4.73    0.41
  -3  10   3    3.83    0.46
   2 -10  -3    3.18    0.33
  -2  10   3    3.57    0.36
   1 -10  -3    0.17    0.11
  -1  10   3    0.09    0.13
   0 -10  -3    0.00    0.11
   0  10   3    0.14    0.12
  -1 -10  -3    7.17    0.65
   1  10   3    7.52    0.64
   1  10   3    7.77    0.66
  -2 -10  -3    6.02    0.51
   2  10   3    5.06    0.50
   2  10   3    6.06    0.52
  -3 -10  -3   16.70    1.36
   3  10   3   15.62    1.36
   3  10   3   16.44    1.36
  -4 -10  -3   14.86    1.25
   4  10   3   14.78    1.25
  -5 -10  -3    2.31    0.27
   5  10   3    2.35    0.29
  -6 -10  -3    0.12    0.17
   6  10   3   -0.06    0.19
  -7 -10  -3    0.07    0.20
   7  10   3    0.04    0.22
   8  10   3    0.83    0.28
   9  10   3    0.31    0.32
   9 -11  -3    0.12    0.31
  -9  11   3    0.66    0.42
   8 -11  -3   -0.30    0.27
  -8  11   3    0.05    0.30
   7 -11  -3    0.14    0.21
  -7  11   3   -0.16    0.28
   6 -11  -3    1.10    0.22
  -6  11   3    1.17    0.32
   5 -11  -3    0.75    0.18
  -5  11   3    0.20    0.28
   4 -11  -3    3.43    0.35
  -4  11   3    2.95    0.42
   3 -11  -3   -0.04    0.14
  -3  11   3    0.20    0.21
   2 -11  -3    0.00    0.12
  -2  11   3    0.07    0.17
   1 -11  -3    7.84    0.72
  -1  11   3    8.83    0.73
   0 -11  -3    0.57    0.14
   0  11   3    0.36    0.15
  -1 -11  -3    6.24    0.56
   1  11   3    6.24    0.56
  -2 -11  -3    0.77    0.15
   2  11   3    0.71    0.16
   2  11   3    0.51    0.15
  -3 -11  -3    0.22    0.14
   3  11   3    0.26    0.17
   3  11   3    0.33    0.16
  -4 -11  -3    0.52    0.17
   4  11   3    0.69    0.20
  -5 -11  -3    0.04    0.16
   5  11   3   -0.04    0.18
  -6 -11  -3    0.51    0.19
   6  11   3    0.02    0.20
   7  11   3    0.24    0.24
   8  11   3    0.31    0.29
   9 -12  -3    0.30    0.34
  -9  12   3    0.74    0.42
   8 -12  -3    1.41    0.33
  -8  12   3    1.55    0.40
   7 -12  -3    0.15    0.24
  -7  12   3    0.18    0.32
   6 -12  -3    4.27    0.42
  -6  12   3    3.30    0.46
   5 -12  -3    0.74    0.20
  -5  12   3    0.21    0.29
   4 -12  -3    0.37    0.17
  -4  12   3    0.11    0.28
   3 -12  -3    2.30    0.27
  -3  12   3    1.90    0.32
   2 -12  -3    0.32    0.15
  -2  12   3    0.32    0.20
   1 -12  -3    0.36    0.15
  -1  12   3    0.24    0.17
   0 -12  -3    0.11    0.14
   0  12   3   -0.06    0.15
  -1 -12  -3    0.96    0.18
   1  12   3    1.02    0.21
  -2 -12  -3   13.44    1.19
   2  12   3   14.71    1.20
  -3 -12  -3    1.20    0.19
   3  12   3    0.60    0.19
   3  12   3    1.46    0.21
  -4 -12  -3    5.70    0.53
   4  12   3    5.66    0.54
  -5 -12  -3    0.08    0.18
   5  12   3    0.32    0.23
  -6 -12  -3    0.19    0.23
   6  12   3    0.55    0.24
   7  12   3    0.62    0.28
   8  12   3    0.14    0.33
   8 -13  -3    0.14    0.31
  -8  13   3   -0.14    0.39
   7 -13  -3    0.22    0.26
  -7  13   3   -0.13    0.37
   6 -13  -3    0.92    0.25
  -6  13   3    0.74    0.37
   5 -13  -3   -0.05    0.19
  -5  13   3   -0.01    0.32
   4 -13  -3    0.58    0.19
  -4  13   3    0.60    0.32
   3 -13  -3    0.99    0.17
  -3  13   3    0.61    0.27
   2 -13  -3    0.42    0.17
  -2  13   3    0.55    0.23
   1 -13  -3    4.18    0.44
  -1  13   3    4.89    0.47
   0 -13  -3    0.02    0.15
   0  13   3    0.14    0.18
  -1 -13  -3   15.35    1.31
   1  13   3   15.65    1.32
  -2 -13  -3    0.17    0.16
   2  13   3    0.21    0.20
  -3 -13  -3    0.57    0.19
   3  13   3    0.86    0.22
  -4 -13  -3    2.65    0.31
   4  13   3    2.52    0.32
  -5 -13  -3    0.35    0.21
   5  13   3    0.58    0.23
  -6 -13  -3    0.44    0.40
   6  13   3   -0.12    0.24
   7  13   3    0.49    0.30
   8  13   3    0.12    0.39
   7 -14  -3    0.31    0.30
  -7  14   3    0.25    0.44
   6 -14  -3    0.08    0.24
  -6  14   3    0.25    0.39
   5 -14  -3    3.29    0.37
  -5  14   3    2.31    0.49
   4 -14  -3    1.92    0.28
  -4  14   3    1.52    0.39
   3 -14  -3    0.33    0.19
  -3  14   3    0.21    0.26
   2 -14  -3    3.37    0.36
  -2  14   3    3.21    0.41
   1 -14  -3    2.14    0.30
  -1  14   3    3.30    0.35
   0 -14  -3    0.23    0.17
   0  14   3    0.06    0.19
  -1 -14  -3    7.31    0.69
   1  14   3    8.14    0.71
  -2 -14  -3   -0.09    0.19
   2  14   3   -0.02    0.19
  -3 -14  -3   -0.13    0.17
  -4 -14  -3    0.39    0.20
  -5 -14  -3    1.41    0.27
   6  14   3    0.35    0.28
   7  14   3    0.70    0.38
   6 -15  -3    0.69    0.30
  -6  15   3    2.39    0.51
   5 -15  -3    0.07    0.23
  -5  15   3    0.12    0.31
   4 -15  -3    0.15    0.22
  -4  15   3   -0.10    0.36
   3 -15  -3    0.39    0.21
  -3  15   3    0.26    0.31
   2 -15  -3    2.33    0.32
  -2  15   3    2.68    0.38
   1 -15  -3    3.10    0.34
  -1  15   3    2.44    0.36
   0 -15  -3    0.08    0.19
   0  15   3   -0.09    0.21
  -1 -15  -3   -0.09    0.18
   1  15   3   -0.06    0.21
  -2 -15  -3    6.79    0.67
   2  15   3    7.68    0.69
  -3 -15  -3    0.04    0.23
  -4 -15  -3    1.14    0.25
  -5 -15  -3   -0.10    0.25
   5 -16  -3   -0.03    0.28
  -5  16   3    0.70    0.48
   4 -16  -3   -0.66    0.24
  -4  16   3    0.14    0.41
   3 -16  -3    0.04    0.22
  -3  16   3    0.82    0.36
   2 -16  -3    1.46    0.28
  -2  16   3    1.40    0.35
   1 -16  -3   -0.07    0.20
  -1  16   3    0.14    0.25
   0 -16  -3    0.15    0.20
   0  16   3    0.10    0.24
  -1 -16  -3    0.06    0.21
   1  16   3   -0.11    0.23
  -2 -16  -3   -0.15    0.22
   2  16   3   -0.02    0.28
  -3 -16  -3    0.30    0.24
  -4 -16  -3   -0.03    0.24
   4 -17  -3    0.47    0.27
  -4  17   3    0.40    0.46
   3 -17  -3    0.02    0.29
  -3  17   3    0.49    0.40
   2 -17  -3    0.38    0.25
  -2  17   3    0.27    0.35
   1 -17  -3    0.90    0.26
  -1  17   3    0.64    0.32
   0 -17  -3    0.19    0.24
   0  17   3    0.12    0.28
  -1 -17  -3    2.11    0.31
   1  17   3    1.58    0.34
  -2 -17  -3   -0.04    0.24
  -3 -17  -3   -0.03    0.27
  -4 -17  -3    0.33    0.30
  -3  18   3    0.53    0.56
   2 -18  -3    0.74    0.29
  -2  18   3    0.52    0.40
   1 -18  -3    0.86    0.29
  -1  18   3    0.69    0.39
   0 -18  -3    0.05    0.28
   0  18   3    0.22    0.35
  -1 -18  -3    0.31    0.28
   1  18   3    0.37    0.38
  -2 -18  -3    0.08    0.29
  -3 -18  -3    0.05    0.31
   3  18  -4    0.57    0.38
   2  18  -4   -0.01    0.35
   1  18  -4    0.28    0.33
   0  18  -4    0.45    0.34
  -1  18  -4   -0.22    0.32
   1 -18   4    0.35    0.29
  -2  18  -4   -0.19    0.37
   2 -18   4    0.22    0.31
   3 -18   4    0.28    0.30
   4  17  -4    2.28    0.44
   3  17  -4    0.67    0.33
   2  17  -4    0.16    0.30
   1  17  -4    0.15    0.29
   0  17  -4    0.33    0.29
   0 -17   4    0.20    0.26
  -1  17  -4    0.31    0.29
   1 -17   4    0.12    0.26
  -2  17  -4    0.22    0.29
   2 -17   4    0.65    0.25
  -3  17  -4    1.27    0.37
   3 -17   4    1.53    0.30
  -4  17  -4    4.72    0.55
   4 -17   4    2.95    0.46
  -5 -16   4    0.50    0.34
  -4 -16   4   -0.01    0.29
   3  16  -4    0.33    0.29
   2  16  -4    0.07    0.26
   1  16  -4   -0.01    0.25
  -1 -16   4   -0.08    0.25
   0  16  -4    0.11    0.25
   0 -16   4    0.03    0.19
  -1  16  -4    0.49    0.27
   1 -16   4    0.22    0.23
  -2  16  -4    0.14    0.26
   2 -16   4    0.77    0.22
  -3  16  -4    0.77    0.24
   3 -16   4    0.53    0.24
  -4  16  -4    0.01    0.31
   4 -16   4    0.09    0.25
  -5  16  -4    0.22    0.39
   5 -16   4    0.23    0.29
  -5 -15   4    0.31    0.28
  -4 -15   4    0.30    0.26
  -3 -15   4    1.85    0.31
   2  15  -4    0.53    0.25
   1  15  -4    1.63    0.29
  -1 -15   4    1.24    0.25
   0  15  -4    0.35    0.23
   0 -15   4   -0.21    0.19
  -1  15  -4    0.15    0.17
   1 -15   4    0.20    0.19
  -2  15  -4    1.86    0.32
   2 -15   4    2.16    0.28
  -3  15  -4    0.03    0.23
   3 -15   4    0.09    0.23
  -4  15  -4    0.38    0.28
   4 -15   4    0.20    0.23
  -5  15  -4    0.13    0.33
   5 -15   4    0.02    0.25
  -6  15  -4    0.16    0.42
   6 -15   4   -0.21    0.27
  -7  15  -4   -0.37    0.67
   7  14  -4   -0.18    0.35
   6  14  -4    0.16    0.30
   5  14  -4    0.04    0.24
  -5 -14   4    0.00    0.27
  -4 -14   4    1.19    0.30
  -3 -14   4    0.00    0.20
  -2 -14   4    0.03    0.19
   1  14  -4    0.00    0.20
  -1 -14   4   -0.08    0.15
   0  14  -4    0.02    0.20
   0 -14   4    0.05    0.18
  -1  14  -4    0.79    0.23
   1 -14   4    0.79    0.21
  -2  14  -4    0.30    0.21
   2 -14   4   -0.06    0.16
  -3  14  -4    0.31    0.23
   3 -14   4    0.30    0.19
  -4  14  -4    2.83    0.36
   4 -14   4    2.09    0.32
  -5  14  -4    0.14    0.30
   5 -14   4    0.35    0.23
  -6  14  -4    0.03    0.38
   6 -14   4    0.02    0.25
  -7  14  -4   -0.37    0.52
   7 -14   4    0.33    0.30
   8  13  -4    0.16    0.38
   7  13  -4   -0.16    0.31
   6  13  -4    0.37    0.29
  -6 -13   4    0.25    0.28
   5  13  -4    0.25    0.25
  -5 -13   4    0.08    0.25
   4  13  -4    0.08    0.22
  -4 -13   4    0.49    0.22
  -3 -13   4    0.36    0.20
  -2 -13   4    0.28    0.19
  -2 -13   4    0.35    0.16
  -1 -13   4    1.91    0.23
  -1 -13   4    1.75    0.27
   0  13  -4    0.07    0.18
   0 -13   4    0.23    0.14
  -1  13  -4    1.73    0.24
   1 -13   4    1.61    0.23
  -2  13  -4    4.65    0.47
   2 -13   4    4.47    0.44
  -3  13  -4    1.04    0.23
   3 -13   4    0.57    0.19
  -4  13  -4    0.26    0.22
   4 -13   4    0.50    0.19
  -5  13  -4    0.06    0.25
   5 -13   4    0.01    0.20
  -6  13  -4   -0.08    0.33
   6 -13   4   -0.20    0.22
  -7  13  -4    1.51    0.47
   7 -13   4    1.68    0.33
  -8  13  -4    0.14    0.47
   8 -13   4    0.64    0.37
   8  12  -4    0.40    0.34
   7  12  -4    1.42    0.35
   6  12  -4   -0.02    0.25
  -6 -12   4   -0.15    0.25
   5  12  -4    1.88    0.30
  -5 -12   4    2.33    0.31
   4  12  -4    1.41    0.26
  -4 -12   4    1.42    0.25
   3  12  -4    0.31    0.17
  -3 -12   4    0.37    0.21
   2  12  -4    5.99    0.54
  -2 -12   4    5.62    0.53
  -2 -12   4    5.90    0.55
  -1 -12   4    1.80    0.27
  -1 -12   4    2.36    0.25
   0  12  -4    0.07    0.17
   0 -12   4    0.08    0.13
  -1  12  -4    3.74    0.39
   1 -12   4    3.56    0.36
  -2  12  -4    2.65    0.30
   2 -12   4    1.91    0.26
  -3  12  -4    0.05    0.18
   3 -12   4    0.12    0.15
  -4  12  -4    0.27    0.20
   4 -12   4    0.33    0.18
  -5  12  -4    0.31    0.25
   5 -12   4    0.19    0.19
  -6  12  -4    0.14    0.30
   6 -12   4   -0.01    0.20
  -7  12  -4    0.12    0.38
   7 -12   4   -0.04    0.24
  -8  12  -4    0.77    0.49
   8 -12   4    1.17    0.33
  -9  12  -4    0.14    0.54
   8  11  -4    0.17    0.30
   7  11  -4    0.16    0.24
   6  11  -4   -0.14    0.20
  -6 -11   4   -0.13    0.23
   5  11  -4    0.05    0.21
  -5 -11   4   -0.07    0.18
   4  11  -4    0.38    0.18
  -4 -11   4    0.16    0.17
   3  11  -4    0.01    0.14
  -3 -11   4    0.01    0.15
  -3 -11   4   -0.01    0.12
   2  11  -4    3.98    0.40
  -2 -11   4    4.44    0.41
  -2 -11   4    3.91    0.38
   1  11  -4    1.34    0.18
  -1 -11   4    1.48    0.22
  -1 -11   4    1.39    0.19
   0 -11   4   19.03    1.52
   0 -11   4   17.34    1.51
  -1  11  -4    0.87    0.19
   1 -11   4    1.06    0.18
  -2  11  -4    3.86    0.40
   2 -11   4    4.02    0.38
  -3  11  -4   -0.08    0.15
   3 -11   4    0.06    0.14
  -4  11  -4    4.91    0.50
   4 -11   4    5.32    0.49
  -5  11  -4    0.90    0.25
   5 -11   4    1.10    0.21
  -6  11  -4    0.03    0.28
   6 -11   4    0.43    0.20
  -7  11  -4    0.60    0.36
   7 -11   4    0.47    0.23
  -8  11  -4   -0.08    0.40
   8 -11   4    0.35    0.27
   9 -11   4   -0.08    0.30
   9  10  -4   -0.27    0.33
   8  10  -4    0.18    0.27
   7  10  -4    0.76    0.25
  -7 -10   4    1.04    0.27
   6  10  -4    0.05    0.19
  -6 -10   4    0.07    0.21
   5  10  -4   -0.11    0.17
  -5 -10   4    0.08    0.16
   4  10  -4   -0.25    0.17
  -4 -10   4   -0.16    0.14
   3  10  -4    0.28    0.16
  -3 -10   4    0.83    0.13
  -3 -10   4    0.33    0.15
   2  10  -4    0.21    0.13
  -2 -10   4    0.22    0.14
  -2 -10   4    0.11    0.11
   1  10  -4    3.05    0.32
  -1 -10   4    4.42    0.35
  -1 -10   4    3.11    0.32
   0  10  -4    3.97    0.36
   0 -10   4    3.63    0.37
   0 -10   4    4.30    0.39
  -1  10  -4    9.09    0.76
   1 -10   4    8.47    0.75
  -2  10  -4    5.64    0.49
   2 -10   4    5.23    0.49
  -3  10  -4    0.15    0.15
   3 -10   4   -0.13    0.12
  -4  10  -4    0.06    0.16
   4 -10   4    0.22    0.15
  -5  10  -4    1.53    0.26
   5 -10   4    0.73    0.20
  -6  10  -4    0.33    0.27
   6 -10   4    0.33    0.19
  -7  10  -4    1.73    0.39
   7 -10   4    2.26    0.30
  -8  10  -4   -0.06    0.32
   8 -10   4   -0.26    0.24
   9 -10   4    0.07    0.33
   9   9  -4    1.33    0.35
   8   9  -4   -0.20    0.22
   7   9  -4    0.32    0.21
  -7  -9   4    0.27    0.19
   6   9  -4    0.05    0.19
  -6  -9   4    0.11    0.16
   5   9  -4    0.67    0.19
  -5  -9   4    1.10    0.19
   4   9  -4    2.85    0.32
  -4  -9   4    3.26    0.33
   3   9  -4    2.28    0.25
  -3  -9   4    2.24    0.26
  -3  -9   4    2.26    0.23
   2   9  -4    1.96    0.22
  -2  -9   4    1.88    0.20
  -2  -9   4    1.93    0.23
   1   9  -4    4.98    0.44
  -1  -9   4    5.19    0.44
  -1  -9   4    4.88    0.46
   0   9  -4    7.24    0.63
   0  -9   4    7.49    0.64
   0  -9   4    7.65    0.64
  -1   9  -4    2.62    0.24
  -1   9  -4    2.08    0.26
   1  -9   4    2.68    0.25
  -2   9  -4    4.83    0.46
   2  -9   4    5.14    0.45
  -3   9  -4   16.53    1.39
   3  -9   4   16.42    1.38
  -4   9  -4    4.13    0.37
   4  -9   4    3.10    0.35
  -5   9  -4    0.07    0.19
   5  -9   4   -0.01    0.15
  -6   9  -4    0.68    0.30
   6  -9   4    0.54    0.18
  -7   9  -4    0.61    0.31
   7  -9   4    0.58    0.21
  -8   9  -4   -0.36    0.28
   8  -9   4   -0.11    0.22
   9  -9   4    0.10    0.27
  10  -9   4    0.41    0.38
  10   8  -4    0.22    0.35
   9   8  -4    0.10    0.26
   8   8  -4    0.52    0.23
   7   8  -4    2.27    0.31
  -7  -8   4    2.66    0.31
   6   8  -4    0.71    0.20
  -6  -8   4    0.78    0.18
   5   8  -4    9.83    0.82
  -5  -8   4    9.14    0.82
   4   8  -4   -0.14    0.12
  -4  -8   4    0.02    0.09
  -4  -8   4    0.09    0.12
   3   8  -4    0.28    0.11
  -3  -8   4    0.50    0.10
  -3  -8   4    0.40    0.13
   2   8  -4   12.67    1.08
  -2  -8   4   12.51    1.09
  -2  -8   4   13.39    1.07
   1   8  -4   12.28    1.05
  -1  -8   4   12.60    1.04
  -1  -8   4   12.88    1.06
   0   8  -4   -0.01    0.07
   0  -8   4    0.05    0.10
   0  -8   4   -0.01    0.09
  -1   8  -4   14.12    1.27
  -1   8  -4   15.58    1.26
   1  -8   4   15.82    1.27
  -2   8  -4    0.12    0.11
  -2   8  -4    0.16    0.07
   2  -8   4    0.11    0.10
  -3   8  -4    0.06    0.12
   3  -8   4    0.11    0.11
  -4   8  -4    0.07    0.13
   4  -8   4    0.07    0.13
  -5   8  -4    3.39    0.39
   5  -8   4    3.48    0.35
  -6   8  -4    0.49    0.28
   6  -8   4    0.65    0.18
  -7   8  -4   -0.02    0.25
   7  -8   4   -0.14    0.17
  -8   8  -4    3.81    0.43
   8  -8   4    2.91    0.38
   9  -8   4    0.69    0.27
  10  -8   4    0.03    0.31
  10   7  -4    0.11    0.33
   9   7  -4    0.13    0.25
   8   7  -4    0.29    0.20
  -8  -7   4    0.32    0.21
   7   7  -4    0.37    0.19
  -7  -7   4   -0.15    0.16
   6   7  -4    0.27    0.17
  -6  -7   4    0.24    0.17
   5   7  -4    4.05    0.37
  -5  -7   4    3.31    0.35
   4   7  -4    0.04    0.11
  -4  -7   4    0.06    0.11
  -4  -7   4    0.13    0.08
   3   7  -4    2.00    0.20
  -3  -7   4    1.64    0.17
  -3  -7   4    1.60    0.20
   2   7  -4    1.08    0.14
  -2  -7   4    0.80    0.11
  -2  -7   4    0.92    0.14
   1   7  -4   22.22    1.85
  -1  -7   4   21.46    1.85
  -1  -7   4   23.36    1.84
   0   7  -4   43.94    3.57
   0  -7   4   43.39    3.57
   0  -7   4   43.19    3.58
  -1   7  -4    6.15    0.54
   1  -7   4    6.87    0.56
   1  -7   4    6.51    0.55
  -2   7  -4    7.23    0.66
  -2   7  -4    8.11    0.65
   2  -7   4    7.64    0.66
  -3   7  -4    9.92    0.88
   3  -7   4   10.46    0.86
   3  -7   4   10.55    0.87
  -4   7  -4    0.00    0.12
   4  -7   4    0.00    0.11
   4  -7   4   -0.11    0.11
  -5   7  -4    0.20    0.17
   5  -7   4   -0.06    0.13
  -6   7  -4    3.64    0.44
   6  -7   4    3.68    0.37
  -7   7  -4    5.74    0.54
   7  -7   4    4.49    0.49
  -8   7  -4    0.17    0.25
   8  -7   4    0.34    0.20
   9  -7   4   -0.10    0.23
  10  -7   4    0.29    0.30
  10   6  -4    0.54    0.31
   9   6  -4   -0.12    0.23
   8   6  -4    0.45    0.22
  -8  -6   4    0.79    0.22
   7   6  -4    9.30    0.86
  -7  -6   4   10.09    0.85
   6   6  -4    0.20    0.15
  -6  -6   4    0.21    0.13
   5   6  -4    1.81    0.23
  -5  -6   4    1.93    0.22
   4   6  -4    0.10    0.11
  -4  -6   4    0.33    0.11
  -4  -6   4    0.45    0.08
   3   6  -4   73.68    6.15
  -3  -6   4   73.84    6.15
  -3  -6   4   77.29    6.14
   2   6  -4    4.19    0.39
  -2  -6   4    4.64    0.40
  -2  -6   4    4.42    0.38
   1   6  -4  102.94    8.66
  -1  -6   4  109.07    8.66
  -1  -6   4  105.62    8.67
   0   6  -4   10.88    0.89
   0  -6   4   10.20    0.90
   0  -6   4   11.12    0.89
  -1   6  -4   84.53    6.84
   1  -6   4   83.48    6.85
   1  -6   4   82.90    6.85
  -2   6  -4   20.75    1.77
   2  -6   4   21.85    1.77
   2  -6   4   21.57    1.76
  -3   6  -4   79.38    6.64
   3  -6   4   81.29    6.64
   3  -6   4   82.28    6.63
  -4   6  -4   16.83    1.42
   4  -6   4   16.99    1.40
   4  -6   4   16.91    1.41
  -5   6  -4    5.67    0.61
   5  -6   4    7.10    0.58
   5  -6   4    7.11    0.60
  -6   6  -4    0.70    0.22
   6  -6   4    0.48    0.16
  -7   6  -4    7.02    0.66
   7  -6   4    7.09    0.64
   8  -6   4    0.16    0.20
   9  -6   4   -0.20    0.22
  10  -6   4   -0.17    0.27
  11  -6   4   -0.01    0.38
  10   5  -4    0.16    0.30
   9   5  -4   -0.07    0.23
   8   5  -4    1.27    0.25
  -8  -5   4    1.35    0.25
   7   5  -4    8.35    0.77
  -7  -5   4    8.86    0.76
   6   5  -4    0.51    0.16
  -6  -5   4    0.44    0.14
   5   5  -4   -0.07    0.09
  -5  -5   4   -0.04    0.10
  -5  -5   4   -0.06    0.07
   4   5  -4    1.21    0.15
  -4  -5   4    1.16    0.12
  -4  -5   4    0.77    0.14
   3   5  -4   39.54    3.33
  -3  -5   4   40.05    3.33
  -3  -5   4   41.79    3.32
   2   5  -4    6.59    0.58
  -2  -5   4    7.42    0.57
  -2  -5   4    6.41    0.59
   1   5  -4   55.92    4.65
  -1  -5   4   56.86    4.65
  -1  -5   4   57.67    4.66
   0   5  -4    2.88    0.25
   0  -5   4    2.80    0.25
   0  -5   4    2.64    0.25
  -1   5  -4   58.71    4.76
   1  -5   4   57.83    4.76
   1  -5   4   57.80    4.76
  -2   5  -4    0.86    0.13
   2  -5   4    1.08    0.12
   2  -5   4    1.08    0.11
  -3   5  -4   38.78    3.15
   3  -5   4   39.15    3.14
   3  -5   4   36.79    3.15
  -4   5  -4   15.74    1.30
   4  -5   4   15.53    1.29
   4  -5   4   15.40    1.30
  -5   5  -4    1.44    0.26
   5  -5   4    2.23    0.22
   5  -5   4    2.70    0.25
  -6   5  -4    1.14    0.25
   6  -5   4    2.06    0.22
   6  -5   4    1.41    0.19
  -7   5  -4   13.58    1.02
   7  -5   4   10.18    1.00
   8  -5   4    0.20    0.18
   9  -5   4    1.64    0.27
  10  -5   4    0.21    0.25
 -11   5  -4    0.27    0.34
  11   4  -4    0.24    0.36
  10   4  -4   -0.13    0.27
   9   4  -4    0.16    0.21
   8   4  -4    2.89    0.35
  -8  -4   4    3.17    0.35
   7   4  -4    2.68    0.33
  -7  -4   4    3.10    0.32
   6   4  -4    1.76    0.21
  -6  -4   4    1.30    0.19
   5   4  -4    4.21    0.41
  -5  -4   4    4.30    0.40
  -5  -4   4    4.69    0.38
   4   4  -4   29.80    2.54
  -4  -4   4   31.09    2.52
  -4  -4   4   31.36    2.54
   3   4  -4    1.44    0.19
  -3  -4   4    1.99    0.19
  -3  -4   4    2.04    0.17
   2   4  -4  113.43    9.22
  -2  -4   4  111.72    9.22
  -2  -4   4  112.97    9.21
   1   4  -4   28.25    2.36
  -1  -4   4   29.75    2.36
  -1  -4   4   28.18    2.37
   0   4  -4   33.86    2.78
   0  -4   4   33.93    2.78
   0  -4   4   33.94    2.78
   1  -4   4   24.35    1.94
   1  -4   4   23.74    1.94
   1  -4   4   22.81    1.94
  -2   4  -4   47.25    3.91
   2  -4   4   48.64    3.90
   2  -4   4   47.01    3.91
  -3   4  -4    0.33    0.08
   3  -4   4    0.01    0.06
   3  -4   4   -0.02    0.07
  -4   4  -4    6.81    0.59
   4  -4   4    7.07    0.58
   4  -4   4    6.53    0.59
  -5   4  -4   17.66    1.65
   5  -4   4   20.95    1.64
   5  -4   4   20.38    1.65
  -6   4  -4    5.94    0.59
   6  -4   4    7.26    0.57
   6  -4   4    6.20    0.56
  -7   4  -4    3.10    0.30
   7  -4   4    2.13    0.29
   7  -4   4    2.50    0.28
   8  -4   4    0.47    0.30
   8  -4   4    0.50    0.21
   9  -4   4    0.34    0.21
 -10   4  -4    0.15    0.27
 -11   4  -4    0.29    0.32
  11   3  -4    0.02    0.33
  10   3  -4    0.62    0.28
   9   3  -4    0.30    0.21
  -9  -3   4   -0.01    0.21
   8   3  -4    1.83    0.26
  -8  -3   4    1.85    0.26
   7   3  -4   17.25    1.35
  -7  -3   4   14.81    1.34
   6   3  -4    0.45    0.14
  -6  -3   4    0.33    0.12
  -6  -3   4    0.18    0.09
   5   3  -4    1.60    0.21
  -5  -3   4    1.98    0.19
  -5  -3   4    2.19    0.22
   4   3  -4   29.17    2.46
  -4  -3   4   30.64    2.45
  -4  -3   4   29.50    2.46
   3   3  -4    0.06    0.05
  -3  -3   4   -0.01    0.03
  -3  -3   4    0.04    0.07
   2   3  -4    8.17    0.72
  -2  -3   4    8.16    0.72
  -2  -3   4    9.00    0.71
   1   3  -4   93.20    7.94
  -1  -3   4   98.04    7.94
  -1  -3   4   99.80    7.93
   0   3  -4  124.80   10.11
   0  -3   4  123.26   10.11
   0  -3   4  122.88   10.11
   1  -3   4   39.21    3.24
   1  -3   4   39.96    3.24
   1  -3   4   39.33    3.23
  -2   3  -4    2.68    0.25
   2  -3   4    2.96    0.25
   2  -3   4    2.84    0.25
  -3   3  -4   29.75    2.39
   3  -3   4   28.82    2.39
   3  -3   4   28.58    2.39
  -4   3  -4   14.50    1.29
   4  -3   4   14.91    1.28
   4  -3   4   16.56    1.28
  -5   3  -4   16.55    1.44
   5  -3   4   17.26    1.43
   5  -3   4   17.94    1.43
  -6   3  -4    0.02    0.12
   6  -3   4   -0.10    0.12
   6  -3   4   -0.06    0.11
  -7   3  -4    5.97    0.51
   7  -3   4    4.92    0.50
   7  -3   4    5.55    0.51
   8  -3   4   -0.10    0.17
   8  -3   4   -0.12    0.14
  -9   3  -4   -0.06    0.20
   9  -3   4    0.31    0.21
 -10   3  -4   -0.04    0.23
 -11   3  -4    0.34    0.32
  11   2  -4    0.48    0.34
  10   2  -4   -0.14    0.24
   9   2  -4    0.24    0.20
  -9  -2   4    0.23    0.19
   8   2  -4    0.28    0.18
  -8  -2   4    0.09    0.15
   7   2  -4   19.44    1.70
  -7  -2   4   21.14    1.70
   6   2  -4   20.47    1.74
  -6  -2   4   21.00    1.72
  -6  -2   4   21.09    1.73
   5   2  -4    0.11    0.08
  -5  -2   4    0.21    0.07
  -5  -2   4    0.26    0.10
   4   2  -4   12.99    1.08
  -4  -2   4   12.37    1.07
  -4  -2   4   13.20    1.06
   3   2  -4    6.34    0.54
  -3  -2   4    6.47    0.53
  -3  -2   4    6.16    0.54
   2   2  -4   23.05    1.88
  -2  -2   4   22.43    1.88
  -2  -2   4   23.04    1.87
   1   2  -4  128.06   10.48
  -1  -2   4  130.66   10.47
  -1  -2   4  125.71   10.48
   0  -2   4    9.69    0.79
   0  -2   4    9.60    0.78
   0  -2   4    9.24    0.79
   1  -2   4  257.76   21.11
   1  -2   4  262.61   21.11
   1  -2   4  254.64   21.11
  -2   2  -4   81.32    6.64
   2  -2   4   80.64    6.64
   2  -2   4   81.50    6.64
  -3   2  -4    3.70    0.31
   3  -2   4    3.53    0.31
   3  -2   4    3.25    0.31
  -4   2  -4   65.76    5.56
   4  -2   4   65.94    5.56
   4  -2   4   71.88    5.56
  -5   2  -4    0.87    0.13
   5  -2   4    0.70    0.13
   5  -2   4    0.89    0.13
  -6   2  -4   12.78    1.03
   6  -2   4   12.37    1.04
   6  -2   4   11.55    1.03
   7  -2   4    4.02    0.39
   7  -2   4    3.94    0.40
  -8   2  -4   -0.01    0.19
   8  -2   4    0.18    0.18
  -9   2  -4    1.06    0.22
   9  -2   4    0.72    0.23
 -10   2  -4    0.11    0.24
  10  -2   4    0.37    0.30
 -11   2  -4    0.12    0.35
  11   1  -4   -0.29    0.31
  10   1  -4    0.12    0.24
   9   1  -4   -0.02    0.19
  -9  -1   4   -0.11    0.18
   8   1  -4    3.58    0.41
  -8  -1   4    4.17    0.42
   7   1  -4    2.45    0.26
  -7  -1   4    2.04    0.23
  -7  -1   4    2.01    0.25
   6   1  -4    1.75    0.20
  -6  -1   4    1.49    0.16
  -6  -1   4    1.28    0.18
   5   1  -4    0.02    0.09
  -5  -1   4    0.05    0.08
  -5  -1   4   -0.03    0.07
   4   1  -4    3.86    0.33
   4   1  -4    3.84    0.34
  -4  -1   4    3.88    0.34
   3   1  -4    2.83    0.25
   3   1  -4    2.69    0.23
  -3  -1   4    2.69    0.25
   2   1  -4    0.03    0.05
   2   1  -4    0.31    0.03
  -2  -1   4    0.02    0.05
   1   1  -4    0.52    0.07
   1   1  -4    0.46    0.04
  -1  -1   4    0.51    0.06
   0   1  -4  818.93   65.42
   0  -1   4  794.33   65.43
   0  -1   4  788.98   65.41
   1  -1   4    0.82    0.09
   1  -1   4    0.82    0.08
   1  -1   4    0.79    0.08
  -2   1  -4   -0.02    0.04
   2  -1   4   -0.02    0.05
   2  -1   4    0.07    0.05
  -3   1  -4    5.57    0.54
   3  -1   4    6.95    0.55
   3  -1   4    7.04    0.55
  -4   1  -4    5.71    0.47
   4  -1   4    4.79    0.47
   4  -1   4    6.02    0.48
  -5   1  -4    0.52    0.09
   5  -1   4    0.41    0.09
   5  -1   4    0.33    0.10
  -6   1  -4    4.07    0.42
  -6   1  -4    4.91    0.41
   6  -1   4    4.38    0.41
  -7   1  -4    1.13    0.19
   7  -1   4    1.30    0.20
  -8   1  -4    2.15    0.25
   8  -1   4    1.42    0.23
  -9   1  -4    0.04    0.21
   9  -1   4    0.14    0.18
 -10   1  -4    0.39    0.27
  10  -1   4    0.14    0.25
 -11   1  -4   -0.07    0.33
  11   0  -4    0.14    0.34
  10   0  -4    0.15    0.27
   9   0  -4    0.47    0.20
  -9   0   4    0.74    0.23
   8   0  -4    1.72    0.25
  -8   0   4    1.32    0.22
   7   0  -4    7.53    0.65
   7   0  -4    7.07    0.63
  -7   0   4    7.51    0.65
   6   0  -4    0.10    0.10
   6   0  -4    0.17    0.13
  -6   0   4    0.02    0.11
   5   0  -4    0.50    0.09
   5   0  -4    0.34    0.10
  -5   0   4    0.26    0.10
   4   0  -4   -0.01    0.07
   4   0  -4    0.05    0.06
  -4   0   4   -0.07    0.07
   3   0  -4    0.18    0.06
   3   0  -4    0.16    0.05
  -3   0   4    0.10    0.05
   2   0  -4   15.75    1.29
   2   0  -4   16.12    1.29
  -2   0   4   15.25    1.29
   1   0  -4   21.14    1.77
   1   0  -4   21.63    1.76
  -1   0   4   21.72    1.77
   0   0  -4  335.29   27.09
   0   0   4  327.26   27.10
   0   0   4  332.39   27.09
  -1   0  -4  112.46    8.92
   1   0   4  111.73    8.93
   1   0   4  103.73    8.92
  -2   0  -4    9.76    0.78
  -2   0  -4    9.10    0.78
   2   0   4    9.23    0.78
  -3   0  -4    0.10    0.04
  -3   0  -4    0.10    0.06
   3   0   4   -0.08    0.06
  -4   0  -4    0.23    0.08
  -4   0  -4    0.10    0.05
   4   0   4    0.14    0.08
  -5   0  -4    0.15    0.10
  -5   0  -4    0.44    0.08
   5   0   4    0.32    0.10
  -6   0  -4    0.37    0.10
  -6   0  -4    0.23    0.12
   6   0   4    0.14    0.12
  -7   0  -4    9.77    0.82
   7   0   4    9.35    0.83
  -8   0  -4    1.22    0.21
   8   0   4    1.16    0.21
  -9   0  -4   -0.09    0.19
   9   0   4    0.34    0.19
 -10   0  -4   -0.09    0.22
  10   0   4   -0.16    0.21
 -11   0  -4   -0.13    0.33
  11   0   4    0.30    0.29
  10  -1  -4   -0.23    0.26
 -10   1   4    0.00    0.23
   9  -1  -4    0.30    0.19
  -9   1   4    0.30    0.20
   8  -1  -4    0.40    0.17
  -8   1   4    0.16    0.17
   7  -1  -4    3.98    0.42
   7  -1  -4    4.89    0.44
  -7   1   4    5.10    0.44
   6  -1  -4   -0.03    0.10
   6  -1  -4    0.02    0.12
  -6   1   4   -0.08    0.11
   5  -1  -4    0.40    0.11
   5  -1  -4    0.26    0.09
  -5   1   4    0.40    0.11
   4  -1  -4    0.60    0.10
   4  -1  -4    0.66    0.09
  -4   1   4    0.51    0.10
   3  -1  -4   15.35    1.22
   3  -1  -4   14.61    1.23
  -3   1   4   14.51    1.23
   2  -1  -4  102.19    8.07
   2  -1  -4   97.91    8.08
  -2   1   4   96.12    8.08
   1  -1  -4    7.16    0.57
  -1   1   4    6.44    0.57
  -1   1   4    6.94    0.57
   0   1   4  130.24   10.81
   0   1   4  134.27   10.81
  -1  -1  -4    2.02    0.19
   1   1   4    1.76    0.19
   1   1   4    2.29    0.18
  -2  -1  -4  155.24   12.25
   2   1   4  144.48   12.25
  -3  -1  -4    3.82    0.31
  -3  -1  -4    3.91    0.32
   3   1   4    3.08    0.32
  -4  -1  -4   14.21    1.16
  -4  -1  -4   14.20    1.15
   4   1   4   13.18    1.16
  -5  -1  -4    2.35    0.24
  -5  -1  -4    2.28    0.22
   5   1   4    2.43    0.24
  -6  -1  -4    0.05    0.11
   6   1   4    0.08    0.11
  -7  -1  -4    3.05    0.31
   7   1   4    2.96    0.32
  -8  -1  -4    0.35    0.16
   8   1   4   -0.05    0.16
  -9  -1  -4    0.67    0.22
   9   1   4   -0.06    0.18
 -10  -1  -4    0.47    0.23
  10   1   4    0.12    0.22
  11   1   4   -0.02    0.28
 -10   2   4    0.22    0.27
   9  -2  -4    0.37    0.20
  -9   2   4    0.64    0.24
   8  -2  -4    0.30    0.18
   8  -2  -4   -0.13    0.15
  -8   2   4    0.09    0.17
   7  -2  -4    2.28    0.26
   7  -2  -4    2.10    0.26
  -7   2   4    3.22    0.30
   6  -2  -4   16.26    1.35
   6  -2  -4   16.50    1.35
  -6   2   4   15.88    1.36
   5  -2  -4    5.24    0.48
   5  -2  -4    6.01    0.48
  -5   2   4    5.32    0.49
   4  -2  -4    0.49    0.09
   4  -2  -4    0.48    0.08
  -4   2   4    0.50    0.10
   3  -2  -4    0.08    0.06
   3  -2  -4    0.00    0.05
  -3   2   4    0.09    0.06
   2  -2  -4    4.45    0.35
   2  -2  -4    4.04    0.35
  -2   2   4    3.94    0.36
   1  -2  -4    9.15    0.77
  -1   2   4    9.29    0.77
  -1   2   4    9.58    0.77
   0  -2  -4    9.77    0.85
   0   2   4   10.57    0.85
   0   2   4   10.39    0.85
  -1  -2  -4    5.90    0.47
   1   2   4    5.42    0.46
   1   2   4    5.53    0.47
  -2  -2  -4   46.48    3.86
   2   2   4   47.81    3.86
  -3  -2  -4    0.50    0.09
  -3  -2  -4    0.62    0.06
   3   2   4    0.44    0.09
  -4  -2  -4    5.31    0.46
  -4  -2  -4    5.31    0.44
   4   2   4    5.22    0.46
  -5  -2  -4    0.00    0.06
  -5  -2  -4    0.26    0.10
   5   2   4   -0.09    0.10
  -6  -2  -4    4.84    0.44
   6   2   4    4.78    0.45
  -7  -2  -4    1.37    0.19
   7   2   4    1.26    0.21
  -8  -2  -4    2.23    0.28
   8   2   4    1.84    0.27
  -9  -2  -4   -0.05    0.21
   9   2   4    0.31    0.20
 -10  -2  -4    1.29    0.30
  10   2   4    0.93    0.26
  11   2   4    0.38    0.30
 -10   3   4   -0.06    0.25
  -9   3   4    0.77    0.23
   8  -3  -4    0.18    0.15
   8  -3  -4    0.21    0.15
  -8   3   4    0.09    0.17
   7  -3  -4    1.81    0.22
   7  -3  -4    1.67    0.23
  -7   3   4    2.05    0.25
   6  -3  -4    2.70    0.31
   6  -3  -4    2.93    0.32
  -6   3   4    4.00    0.33
   5  -3  -4    1.74    0.19
   5  -3  -4    1.89    0.19
  -5   3   4    1.82    0.20
   4  -3  -4  100.60    8.35
   4  -3  -4  104.49    8.35
  -4   3   4  101.23    8.36
   3  -3  -4   11.85    0.99
   3  -3  -4   12.93    1.00
  -3   3   4   11.34    1.00
   2  -3  -4    1.80    0.17
   2  -3  -4    1.67    0.17
  -2   3   4    2.20    0.18
   1  -3  -4  112.51    9.05
  -1   3   4  109.51    9.05
  -1   3   4  110.05    9.05
   0  -3  -4   10.74    0.86
   0   3   4    9.25    0.86
   0   3   4   11.20    0.86
  -1  -3  -4   57.68    4.79
   1   3   4   59.31    4.79
   1   3   4   58.62    4.79
  -2  -3  -4    6.24    0.58
   2   3   4    6.86    0.58
   2   3   4    7.25    0.57
  -3  -3  -4    6.02    0.51
  -3  -3  -4    6.37    0.52
   3   3   4    6.14    0.52
  -4  -3  -4   35.67    2.88
  -4  -3  -4   35.29    2.87
   4   3   4   34.11    2.89
  -5  -3  -4    5.21    0.45
  -5  -3  -4    5.16    0.44
   5   3   4    4.95    0.45
  -6  -3  -4    4.11    0.35
   6   3   4    3.07    0.35
  -7  -3  -4    1.48    0.20
   7   3   4    1.23    0.22
  -8  -3  -4   -0.09    0.18
   8   3   4    0.11    0.18
  -9  -3  -4   -0.10    0.18
   9   3   4    0.27    0.19
 -10  -3  -4    0.50    0.23
  10   3   4    0.49    0.25
  11   3   4    0.78    0.33
 -10   4   4    0.49    0.28
  -9   4   4    3.45    0.41
   8  -4  -4    4.26    0.46
  -8   4   4    5.01    0.48
   7  -4  -4    0.97    0.17
   7  -4  -4    0.71    0.18
  -7   4   4    0.88    0.19
   6  -4  -4    2.59    0.27
   6  -4  -4    2.43    0.27
  -6   4   4    3.23    0.30
   5  -4  -4    4.93    0.48
   5  -4  -4    5.91    0.47
  -5   4   4    5.47    0.49
   4  -4  -4   16.00    1.32
   4  -4  -4   15.67    1.31
  -4   4   4   16.06    1.33
   3  -4  -4    5.44    0.47
   3  -4  -4    5.43    0.46
  -3   4   4    5.51    0.48
   2  -4  -4    4.17    0.36
   2  -4  -4    4.16    0.35
  -2   4   4    4.14    0.37
   1  -4  -4    1.41    0.15
  -1   4   4    1.68    0.14
  -1   4   4    1.52    0.17
   0  -4  -4    9.10    0.79
   0   4   4    9.19    0.79
   0   4   4   10.03    0.79
  -1  -4  -4    5.78    0.53
   1   4   4    6.57    0.53
   1   4   4    6.51    0.53
  -2  -4  -4   -0.03    0.06
   2   4   4    0.06    0.05
   2   4   4    0.03    0.07
  -3  -4  -4    6.37    0.51
  -3  -4  -4    6.03    0.49
   3   4   4    5.06    0.51
  -4  -4  -4    6.64    0.53
  -4  -4  -4    6.08    0.52
   4   4   4    5.93    0.53
  -5  -4  -4    4.83    0.43
   5   4   4    4.82    0.44
  -6  -4  -4    0.89    0.16
   6   4   4    1.10    0.18
  -7  -4  -4   -0.08    0.15
   7   4   4   -0.08    0.16
  -8  -4  -4    0.00    0.16
   8   4   4    0.36    0.19
  -9  -4  -4   -0.16    0.21
   9   4   4   -0.08    0.20
 -10  -4  -4    0.03    0.45
  10   4   4    0.90    0.28
  11   4   4   -0.06    0.35
 -10   5   4    0.42    0.31
   9  -5  -4    0.02    0.23
  -9   5   4    0.45    0.23
   8  -5  -4    0.00    0.18
  -8   5   4   -0.09    0.19
   7  -5  -4    3.52    0.33
  -7   5   4    2.43    0.32
   6  -5  -4    0.24    0.13
   6  -5  -4    0.53    0.12
  -6   5   4    0.65    0.17
   5  -5  -4    0.28    0.09
   5  -5  -4    0.24    0.11
  -5   5   4    0.17    0.13
   4  -5  -4   22.57    1.88
   4  -5  -4   23.02    1.87
  -4   5   4   22.71    1.89
   3  -5  -4   10.49    0.90
   3  -5  -4   11.23    0.89
  -3   5   4   10.12    0.92
   2  -5  -4    0.00    0.07
   2  -5  -4    0.05    0.04
  -2   5   4    0.05    0.11
   1  -5  -4    0.03    0.06
  -1   5   4    0.08    0.04
  -1   5   4    0.20    0.10
   0  -5  -4    2.42    0.22
   0   5   4    2.50    0.22
   0   5   4    2.34    0.23
  -1  -5  -4    7.93    0.67
   1   5   4    8.06    0.66
   1   5   4    7.75    0.66
  -2  -5  -4    0.22    0.07
   2   5   4    0.09    0.08
   2   5   4    0.23    0.06
  -3  -5  -4   17.99    1.52
  -3  -5  -4   19.12    1.51
   3   5   4   17.61    1.52
  -4  -5  -4    9.63    0.83
  -4  -5  -4   10.78    0.84
   4   5   4    9.95    0.85
  -5  -5  -4   -0.07    0.10
   5   5   4    0.01    0.11
  -6  -5  -4    0.25    0.14
   6   5   4    0.46    0.15
  -7  -5  -4   11.04    0.98
   7   5   4   11.82    0.99
  -8  -5  -4    0.54    0.19
   8   5   4    0.45    0.22
  -9  -5  -4    0.07    0.20
   9   5   4    0.11    0.23
  10   5   4    0.04    0.26
 -11   6   4    0.51    0.45
 -10   6   4    0.30    0.29
   9  -6  -4   -0.08    0.24
  -9   6   4    0.00    0.24
   8  -6  -4    1.66    0.26
  -8   6   4    1.57    0.27
   7  -6  -4   -0.21    0.14
  -7   6   4    0.20    0.18
   6  -6  -4    3.68    0.37
  -6   6   4    3.91    0.40
   5  -6  -4    0.29    0.12
  -5   6   4    0.44    0.12
   4  -6  -4   75.77    6.21
   4  -6  -4   76.67    6.22
  -4   6   4   75.32    6.24
   3  -6  -4   25.94    2.18
   3  -6  -4   27.33    2.17
  -3   6   4   25.33    2.20
   2  -6  -4    1.31    0.12
   2  -6  -4    0.95    0.14
  -2   6   4    1.55    0.20
   1  -6  -4    3.03    0.28
  -1   6   4    3.59    0.30
  -1   6   4    2.95    0.27
   0  -6  -4    1.38    0.15
   0   6   4    1.61    0.16
   0   6   4    1.28    0.14
  -1  -6  -4    4.76    0.41
   1   6   4    5.32    0.41
   1   6   4    4.25    0.41
  -2  -6  -4    2.88    0.27
   2   6   4    2.88    0.27
   2   6   4    2.92    0.27
  -3  -6  -4   10.60    0.86
  -3  -6  -4   10.27    0.85
   3   6   4    9.77    0.86
  -4  -6  -4   18.42    1.49
  -4  -6  -4   18.11    1.48
   4   6   4   16.96    1.49
  -5  -6  -4    1.89    0.22
   5   6   4    2.22    0.24
  -6  -6  -4    9.05    0.78
   6   6   4    9.06    0.79
  -7  -6  -4    0.51    0.17
   7   6   4    0.44    0.19
  -8  -6  -4    0.44    0.19
   8   6   4    0.52    0.21
  -9  -6  -4   -0.04    0.23
   9   6   4   -0.01    0.23
  10   6   4   -0.01    0.29
 -10   7   4    0.28    0.36
   9  -7  -4    0.13    0.22
  -9   7   4   -0.09    0.24
   8  -7  -4    0.72    0.21
  -8   7   4    0.51    0.23
   7  -7  -4    1.23    0.22
  -7   7   4    1.28    0.25
   6  -7  -4   45.11    3.90
  -6   7   4   49.85    3.91
   5  -7  -4   11.68    1.00
  -5   7   4   12.02    1.02
   4  -7  -4   13.67    1.22
  -4   7   4   16.23    1.26
   3  -7  -4    0.53    0.13
   3  -7  -4    1.17    0.11
  -3   7   4    0.51    0.19
   2  -7  -4    0.34    0.10
   2  -7  -4    0.40    0.06
  -2   7   4    0.20    0.14
   1  -7  -4    0.06    0.08
  -1   7   4    0.05    0.11
  -1   7   4    0.03    0.05
   0  -7  -4   12.58    1.01
   0   7   4   11.90    1.00
   0   7   4   12.05    1.02
  -1  -7  -4    3.66    0.35
   1   7   4    3.60    0.34
   1   7   4    4.31    0.35
  -2  -7  -4    0.53    0.11
   2   7   4    0.64    0.10
   2   7   4    0.59    0.11
  -3  -7  -4   14.78    1.18
   3   7   4   13.04    1.18
   3   7   4   14.33    1.17
  -4  -7  -4    1.73    0.21
  -4  -7  -4    2.15    0.20
   4   7   4    1.48    0.22
  -5  -7  -4    6.73    0.55
   5   7   4    5.74    0.55
  -6  -7  -4    0.16    0.14
   6   7   4    0.19    0.17
  -7  -7  -4    0.67    0.20
   7   7   4    0.56    0.20
  -8  -7  -4    0.48    0.19
   8   7   4    0.45    0.22
   9   7   4    0.00    0.25
  10   7   4    0.12    0.29
 -10   8   4    0.39    0.34
   9  -8  -4    0.04    0.27
  -9   8   4   -0.07    0.27
   8  -8  -4    1.32    0.28
  -8   8   4    1.42    0.29
   7  -8  -4   -0.01    0.17
  -7   8   4    0.05    0.21
   6  -8  -4   16.80    1.47
  -6   8   4   18.53    1.50
   5  -8  -4    0.67    0.16
  -5   8   4    0.77    0.21
   4  -8  -4    2.98    0.29
  -4   8   4    2.46    0.32
   3  -8  -4    4.42    0.43
  -3   8   4    5.36    0.48
   2  -8  -4    6.62    0.55
  -2   8   4    6.03    0.58
   1  -8  -4   37.28    3.15
  -1   8   4   41.02    3.16
  -1   8   4   37.33    3.14
   0  -8  -4   19.75    1.65
   0   8   4   20.96    1.65
   0   8   4   19.22    1.64
  -1  -8  -4   14.83    1.21
   1   8   4   14.43    1.21
   1   8   4   14.39    1.21
  -2  -8  -4   16.74    1.42
   2   8   4   17.07    1.41
   2   8   4   17.24    1.41
  -3  -8  -4    6.10    0.51
   3   8   4    5.21    0.51
   3   8   4    5.95    0.50
  -4  -8  -4    3.27    0.35
  -4  -8  -4    4.03    0.36
   4   8   4    3.75    0.36
  -5  -8  -4    3.08    0.33
   5   8   4    3.43    0.35
  -6  -8  -4    3.34    0.33
   6   8   4    2.66    0.34
  -7  -8  -4    0.40    0.17
   7   8   4    0.03    0.19
  -8  -8  -4    3.79    0.42
   8   8   4    3.81    0.44
   9   8   4    0.34    0.27
  10  -9  -4    0.11    0.32
 -10   9   4    0.19    0.36
   9  -9  -4    2.20    0.34
  -9   9   4    0.52    0.32
   8  -9  -4    3.35    0.42
  -8   9   4    4.77    0.49
   7  -9  -4    2.12    0.31
  -7   9   4    2.50    0.34
   6  -9  -4    0.06    0.16
  -6   9   4    0.18    0.25
   5  -9  -4   12.65    1.13
  -5   9   4   14.62    1.18
   4  -9  -4    4.43    0.41
  -4   9   4    4.27    0.49
   3  -9  -4    0.08    0.12
  -3   9   4    0.07    0.19
   2  -9  -4    3.05    0.30
  -2   9   4    3.15    0.34
   1  -9  -4   10.77    0.94
  -1   9   4   11.49    0.95
   0  -9  -4    6.08    0.53
   0   9   4    6.34    0.53
   0   9   4    5.76    0.51
  -1  -9  -4   14.09    1.18
   1   9   4   13.65    1.17
   1   9   4   14.47    1.18
   2   9   4    6.88    0.61
   2   9   4    7.24    0.61
  -3  -9  -4    0.08    0.12
   3   9   4    0.02    0.13
   3   9   4   -0.01    0.12
  -4  -9  -4    4.99    0.46
   4   9   4    4.80    0.46
  -5  -9  -4    0.67    0.16
   5   9   4    0.71    0.18
  -6  -9  -4   -0.03    0.15
   6   9   4   -0.09    0.18
  -7  -9  -4    1.81    0.28
   7   9   4    2.01    0.30
  -8  -9  -4    0.35    0.21
   8   9   4    0.24    0.24
   9   9   4   -0.02    0.29
  10 -10  -4    0.94    0.41
 -10  10   4    0.18    0.45
   9 -10  -4    0.47    0.32
  -9  10   4    0.27    0.33
   8 -10  -4    0.31    0.25
  -8  10   4    0.85    0.30
   7 -10  -4    1.31    0.25
  -7  10   4    1.23    0.29
   6 -10  -4    0.47    0.21
  -6  10   4    0.32    0.26
   5 -10  -4    3.35    0.37
  -5  10   4    3.85    0.44
   4 -10  -4    1.23    0.19
  -4  10   4    0.49    0.26
   3 -10  -4    0.79    0.16
  -3  10   4    0.62    0.24
   2 -10  -4    0.06    0.12
  -2  10   4   -0.15    0.17
   1 -10  -4   13.53    1.16
  -1  10   4   14.15    1.17
   0 -10  -4    4.68    0.43
   0  10   4    4.85    0.44
  -1 -10  -4    6.60    0.58
   1  10   4    6.52    0.57
   1  10   4    6.51    0.58
  -2 -10  -4    0.83    0.15
   2  10   4    0.82    0.16
   2  10   4    0.54    0.14
  -3 -10  -4    8.21    0.75
   3  10   4    9.24    0.75
   3  10   4    8.47    0.75
  -4 -10  -4    3.78    0.40
   4  10   4    4.32    0.41
  -5 -10  -4    1.23    0.21
   5  10   4    1.67    0.24
  -6 -10  -4   -0.22    0.19
   6  10   4    0.21    0.20
  -7 -10  -4    0.10    0.22
   7  10   4    0.50    0.24
   8  10   4    0.23    0.26
   9  10   4   -0.16    0.30
   9 -11  -4    1.20    0.35
  -9  11   4    1.41    0.40
   8 -11  -4    0.22    0.25
  -8  11   4    0.55    0.31
   7 -11  -4    2.02    0.32
  -7  11   4    2.70    0.35
   6 -11  -4    0.94    0.21
  -6  11   4    0.45    0.29
   5 -11  -4    2.36    0.29
  -5  11   4    1.97    0.38
   4 -11  -4    0.71    0.18
  -4  11   4    0.46    0.27
   3 -11  -4   13.32    1.09
  -3  11   4   11.94    1.12
   2 -11  -4    1.62    0.20
  -2  11   4    1.07    0.25
   1 -11  -4    2.76    0.31
  -1  11   4    3.33    0.34
   0 -11  -4    7.11    0.64
   0  11   4    7.47    0.65
  -1 -11  -4    0.30    0.13
   1  11   4    0.12    0.13
  -2 -11  -4    2.43    0.26
   2  11   4    2.61    0.28
   2  11   4    2.11    0.25
  -3 -11  -4   14.81    1.24
   3  11   4   14.53    1.23
   3  11   4   14.52    1.23
  -4 -11  -4    2.23    0.27
   4  11   4    2.21    0.29
  -5 -11  -4   -0.03    0.17
   5  11   4    0.08    0.18
  -6 -11  -4    1.73    0.28
   6  11   4    1.72    0.28
  -7 -11  -4    0.53    0.25
   7  11   4    0.43    0.28
   8  11   4   -0.07    0.27
   9 -12  -4    0.50    0.35
   8 -12  -4    0.72    0.30
  -8  12   4    0.62    0.37
   7 -12  -4    0.84    0.26
  -7  12   4    0.63    0.33
   6 -12  -4    0.05    0.20
  -6  12   4    0.48    0.30
   5 -12  -4    0.08    0.17
  -5  12   4   -0.03    0.22
   4 -12  -4   -0.18    0.15
  -4  12   4   -0.01    0.22
   3 -12  -4    1.44    0.22
  -3  12   4    1.15    0.26
   2 -12  -4    9.92    0.86
  -2  12   4   10.04    0.90
   1 -12  -4    0.76    0.18
  -1  12   4    1.20    0.22
   0 -12  -4    8.57    0.77
   0  12   4    9.14    0.78
  -1 -12  -4    0.76    0.16
   1  12   4    0.62    0.17
  -2 -12  -4   21.17    1.80
   2  12   4   21.92    1.80
  -3 -12  -4    2.69    0.32
   3  12   4    2.95    0.32
   3  12   4    3.26    0.33
  -4 -12  -4    0.63    0.19
   4  12   4    0.61    0.19
  -5 -12  -4    0.38    0.19
   5  12   4    0.34    0.20
  -6 -12  -4    1.14    0.25
   6  12   4    1.51    0.27
   7  12   4    0.22    0.26
   8  12   4    0.27    0.32
   8 -13  -4    0.67    0.33
  -8  13   4    1.04    0.41
   7 -13  -4    0.09    0.26
  -7  13   4    0.61    0.37
   6 -13  -4    0.53    0.24
  -6  13   4    0.64    0.37
   5 -13  -4    0.42    0.20
  -5  13   4    0.39    0.34
   4 -13  -4   -0.09    0.17
  -4  13   4   -0.12    0.29
   3 -13  -4    0.05    0.17
  -3  13   4    0.01    0.27
   2 -13  -4   11.43    0.99
  -2  13   4   11.61    1.03
   1 -13  -4    2.33    0.29
  -1  13   4    2.45    0.32
   0 -13  -4    9.82    0.85
   0  13   4    9.78    0.86
  -1 -13  -4    0.01    0.16
   1  13   4    0.18    0.18
  -2 -13  -4    9.51    0.88
   2  13   4   10.77    0.90
  -3 -13  -4    2.45    0.31
  -4 -13  -4   -0.16    0.18
   4  13   4    0.14    0.21
  -5 -13  -4   -0.03    0.20
   5  13   4    0.09    0.21
  -6 -13  -4    0.56    0.24
   6  13   4    0.36    0.27
   7  13   4    0.59    0.30
   8  13   4    0.27    0.43
   7 -14  -4    1.95    0.41
  -7  14   4    2.54    0.49
   6 -14  -4    0.85    0.27
  -6  14   4    1.02    0.42
   5 -14  -4    2.96    0.36
  -5  14   4    2.43    0.48
   4 -14  -4    0.01    0.18
  -4  14   4   -0.16    0.32
   3 -14  -4    1.61    0.25
  -3  14   4    1.57    0.35
   2 -14  -4    0.13    0.18
  -2  14   4   -0.04    0.25
   1 -14  -4    0.48    0.18
  -1  14   4    0.26    0.22
   0 -14  -4    0.28    0.18
   0  14   4    0.66    0.21
  -1 -14  -4    0.54    0.20
   1  14   4    0.68    0.23
  -2 -14  -4    0.05    0.18
   2  14   4    0.32    0.22
  -3 -14  -4    4.35    0.45
  -4 -14  -4    0.51    0.22
  -5 -14  -4    0.21    0.23
   6  14   4    1.70    0.35
   7  14   4    1.27    0.36
   6 -15  -4   -0.02    0.27
  -6  15   4    1.20    0.48
   5 -15  -4    1.01    0.27
  -5  15   4    0.82    0.43
   4 -15  -4    3.33    0.39
  -4  15   4    2.94    0.50
   3 -15  -4    0.26    0.21
  -3  15   4    0.33    0.34
   2 -15  -4   -0.09    0.19
  -2  15   4   -0.07    0.27
   1 -15  -4    0.37    0.20
  -1  15   4    0.36    0.25
   0 -15  -4    1.62    0.26
   0  15   4    1.36    0.28
  -1 -15  -4    0.81    0.21
   1  15   4    0.32    0.23
  -2 -15  -4    0.42    0.24
   2  15   4    0.57    0.24
  -3 -15  -4    0.21    0.21
  -4 -15  -4    1.24    0.30
  -5 -15  -4    0.49    0.26
   5 -16  -4    0.10    0.27
  -5  16   4    0.50    0.47
   4 -16  -4    0.44    0.26
  -4  16   4    0.48    0.44
   3 -16  -4    0.91    0.26
  -3  16   4    0.38    0.36
   2 -16  -4   -0.07    0.22
  -2  16   4   -0.11    0.30
   1 -16  -4    0.82    0.27
  -1  16   4    1.01    0.30
   0 -16  -4    0.84    0.24
   0  16   4    0.95    0.29
  -1 -16  -4    0.64    0.26
   1  16   4    0.71    0.26
  -2 -16  -4   -0.05    0.22
  -3 -16  -4    0.92    0.27
  -4 -16  -4   -0.03    0.25
  -5 -16  -4    0.08    0.32
   4 -17  -4    0.40    0.32
  -4  17   4    0.68    0.49
   3 -17  -4    0.70    0.27
  -3  17   4    1.12    0.46
   2 -17  -4    0.15    0.24
  -2  17   4    0.09    0.37
   1 -17  -4    0.97    0.27
  -1  17   4    0.80    0.35
   0 -17  -4    0.06    0.24
   0  17   4   -0.12    0.29
  -1 -17  -4    0.43    0.25
   1  17   4    0.21    0.33
  -2 -17  -4    0.38    0.27
  -3 -17  -4    0.20    0.28
  -4 -17  -4    0.41    0.31
   2 -18  -4    0.08    0.28
  -2  18   4    0.16    0.45
   1 -18  -4    0.04    0.27
  -1  18   4    0.14    0.46
   0 -18  -4    0.37    0.29
   0  18   4    1.01    0.39
  -1 -18  -4    0.21    0.28
  -2 -18  -4    0.08    0.30
  -3 -18  -4   -0.17    0.31
   3  18  -5    0.77    0.45
   2  18  -5    0.29    0.37
   1  18  -5    0.04    0.34
   0  18  -5    0.39    0.34
  -1  18  -5    0.75    0.36
   1 -18   5    0.53    0.31
   2 -18   5    1.10    0.31
   3 -18   5   -0.01    0.31
  -4 -17   5    1.07    0.37
   3  17  -5    0.09    0.32
   2  17  -5    0.09    0.31
   1  17  -5   -0.13    0.30
   0  17  -5    0.74    0.31
  -1  17  -5    1.57    0.35
   1 -17   5    1.75    0.32
  -2  17  -5    1.47    0.35
   2 -17   5    1.41    0.29
  -3  17  -5    0.32    0.32
   3 -17   5    0.31    0.27
  -4  17  -5    0.55    0.39
   4 -17   5    0.49    0.30
  -5 -16   5    0.15    0.38
  -4 -16   5    0.18    0.30
  -3 -16   5    0.21    0.27
   2  16  -5    0.12    0.27
   1  16  -5    1.85    0.33
   0  16  -5    0.41    0.26
   0 -16   5    0.01    0.22
  -1  16  -5    0.28    0.27
   1 -16   5    0.19    0.21
  -2  16  -5    0.21    0.20
   2 -16   5    0.61    0.25
  -3  16  -5   -0.03    0.27
   3 -16   5    0.25    0.24
  -4  16  -5    0.27    0.32
   4 -16   5    0.48    0.27
  -5  16  -5    0.43    0.40
   5 -16   5    0.09    0.29
  -5 -15   5    0.23    0.29
  -4 -15   5    0.29    0.30
  -3 -15   5   -0.01    0.24
  -2 -15   5    4.24    0.47
   1  15  -5    1.74    0.30
   0  15  -5   -0.06    0.22
   0 -15   5    0.42    0.20
  -1  15  -5    0.24    0.23
   1 -15   5    0.26    0.21
  -2  15  -5    4.60    0.51
   2 -15   5    4.97    0.49
  -3  15  -5    0.61    0.27
   3 -15   5    0.37    0.24
  -4  15  -5    1.78    0.34
   4 -15   5    1.95    0.33
  -5  15  -5    0.36    0.33
   5 -15   5    0.11    0.25
  -6  15  -5   -0.21    0.41
   6 -15   5    0.56    0.30
   7  14  -5   -0.40    0.34
   6  14  -5   -0.02    0.29
  -6 -14   5    0.31    0.33
   5  14  -5   -0.12    0.26
  -5 -14   5    0.19    0.25
  -4 -14   5    0.13    0.23
  -3 -14   5    0.52    0.23
  -2 -14   5    1.49    0.28
   1  14  -5    0.11    0.16
  -1 -14   5    0.11    0.17
   0  14  -5    0.76    0.22
   0 -14   5    0.43    0.17
  -1  14  -5    1.61    0.24
   1 -14   5    1.44    0.25
  -2  14  -5    5.16    0.50
   2 -14   5    4.21    0.46
  -3  14  -5    1.16    0.26
   3 -14   5    1.28    0.24
  -4  14  -5    0.12    0.23
   4 -14   5   -0.10    0.20
  -5  14  -5    0.10    0.28
   5 -14   5    0.71    0.25
  -6  14  -5    0.55    0.37
   6 -14   5    0.15    0.26
  -7  14  -5    0.21    0.47
   7 -14   5    0.08    0.30
   8  13  -5   -0.13    0.49
   7  13  -5    0.06    0.29
   6  13  -5    0.04    0.28
  -6 -13   5    0.08    0.25
   5  13  -5   -0.03    0.22
  -5 -13   5   -0.08    0.22
   4  13  -5    0.15    0.20
  -4 -13   5    0.25    0.21
   3  13  -5    0.01    0.21
  -3 -13   5   -0.09    0.19
  -2 -13   5    0.65    0.21
  -1 -13   5    0.82    0.17
  -1 -13   5    0.39    0.16
   0  13  -5    0.84    0.22
   0 -13   5    1.28    0.20
  -1  13  -5    0.20    0.19
   1 -13   5    0.26    0.15
  -2  13  -5   -0.04    0.14
   2 -13   5   -0.20    0.15
  -3  13  -5    1.31    0.24
   3 -13   5    1.07    0.22
  -4  13  -5    0.17    0.21
   4 -13   5   -0.02    0.18
  -5  13  -5    0.32    0.25
   5 -13   5    0.06    0.21
  -6  13  -5   -0.02    0.33
   6 -13   5   -0.06    0.24
  -7  13  -5    0.17    0.48
   7 -13   5    0.28    0.27
  -8  13  -5    0.24    0.50
   8  12  -5    0.02    0.33
   7  12  -5    0.35    0.28
   6  12  -5    0.14    0.22
  -6 -12   5    0.08    0.25
   5  12  -5    0.52    0.22
  -5 -12   5    0.63    0.22
   4  12  -5    2.47    0.31
  -4 -12   5    2.14    0.31
   3  12  -5   -0.25    0.15
  -3 -12   5    0.03    0.18
   2  12  -5    2.70    0.28
  -2 -12   5    2.04    0.30
  -2 -12   5    2.43    0.26
  -1 -12   5    1.54    0.25
  -1 -12   5    2.08    0.23
   0  12  -5    1.44    0.24
   0 -12   5    1.63    0.20
  -1  12  -5    5.79    0.55
   1 -12   5    5.63    0.53
  -2  12  -5    0.93    0.20
   2 -12   5    0.45    0.16
  -3  12  -5    1.24    0.23
   3 -12   5    1.44    0.23
  -4  12  -5    0.60    0.21
   4 -12   5    0.39    0.18
  -5  12  -5   -0.05    0.23
   5 -12   5   -0.10    0.19
  -6  12  -5   -0.03    0.29
   6 -12   5    0.17    0.22
  -7  12  -5   -0.06    0.36
   7 -12   5    0.43    0.26
  -8  12  -5    1.03    0.45
   8 -12   5    0.80    0.31
   8  11  -5    0.12    0.30
   7  11  -5    0.08    0.25
  -7 -11   5    0.19    0.23
   6  11  -5    0.00    0.21
  -6 -11   5   -0.15    0.20
   5  11  -5   -0.07    0.22
  -5 -11   5    0.09    0.19
   4  11  -5    0.88    0.22
  -4 -11   5    0.81    0.20
   3  11  -5   -0.20    0.16
  -3 -11   5   -0.06    0.16
   2  11  -5    3.21    0.35
  -2 -11   5    3.49    0.37
  -2 -11   5    3.65    0.33
   1  11  -5    0.05    0.13
  -1 -11   5    0.16    0.15
  -1 -11   5    0.17    0.12
   0 -11   5    0.39    0.13
   0 -11   5    0.53    0.16
  -1  11  -5    0.57    0.17
   1 -11   5    0.34    0.13
  -2  11  -5    3.53    0.33
   2 -11   5    2.35    0.30
  -3  11  -5    0.34    0.17
   3 -11   5    0.10    0.15
  -4  11  -5    2.40    0.31
   4 -11   5    2.60    0.29
  -5  11  -5    0.00    0.21
   5 -11   5    0.19    0.17
  -6  11  -5   -0.10    0.27
   6 -11   5    0.35    0.21
  -7  11  -5    0.67    0.35
   7 -11   5    0.78    0.25
  -8  11  -5    0.28    0.39
   8 -11   5    0.11    0.27
   9  10  -5    0.03    0.37
   8  10  -5    0.00    0.26
   7  10  -5    0.01    0.22
  -7 -10   5    0.01    0.24
   6  10  -5   -0.19    0.19
  -6 -10   5    0.01    0.18
   5  10  -5   -0.01    0.18
  -5 -10   5    0.15    0.17
   4  10  -5    0.00    0.17
  -4 -10   5   -0.01    0.15
   3  10  -5    0.25    0.15
  -3 -10   5    0.38    0.15
  -3 -10   5    0.23    0.13
   2  10  -5   -0.03    0.14
  -2 -10   5   -0.01    0.11
  -2 -10   5   -0.03    0.13
   1  10  -5    4.75    0.46
  -1 -10   5    5.52    0.48
  -1 -10   5    5.08    0.45
   0  10  -5    1.14    0.16
   0 -10   5    1.22    0.19
   0 -10   5    1.28    0.17
  -1  10  -5    0.56    0.15
   1 -10   5    0.35    0.12
  -2  10  -5    4.90    0.45
   2 -10   5    4.44    0.43
  -3  10  -5    0.16    0.15
   3 -10   5   -0.04    0.13
  -4  10  -5    0.24    0.16
   4 -10   5    0.66    0.17
  -5  10  -5    1.35    0.25
   5 -10   5    1.10    0.22
  -6  10  -5   -0.03    0.26
   6 -10   5    0.23    0.19
  -7  10  -5   -0.14    0.35
   7 -10   5    0.27    0.21
  -8  10  -5    0.83    0.40
   8 -10   5    1.04    0.28
   9 -10   5    0.29    0.31
   9   9  -5    0.52    0.32
   8   9  -5    0.13    0.24
   7   9  -5    0.04    0.21
  -7  -9   5    0.25    0.23
   6   9  -5    1.09    0.23
  -6  -9   5    0.66    0.22
   5   9  -5    0.51    0.18
  -5  -9   5    0.23    0.17
   4   9  -5    0.06    0.14
  -4  -9   5    0.03    0.14
   3   9  -5    2.84    0.33
  -3  -9   5    3.40    0.31
  -3  -9   5    3.86    0.35
   2   9  -5    0.26    0.12
  -2  -9   5    0.44    0.10
  -2  -9   5    0.53    0.14
   1   9  -5    6.95    0.56
  -1  -9   5    6.13    0.55
  -1  -9   5    6.03    0.56
   0   9  -5    0.51    0.11
   0  -9   5    0.58    0.12
   0  -9   5    0.70    0.14
  -1   9  -5    1.93    0.20
   1  -9   5    1.89    0.23
   1  -9   5    2.13    0.21
  -2   9  -5    1.52    0.19
   2  -9   5    1.20    0.18
  -3   9  -5    2.18    0.27
   3  -9   5    2.46    0.26
  -4   9  -5    0.47    0.15
   4  -9   5    0.19    0.15
  -5   9  -5    3.15    0.37
   5  -9   5    2.82    0.33
  -6   9  -5   -0.03    0.24
   6  -9   5    0.04    0.17
  -7   9  -5   -0.07    0.29
   7  -9   5   -0.04    0.19
  -8   9  -5    1.18    0.35
   8  -9   5    1.37    0.28
   9  -9   5   -0.17    0.28
   9   8  -5    0.11    0.27
   8   8  -5    0.06    0.22
  -8  -8   5   -0.02    0.23
   7   8  -5    0.40    0.22
  -7  -8   5    0.46    0.19
   6   8  -5    0.85    0.21
  -6  -8   5    1.13    0.20
   5   8  -5    2.53    0.28
  -5  -8   5    2.10    0.27
   4   8  -5    0.18    0.14
  -4  -8   5    0.24    0.14
   3   8  -5    4.90    0.50
  -3  -8   5    5.98    0.49
  -3  -8   5    6.07    0.51
   2   8  -5    5.15    0.46
  -2  -8   5    5.14    0.47
  -2  -8   5    5.21    0.45
   1   8  -5    1.80    0.18
  -1  -8   5    1.67    0.18
  -1  -8   5    1.44    0.20
   0   8  -5    5.79    0.50
   0  -8   5    5.28    0.51
   0  -8   5    6.24    0.50
  -1   8  -5    3.29    0.29
   1  -8   5    3.00    0.29
   1  -8   5    3.13    0.31
  -2   8  -5   15.30    1.24
  -2   8  -5   13.83    1.26
   2  -8   5   15.61    1.25
  -3   8  -5    2.13    0.24
   3  -8   5    1.92    0.22
  -4   8  -5    1.83    0.24
   4  -8   5    2.06    0.23
  -5   8  -5    2.72    0.31
   5  -8   5    2.20    0.27
  -6   8  -5    8.09    0.77
   6  -8   5    8.24    0.73
  -7   8  -5    4.30    0.54
   7  -8   5    5.23    0.49
   8  -8   5    0.29    0.22
   9  -8   5   -0.18    0.25
  10  -8   5    0.37    0.33
  10   7  -5   -0.06    0.31
   9   7  -5    0.14    0.26
   8   7  -5   -0.07    0.20
  -8  -7   5   -0.05    0.19
   7   7  -5    0.08    0.18
  -7  -7   5   -0.11    0.16
   6   7  -5    1.68    0.27
  -6  -7   5    2.59    0.27
   5   7  -5    1.04    0.17
  -5  -7   5    0.59    0.16
   4   7  -5    1.36    0.18
  -4  -7   5    0.96    0.17
   3   7  -5    6.50    0.57
  -3  -7   5    6.72    0.55
  -3  -7   5    6.21    0.57
   2   7  -5    2.45    0.24
  -2  -7   5    1.93    0.24
  -2  -7   5    2.48    0.21
   1   7  -5    0.72    0.11
  -1  -7   5    0.69    0.10
  -1  -7   5    0.64    0.12
   0   7  -5    3.54    0.29
   0  -7   5    3.07    0.31
   0  -7   5    3.11    0.29
  -1   7  -5    0.00    0.07
   1  -7   5    0.02    0.07
   1  -7   5    0.01    0.08
  -2   7  -5    2.88    0.32
  -2   7  -5    3.72    0.30
   2  -7   5    3.22    0.31
  -3   7  -5    0.49    0.13
   3  -7   5    0.52    0.12
   3  -7   5    0.57    0.09
  -4   7  -5    0.28    0.14
   4  -7   5    0.20    0.09
   4  -7   5    0.12    0.12
  -5   7  -5   11.32    0.99
   5  -7   5   11.52    0.97
  -6   7  -5    0.04    0.22
   6  -7   5    0.51    0.16
  -7   7  -5    0.25    0.25
   7  -7   5    0.46    0.18
   8  -7   5    1.00    0.23
   9  -7   5    0.97    0.26
  10  -7   5    0.19    0.30
  10   6  -5   -0.35    0.28
   9   6  -5    1.60    0.31
   8   6  -5    0.06    0.16
  -8  -6   5    0.14    0.19
   7   6  -5    8.95    0.74
  -7  -6   5    7.63    0.72
   6   6  -5    0.98    0.19
  -6  -6   5    1.10    0.18
   5   6  -5    1.53    0.20
  -5  -6   5    1.38    0.19
   4   6  -5    5.26    0.47
  -4  -6   5    5.02    0.47
  -4  -6   5    5.32    0.44
   3   6  -5    1.23    0.17
  -3  -6   5    1.24    0.17
  -3  -6   5    1.46    0.14
   2   6  -5    8.45    0.70
  -2  -6   5    8.60    0.69
  -2  -6   5    7.74    0.71
   1   6  -5   96.25    7.79
  -1  -6   5   95.29    7.78
  -1  -6   5   93.93    7.79
   0   6  -5    2.44    0.22
   0  -6   5    2.55    0.24
   0  -6   5    2.17    0.22
  -1   6  -5   56.81    4.63
   1  -6   5   56.95    4.64
   1  -6   5   55.93    4.63
  -2   6  -5    6.23    0.58
   2  -6   5    7.08    0.57
   2  -6   5    7.00    0.58
  -3   6  -5    5.02    0.48
   3  -6   5    6.05    0.48
   3  -6   5    5.45    0.46
  -4   6  -5   -0.10    0.10
   4  -6   5    0.01    0.08
   4  -6   5    0.06    0.10
  -5   6  -5    1.34    0.22
   5  -6   5    1.10    0.19
   5  -6   5    1.96    0.18
  -6   6  -5   -0.04    0.19
   6  -6   5   -0.09    0.14
  -7   6  -5    6.70    0.66
   7  -6   5    7.28    0.64
   8  -6   5    0.62    0.21
   9  -6   5    0.54    0.24
  10  -6   5   -0.30    0.27
  10   5  -5    0.42    0.29
   9   5  -5    1.86    0.33
  -9  -5   5    3.08    0.41
   8   5  -5    1.26    0.26
  -8  -5   5    1.49    0.26
   7   5  -5    4.44    0.46
  -7  -5   5    4.68    0.44
   6   5  -5   10.50    0.92
  -6  -5   5   10.78    0.91
   5   5  -5    0.39    0.13
  -5  -5   5    0.49    0.13
   4   5  -5    7.50    0.69
  -4  -5   5    7.54    0.68
  -4  -5   5    8.40    0.66
   3   5  -5   21.42    1.75
  -3  -5   5   21.53    1.74
  -3  -5   5   20.42    1.75
   2   5  -5    2.39    0.24
  -2  -5   5    2.73    0.22
  -2  -5   5    2.08    0.24
   1   5  -5   14.76    1.24
  -1  -5   5   14.93    1.23
  -1  -5   5   15.34    1.25
   0   5  -5    0.74    0.09
   0  -5   5    0.70    0.10
   0  -5   5    0.65    0.09
   1  -5   5   10.40    0.84
   1  -5   5    9.70    0.84
   1  -5   5   10.04    0.83
  -2   5  -5    0.06    0.08
   2  -5   5    0.13    0.06
   2  -5   5    0.18    0.07
  -3   5  -5   14.64    1.21
   3  -5   5   14.40    1.20
   3  -5   5   14.75    1.21
  -4   5  -5    0.41    0.12
   4  -5   5    0.50    0.10
   4  -5   5    0.64    0.12
  -5   5  -5    2.43    0.32
   5  -5   5    3.25    0.29
   5  -5   5    3.11    0.30
  -6   5  -5    7.97    0.78
   6  -5   5    8.85    0.75
   6  -5   5    8.76    0.74
  -7   5  -5    0.26    0.19
   7  -5   5    0.28    0.17
   8  -5   5    1.87    0.27
   9  -5   5   -0.15    0.21
  10  -5   5    0.50    0.28
 -11   5  -5    0.54    0.35
  11   4  -5    0.18    0.36
  10   4  -5   -0.01    0.26
   9   4  -5    0.43    0.23
  -9  -4   5    0.31    0.21
   8   4  -5    1.18    0.23
  -8  -4   5    0.87    0.20
   7   4  -5    1.35    0.22
  -7  -4   5    1.18    0.20
   6   4  -5    4.01    0.44
  -6  -4   5    5.31    0.44
   5   4  -5    2.94    0.29
  -5  -4   5    2.41    0.28
  -5  -4   5    2.85    0.25
   4   4  -5    2.29    0.27
  -4  -4   5    2.64    0.27
  -4  -4   5    2.89    0.24
   3   4  -5    3.42    0.32
  -3  -4   5    3.01    0.32
  -3  -4   5    3.75    0.30
   2   4  -5    4.30    0.40
  -2  -4   5    4.90    0.38
  -2  -4   5    4.23    0.40
   1   4  -5   86.26    7.09
  -1  -4   5   86.92    7.09
  -1  -4   5   86.76    7.08
   0   4  -5    1.21    0.13
   0  -4   5    1.31    0.13
   0  -4   5    1.34    0.13
   1  -4   5   68.10    5.55
   1  -4   5   67.54    5.54
   1  -4   5   67.50    5.54
  -2   4  -5    3.55    0.31
   2  -4   5    3.59    0.31
   2  -4   5    3.52    0.31
  -3   4  -5    0.08    0.07
   3  -4   5    0.17    0.06
   3  -4   5    0.15    0.08
  -4   4  -5    6.81    0.61
   4  -4   5    7.37    0.60
   4  -4   5    6.90    0.60
  -5   4  -5   28.62    2.59
   5  -4   5   32.20    2.58
   5  -4   5   32.89    2.59
  -6   4  -5    0.06    0.16
   6  -4   5    0.26    0.14
   6  -4   5    0.22    0.11
   7  -4   5    0.38    0.17
   7  -4   5    0.25    0.13
   8  -4   5    0.07    0.18
   8  -4   5   -0.12    0.17
   9  -4   5    1.90    0.29
 -10   4  -5    0.50    0.31
 -11   4  -5    0.21    0.38
  11   3  -5   -0.20    0.34
  10   3  -5    0.37    0.27
   9   3  -5    1.23    0.27
  -9  -3   5    1.74    0.26
   8   3  -5    0.18    0.19
  -8  -3   5    0.35    0.17
   7   3  -5    0.30    0.17
  -7  -3   5    0.31    0.17
   6   3  -5    7.92    0.66
  -6  -3   5    7.09    0.65
   5   3  -5   40.15    3.22
  -5  -3   5   39.24    3.20
  -5  -3   5   38.03    3.22
   4   3  -5    4.31    0.43
  -4  -3   5    5.16    0.41
  -4  -3   5    4.77    0.43
   3   3  -5   38.55    3.13
  -3  -3   5   36.96    3.13
  -3  -3   5   38.48    3.11
   2   3  -5   23.85    2.04
  -2  -3   5   25.07    2.04
  -2  -3   5   25.23    2.03
   1   3  -5  319.98   26.10
  -1  -3   5  317.21   26.10
  -1  -3   5  320.87   26.09
   0  -3   5    2.87    0.25
   0  -3   5    2.92    0.24
   0  -3   5    2.62    0.25
   1  -3   5  267.11   22.28
   1  -3   5  271.65   22.28
   1  -3   5  279.27   22.28
  -2   3  -5    0.25    0.06
   2  -3   5    0.15    0.07
   2  -3   5    0.13    0.06
  -3   3  -5   66.14    5.32
   3  -3   5   64.44    5.32
   3  -3   5   64.11    5.32
  -4   3  -5    1.31    0.17
   4  -3   5    1.25    0.16
   4  -3   5    1.75    0.16
  -5   3  -5   39.35    3.31
   5  -3   5   41.07    3.31
   5  -3   5   40.22    3.30
  -6   3  -5   17.63    1.37
   6  -3   5   15.45    1.36
   6  -3   5   15.90    1.37
   7  -3   5    0.02    0.14
   7  -3   5   -0.01    0.14
   8  -3   5    0.29    0.18
   8  -3   5    0.31    0.16
  -9   3  -5    1.64    0.27
   9  -3   5    1.66    0.25
 -10   3  -5    0.11    0.25
 -11   3  -5    0.08    0.32
  11   2  -5    0.11    0.37
  10   2  -5    0.04    0.24
   9   2  -5    1.49    0.27
  -9  -2   5    1.64    0.28
   8   2  -5    0.13    0.18
  -8  -2   5    0.05    0.16
   7   2  -5    3.52    0.36
  -7  -2   5    3.51    0.36
   6   2  -5    5.68    0.44
  -6  -2   5    4.00    0.43
   5   2  -5   40.10    3.41
  -5  -2   5   41.20    3.41
  -5  -2   5   42.60    3.39
   4   2  -5    0.44    0.10
  -4  -2   5    0.50    0.06
  -4  -2   5    0.31    0.10
   3   2  -5    4.48    0.37
  -3  -2   5    4.39    0.35
  -3  -2   5    3.34    0.36
   2   2  -5   19.08    1.49
  -2  -2   5   17.14    1.49
   1   2  -5   71.36    5.80
  -1  -2   5   70.27    5.80
   0  -2   5    0.37    0.06
   0  -2   5    0.44    0.06
   0  -2   5    0.39    0.05
   1  -2   5  124.20   10.26
   1  -2   5  125.09   10.26
   1  -2   5  127.16   10.26
   2  -2   5   87.25    7.24
   2  -2   5   89.87    7.24
  -3   2  -5    6.96    0.59
   3  -2   5    7.08    0.59
   3  -2   5    7.14    0.59
  -4   2  -5    0.35    0.11
   4  -2   5    0.34    0.09
   4  -2   5    0.22    0.08
  -5   2  -5   14.30    1.15
   5  -2   5   13.55    1.15
   5  -2   5   13.51    1.15
  -6   2  -5    5.05    0.46
   6  -2   5    5.41    0.47
   6  -2   5    5.17    0.46
  -7   2  -5    0.60    0.17
   7  -2   5    0.28    0.16
  -8   2  -5    0.13    0.19
   8  -2   5   -0.02    0.17
  -9   2  -5    1.04    0.22
   9  -2   5    0.60    0.20
 -10   2  -5    0.30    0.25
  10  -2   5    0.02    0.27
 -11   2  -5   -0.42    0.36
  11   1  -5    0.25    0.37
  10   1  -5    0.77    0.27
 -10  -1   5    0.99    0.30
   9   1  -5    0.13    0.22
  -9  -1   5    0.11    0.19
   8   1  -5    0.06    0.17
  -8  -1   5   -0.06    0.15
   7   1  -5    1.01    0.18
  -7  -1   5    0.94    0.18
   6   1  -5    1.26    0.18
  -6  -1   5    1.10    0.18
  -6  -1   5    1.60    0.15
   5   1  -5    1.62    0.16
   5   1  -5    1.68    0.18
  -5  -1   5    1.15    0.17
   4   1  -5   30.79    2.44
   4   1  -5   28.37    2.45
  -4  -1   5   29.80    2.45
   3   1  -5    4.31    0.35
   3   1  -5    4.19    0.36
  -3  -1   5    3.86    0.36
   2   1  -5    0.32    0.08
   2   1  -5    0.55    0.05
  -2  -1   5    0.48    0.08
   1   1  -5   16.15    1.35
   1   1  -5   16.65    1.35
  -1  -1   5   16.70    1.35
   0   1  -5    2.67    0.23
   0  -1   5    2.67    0.23
   0  -1   5    2.80    0.24
  -1   1  -5   33.11    2.72
   1  -1   5   34.64    2.73
   1  -1   5   32.18    2.72
  -2   1  -5    0.93    0.10
   2  -1   5    1.04    0.11
   2  -1   5    0.96    0.11
  -3   1  -5    2.00    0.20
   3  -1   5    2.40    0.21
   3  -1   5    2.38    0.21
  -4   1  -5    4.44    0.42
   4  -1   5    5.56    0.43
   4  -1   5    4.97    0.43
  -5   1  -5    0.16    0.10
  -5   1  -5    0.27    0.08
   5  -1   5    0.25    0.10
  -6   1  -5    0.32    0.12
  -6   1  -5    0.15    0.14
   6  -1   5    0.01    0.11
  -7   1  -5    6.77    0.59
   7  -1   5    6.40    0.60
  -8   1  -5    0.06    0.17
   8  -1   5   -0.06    0.16
  -9   1  -5   -0.03    0.20
   9  -1   5    0.17    0.18
 -10   1  -5    0.11    0.23
  10  -1   5    0.20    0.21
 -11   1  -5    0.27    0.30
  11   0  -5    0.50    0.33
  10   0  -5    3.25    0.41
 -10   0   5    2.62    0.37
   9   0  -5    0.55    0.24
  -9   0   5    1.19    0.25
   8   0  -5    0.00    0.17
  -8   0   5    0.12    0.16
   7   0  -5    1.47    0.22
  -7   0   5    2.04    0.23
   6   0  -5    1.51    0.21
   6   0  -5    1.88    0.20
  -6   0   5    2.21    0.22
   5   0  -5    8.45    0.67
   5   0  -5    7.40    0.65
  -5   0   5    7.72    0.67
   4   0  -5    4.63    0.39
   4   0  -5    4.69    0.38
  -4   0   5    3.97    0.39
   3   0  -5    0.02    0.04
   3   0  -5    0.06    0.07
  -3   0   5    0.04    0.07
   2   0  -5    3.70    0.30
   2   0  -5    3.87    0.31
  -2   0   5    3.19    0.31
   1   0  -5  106.21    8.91
  -1   0   5  110.77    8.91
  -1   0   5  110.14    8.91
   0   0  -5   25.02    2.06
   0   0   5   25.15    2.06
   0   0   5   25.13    2.06
  -1   0  -5  121.62   10.02
   1   0   5  122.58   10.02
   1   0   5  123.51   10.02
  -2   0  -5   31.50    2.68
  -2   0  -5   34.18    2.67
   2   0   5   31.64    2.68
  -3   0  -5    3.44    0.31
  -3   0  -5    3.79    0.32
   3   0   5    4.07    0.33
  -4   0  -5    1.28    0.12
  -4   0  -5    0.94    0.14
   4   0   5    1.06    0.14
  -5   0  -5   10.28    0.89
  -5   0  -5   11.14    0.88
   5   0   5    9.83    0.89
  -6   0  -5    2.95    0.32
   6   0   5    3.56    0.32
  -7   0  -5    0.66    0.16
   7   0   5    0.29    0.15
  -8   0  -5   -0.04    0.18
   8   0   5   -0.02    0.16
  -9   0  -5    1.18    0.24
   9   0   5    0.93    0.23
 -10   0  -5   -0.03    0.23
  10   0   5   -0.16    0.22
 -11   0  -5    0.06    0.30
  11   0   5   -0.37    0.32
  10  -1  -5    0.17    0.24
 -10   1   5   -0.17    0.23
   9  -1  -5    1.68    0.27
  -9   1   5    2.07    0.29
   8  -1  -5    1.50    0.25
  -8   1   5    1.52    0.24
   7  -1  -5    0.22    0.14
   7  -1  -5    0.21    0.12
  -7   1   5    0.24    0.15
   6  -1  -5    0.07    0.10
   6  -1  -5    0.04    0.11
  -6   1   5   -0.02    0.12
   5  -1  -5   16.71    1.29
   5  -1  -5   16.13    1.28
  -5   1   5   13.81    1.29
   4  -1  -5    5.02    0.44
   4  -1  -5    5.67    0.45
  -4   1   5    5.11    0.45
   3  -1  -5    7.99    0.64
   3  -1  -5    8.34    0.65
  -3   1   5    6.91    0.65
   2  -1  -5   89.94    7.19
   2  -1  -5   88.55    7.20
  -2   1   5   85.31    7.20
   1  -1  -5   39.10    3.19
  -1   1   5   38.45    3.20
  -1   1   5   39.50    3.20
   0  -1  -5   16.68    1.35
   0   1   5   16.40    1.35
   0   1   5   16.14    1.35
  -1  -1  -5    1.78    0.18
   1   1   5    2.34    0.18
   1   1   5    1.66    0.19
  -2  -1  -5   39.92    3.34
   2   1   5   41.52    3.34
  -3  -1  -5    6.43    0.52
  -3  -1  -5    6.52    0.54
   3   1   5    6.15    0.54
  -4  -1  -5    1.16    0.15
  -4  -1  -5    1.31    0.12
   4   1   5    1.42    0.16
  -5  -1  -5    1.84    0.19
  -5  -1  -5    1.45    0.16
   5   1   5    1.96    0.20
  -6  -1  -5    5.32    0.47
   6   1   5    5.08    0.47
  -7  -1  -5    0.52    0.15
   7   1   5    0.75    0.17
  -8  -1  -5    2.19    0.27
   8   1   5    2.13    0.28
  -9  -1  -5    0.11    0.19
   9   1   5    0.16    0.19
 -10  -1  -5   -0.14    0.26
  10   1   5    0.20    0.23
 -11  -1  -5    0.90    0.35
  11   1   5   -0.07    0.29
 -10   2   5    0.09    0.24
   9  -2  -5    1.53    0.29
  -9   2   5    2.23    0.30
   8  -2  -5    7.13    0.67
  -8   2   5    7.59    0.67
   7  -2  -5    1.15    0.18
   7  -2  -5    1.00    0.19
  -7   2   5    1.32    0.20
   6  -2  -5    0.97    0.15
   6  -2  -5    1.20    0.17
  -6   2   5    1.81    0.19
   5  -2  -5   34.50    2.81
   5  -2  -5   34.29    2.82
  -5   2   5   33.95    2.82
   4  -2  -5    0.02    0.06
   4  -2  -5    0.00    0.07
  -4   2   5   -0.03    0.08
   3  -2  -5   53.48    4.28
   3  -2  -5   53.66    4.28
  -3   2   5   49.41    4.28
   2  -2  -5    7.49    0.62
   2  -2  -5    7.56    0.62
  -2   2   5    7.24    0.62
   1  -2  -5    8.19    0.65
  -1   2   5    7.80    0.66
  -1   2   5    7.70    0.66
   0  -2  -5    0.02    0.04
   0   2   5   -0.05    0.04
   0   2   5    0.02    0.04
  -1  -2  -5    0.36    0.07
   1   2   5    0.45    0.05
   1   2   5    0.26    0.07
  -2  -2  -5    5.40    0.43
   2   2   5    4.76    0.43
  -3  -2  -5   31.29    2.62
   3   2   5   32.42    2.62
  -4  -2  -5   52.44    4.29
  -4  -2  -5   53.64    4.27
   4   2   5   50.03    4.29
  -5  -2  -5    4.59    0.40
   5   2   5    4.23    0.40
  -6  -2  -5    0.44    0.13
   6   2   5    0.22    0.13
  -7  -2  -5    2.60    0.29
   7   2   5    2.76    0.30
  -8  -2  -5    4.13    0.39
   8   2   5    3.23    0.38
  -9  -2  -5    0.75    0.22
   9   2   5    0.78    0.22
 -10  -2  -5   -0.13    0.26
  10   2   5   -0.14    0.23
 -11  -2  -5   -0.18    0.30
  11   2   5    0.44    0.32
 -10   3   5    0.44    0.27
  -9   3   5    2.78    0.38
   8  -3  -5   -0.02    0.17
  -8   3   5   -0.12    0.17
   7  -3  -5    1.49    0.22
   7  -3  -5    2.25    0.24
  -7   3   5    1.87    0.24
   6  -3  -5   11.25    0.96
   6  -3  -5   10.62    0.96
  -6   3   5   12.64    0.98
   5  -3  -5   -0.05    0.08
   5  -3  -5    0.09    0.09
  -5   3   5    0.01    0.10
   4  -3  -5    0.79    0.10
   4  -3  -5    0.94    0.11
  -4   3   5    0.52    0.12
   3  -3  -5  148.81   12.19
   3  -3  -5  149.35   12.19
  -3   3   5  149.06   12.19
   2  -3  -5   47.21    3.79
   2  -3  -5   45.05    3.79
  -2   3   5   46.41    3.79
   1  -3  -5   61.97    5.13
  -1   3   5   65.48    5.13
  -1   3   5   60.54    5.12
   0  -3  -5    1.08    0.12
   0   3   5    1.09    0.11
   0   3   5    1.16    0.11
  -1  -3  -5   34.53    2.76
   1   3   5   31.27    2.76
   1   3   5   35.76    2.76
  -2  -3  -5    0.09    0.06
   2   3   5    0.17    0.06
   2   3   5    0.02    0.04
  -3  -3  -5  140.69   11.49
   3   3   5  132.28   11.49
   3   3   5  147.40   11.48
  -4  -3  -5    2.23    0.19
  -4  -3  -5    1.99    0.22
   4   3   5    2.24    0.23
  -5  -3  -5    0.05    0.10
   5   3   5    0.02    0.10
  -6  -3  -5    2.67    0.27
   6   3   5    2.32    0.27
  -7  -3  -5    0.98    0.19
   7   3   5    0.88    0.19
  -8  -3  -5   -0.13    0.16
   8   3   5    0.02    0.17
  -9  -3  -5    2.85    0.35
   9   3   5    2.97    0.35
 -10  -3  -5    0.08    0.23
  10   3   5    0.36    0.28
  11   3   5    0.83    0.34
 -11   4   5    0.10    0.35
 -10   4   5    1.11    0.31
  -9   4   5    0.27    0.22
   8  -4  -5    3.41    0.38
  -8   4   5    3.70    0.39
   7  -4  -5    3.44    0.39
   7  -4  -5    4.24    0.39
  -7   4   5    4.53    0.42
   6  -4  -5    1.72    0.22
   6  -4  -5    1.65    0.20
  -6   4   5    2.23    0.24
   5  -4  -5    0.14    0.11
   5  -4  -5    0.14    0.09
  -5   4   5    0.21    0.10
   4  -4  -5    2.40    0.25
   4  -4  -5    2.75    0.24
  -4   4   5    2.59    0.26
   3  -4  -5   21.68    1.75
   3  -4  -5   20.47    1.75
  -3   4   5   21.61    1.76
   2  -4  -5   -0.01    0.05
   2  -4  -5   -0.06    0.06
  -2   4   5   -0.02    0.06
   1  -4  -5   38.66    3.24
  -1   4   5   40.56    3.24
  -1   4   5   39.14    3.25
   0  -4  -5    0.08    0.06
   0   4   5    0.07    0.06
   0   4   5    0.04    0.08
  -1  -4  -5   40.49    3.30
   1   4   5   40.05    3.30
   1   4   5   40.17    3.30
  -2  -4  -5    0.00    0.05
   2   4   5   -0.03    0.06
   2   4   5    0.03    0.04
  -3  -4  -5    6.05    0.55
   3   4   5    6.68    0.53
   3   4   5    6.10    0.55
  -4  -4  -5    0.04    0.05
  -4  -4  -5    0.04    0.09
   4   4   5   -0.08    0.07
  -5  -4  -5    3.41    0.34
   5   4   5    3.81    0.35
  -6  -4  -5    1.33    0.19
   6   4   5    1.51    0.21
  -7  -4  -5    0.68    0.17
   7   4   5    1.09    0.20
  -8  -4  -5    1.34    0.25
   8   4   5    1.53    0.24
  -9  -4  -5    0.09    0.20
   9   4   5    0.03    0.21
 -10  -4  -5    0.11    0.27
  10   4   5    0.05    0.26
 -11   5   5    0.15    0.37
 -10   5   5    0.47    0.29
  -9   5   5    0.28    0.23
   8  -5  -5    0.39    0.18
  -8   5   5    0.55    0.21
   7  -5  -5    1.32    0.21
  -7   5   5    1.58    0.24
   6  -5  -5   18.10    1.49
   6  -5  -5   17.95    1.48
  -6   5   5   17.54    1.50
   5  -5  -5    0.46    0.10
   5  -5  -5    0.41    0.13
  -5   5   5    0.52    0.15
   4  -5  -5    5.85    0.52
   4  -5  -5    6.18    0.51
  -4   5   5    5.82    0.53
   3  -5  -5    0.73    0.08
   3  -5  -5    0.37    0.10
  -3   5   5    0.55    0.13
   2  -5  -5   32.89    2.62
   2  -5  -5   30.88    2.63
  -2   5   5   32.08    2.64
   1  -5  -5    0.01    0.07
  -1   5   5    0.01    0.10
  -1   5   5    0.02    0.05
   0  -5  -5    0.02    0.07
   0   5   5   -0.01    0.09
   0   5   5    0.03    0.06
  -1  -5  -5    0.52    0.10
   1   5   5    0.69    0.09
   1   5   5    0.91    0.10
  -2  -5  -5    6.75    0.57
   2   5   5    7.19    0.56
   2   5   5    5.81    0.57
  -3  -5  -5    2.98    0.27
   3   5   5    2.60    0.27
   3   5   5    2.88    0.25
  -4  -5  -5    0.07    0.06
  -4  -5  -5    0.00    0.10
   4   5   5    0.05    0.10
  -5  -5  -5    5.95    0.56
   5   5   5    6.65    0.56
  -6  -5  -5   10.72    0.93
   6   5   5   10.98    0.93
  -7  -5  -5    1.10    0.21
   7   5   5    0.92    0.22
  -8  -5  -5    3.91    0.40
   8   5   5    3.79    0.42
  -9  -5  -5    0.49    0.22
   9   5   5    0.42    0.22
 -10  -5  -5    0.11    0.26
  10   5   5    0.18    0.30
 -11   6   5    0.22    0.38
 -10   6   5    0.51    0.31
  -9   6   5    0.22    0.25
   8  -6  -5    0.36    0.21
  -8   6   5    0.25    0.21
   7  -6  -5    4.53    0.42
  -7   6   5    3.83    0.44
   6  -6  -5   10.87    0.95
  -6   6   5   11.40    0.96
   5  -6  -5    1.87    0.22
  -5   6   5    2.16    0.25
   4  -6  -5    1.64    0.19
   4  -6  -5    1.62    0.17
  -4   6   5    1.98    0.23
   3  -6  -5    2.07    0.18
   3  -6  -5    1.72    0.20
  -3   6   5    1.51    0.23
   2  -6  -5   27.78    2.19
  -2   6   5   25.04    2.20
   1  -6  -5    0.61    0.09
  -1   6   5    0.25    0.13
  -1   6   5    0.09    0.06
   0  -6  -5    8.54    0.74
   0   6   5    8.55    0.73
   0   6   5    9.40    0.75
  -1  -6  -5    1.53    0.18
   1   6   5    2.09    0.19
   1   6   5    1.78    0.18
  -2  -6  -5   21.80    1.80
   2   6   5   20.99    1.80
   2   6   5   22.53    1.80
  -3  -6  -5    0.81    0.13
   3   6   5    0.85    0.10
   3   6   5    0.52    0.12
  -4  -6  -5    9.16    0.80
   4   6   5    9.59    0.80
  -5  -6  -5    0.37    0.13
   5   6   5    0.58    0.14
  -6  -6  -5    0.70    0.17
   6   6   5    0.75    0.19
  -7  -6  -5    0.15    0.16
   7   6   5    0.15    0.18
  -8  -6  -5    0.06    0.18
   8   6   5    0.21    0.19
  -9  -6  -5    0.29    0.22
   9   6   5    0.49    0.25
  10   6   5    0.04    0.29
 -10   7   5    0.13    0.32
   9  -7  -5    1.85    0.33
  -9   7   5    2.03    0.34
   8  -7  -5    0.96    0.23
  -8   7   5    1.19    0.26
   7  -7  -5   17.62    1.47
  -7   7   5   17.16    1.48
   6  -7  -5    4.35    0.46
  -6   7   5    5.66    0.50
   5  -7  -5   17.87    1.61
  -5   7   5   21.38    1.63
   4  -7  -5    6.95    0.64
  -4   7   5    8.14    0.67
   3  -7  -5    3.19    0.27
   3  -7  -5    2.62    0.29
  -3   7   5    3.19    0.32
   2  -7  -5    0.11    0.09
  -2   7   5    0.01    0.06
  -2   7   5    0.13    0.14
   1  -7  -5    4.17    0.39
  -1   7   5    4.47    0.42
  -1   7   5    4.52    0.38
   0  -7  -5    0.01    0.08
   0   7   5    0.04    0.07
   0   7   5    0.21    0.11
  -1  -7  -5   16.69    1.39
   1   7   5   18.64    1.39
   1   7   5   15.14    1.38
  -2  -7  -5    0.89    0.15
   2   7   5    1.36    0.15
   2   7   5    1.58    0.17
  -3  -7  -5    1.15    0.15
   3   7   5    1.01    0.15
   3   7   5    1.09    0.14
  -4  -7  -5    0.91    0.15
   4   7   5    1.11    0.17
  -5  -7  -5    5.22    0.45
   5   7   5    4.67    0.46
  -6  -7  -5    0.33    0.15
   6   7   5    0.09    0.17
  -7  -7  -5    0.54    0.18
   7   7   5    0.58    0.20
  -8  -7  -5    0.15    0.21
   8   7   5    0.17    0.21
  -9  -7  -5    0.78    0.25
   9   7   5    0.86    0.28
  10   7   5    0.30    0.31
 -10   8   5    0.67    0.35
   9  -8  -5    0.50    0.25
  -9   8   5    0.53    0.29
   8  -8  -5    0.10    0.22
  -8   8   5    0.01    0.23
   7  -8  -5    0.29    0.21
  -7   8   5    0.44    0.23
   6  -8  -5    2.52    0.29
  -6   8   5    2.39    0.32
   5  -8  -5   10.44    0.93
  -5   8   5   11.42    0.96
   4  -8  -5   -0.10    0.11
  -4   8   5    0.18    0.18
   3  -8  -5   11.24    0.99
  -3   8   5   12.64    1.02
   2  -8  -5   10.82    0.86
  -2   8   5    9.08    0.88
   1  -8  -5   35.23    2.92
  -1   8   5   35.42    2.93
  -1   8   5   35.67    2.91
   0  -8  -5   -0.01    0.09
   0   8   5    0.16    0.11
   0   8   5    0.11    0.08
  -1  -8  -5   31.21    2.81
   1   8   5   35.20    2.81
   1   8   5   35.74    2.81
  -2  -8  -5    2.27    0.23
   2   8   5    2.00    0.22
   2   8   5    1.98    0.21
  -3  -8  -5    5.20    0.51
   3   8   5    5.69    0.51
   3   8   5    6.15    0.50
  -4  -8  -5    3.14    0.31
   4   8   5    2.81    0.31
  -5  -8  -5   33.81    2.77
   5   8   5   33.20    2.77
  -6  -8  -5    1.35    0.22
   6   8   5    1.48    0.23
  -7  -8  -5    6.85    0.59
   7   8   5    5.49    0.58
  -8  -8  -5    0.70    0.24
   8   8   5    0.45    0.25
   9   8   5    0.20    0.26
 -10   9   5    0.08    0.37
   9  -9  -5   -0.35    0.24
  -9   9   5   -0.19    0.30
   8  -9  -5    1.66    0.28
  -8   9   5    1.57    0.33
   7  -9  -5   -0.20    0.18
  -7   9   5    0.62    0.19
   6  -9  -5   10.33    0.96
  -6   9   5   12.23    1.00
   5  -9  -5    0.58    0.16
  -5   9   5    0.27    0.22
   4  -9  -5    0.25    0.14
  -4   9   5    0.16    0.21
   3  -9  -5   23.12    1.87
  -3   9   5   21.69    1.90
   2  -9  -5   16.28    1.29
  -2   9   5   14.17    1.31
   1  -9  -5   11.43    0.92
  -1   9   5   10.25    0.94
   0  -9  -5    0.84    0.14
   0   9   5    0.45    0.14
   0   9   5    0.57    0.11
  -1  -9  -5   16.27    1.37
   1   9   5   15.80    1.37
   1   9   5   17.42    1.37
  -2  -9  -5   13.43    1.10
   2   9   5   13.30    1.10
   2   9   5   12.67    1.09
  -3  -9  -5   14.92    1.21
   3   9   5   12.75    1.21
   3   9   5   15.46    1.20
  -4  -9  -5    0.02    0.13
   4   9   5   -0.09    0.13
  -5  -9  -5    3.82    0.43
   5   9   5    5.21    0.44
  -6  -9  -5    6.74    0.62
   6   9   5    6.45    0.61
  -7  -9  -5    0.31    0.20
   7   9   5    0.59    0.21
  -8  -9  -5    0.27    0.21
   8   9   5    0.35    0.25
   9   9   5    0.39    0.30
   9 -10  -5    0.03    0.28
  -9  10   5    0.06    0.32
   8 -10  -5    3.35    0.41
  -8  10   5    3.45    0.45
   7 -10  -5    0.64    0.23
  -7  10   5    0.77    0.27
   6 -10  -5    0.53    0.19
  -6  10   5    0.78    0.26
   5 -10  -5    0.01    0.16
  -5  10   5    0.63    0.23
   4 -10  -5   12.00    1.03
  -4  10   5   12.26    1.09
   3 -10  -5    7.62    0.65
  -3  10   5    7.02    0.71
   2 -10  -5    0.54    0.14
  -2  10   5    0.45    0.20
   1 -10  -5    1.59    0.20
  -1  10   5    1.29    0.22
   0 -10  -5    0.03    0.12
   0  10   5    0.10    0.13
  -1 -10  -5    3.36    0.35
   1  10   5    3.73    0.35
   1  10   5    3.52    0.33
  -2 -10  -5    0.43    0.14
   2  10   5    0.58    0.15
   2  10   5    0.36    0.14
  -3 -10  -5    0.09    0.14
   3  10   5    0.28    0.15
   3  10   5    0.14    0.13
  -4 -10  -5    0.11    0.15
   4  10   5    0.04    0.15
  -5 -10  -5    0.36    0.17
   5  10   5    0.38    0.18
  -6 -10  -5    0.04    0.20
   6  10   5    0.13    0.19
  -7 -10  -5    0.25    0.20
   7  10   5    0.48    0.23
  -8 -10  -5    1.36    0.31
   8  10   5    1.09    0.30
   9  10   5    0.11    0.31
   9 -11  -5    0.14    0.35
  -9  11   5    0.31    0.37
   8 -11  -5    0.65    0.28
  -8  11   5    1.21    0.34
   7 -11  -5   -0.01    0.21
  -7  11   5    0.22    0.28
   6 -11  -5    0.11    0.18
  -6  11   5    0.28    0.26
   5 -11  -5    0.28    0.18
  -5  11   5    0.14    0.28
   4 -11  -5    3.08    0.34
  -4  11   5    3.47    0.44
   3 -11  -5    0.29    0.15
  -3  11   5   -0.01    0.24
   2 -11  -5    0.19    0.13
  -2  11   5    0.25    0.21
   1 -11  -5    1.25    0.20
  -1  11   5    1.35    0.23
   0 -11  -5    0.08    0.13
   0  11   5    0.25    0.15
  -1 -11  -5    1.54    0.21
   1  11   5    1.53    0.21
  -2 -11  -5    0.26    0.15
   2  11   5    0.12    0.14
   2  11   5    0.33    0.16
  -3 -11  -5    2.20    0.26
   3  11   5    2.37    0.28
  -4 -11  -5    1.30    0.22
   4  11   5    1.42    0.22
  -5 -11  -5    0.13    0.20
   5  11   5    0.05    0.18
  -6 -11  -5    0.25    0.20
   6  11   5    0.27    0.21
  -7 -11  -5    0.06    0.25
   7  11   5   -0.05    0.23
   8  11   5    0.92    0.31
   9 -12  -5   -0.26    0.38
   8 -12  -5   -0.02    0.27
  -8  12   5    0.13    0.36
   7 -12  -5    0.11    0.24
  -7  12   5    0.29    0.31
   6 -12  -5    0.54    0.21
  -6  12   5    0.26    0.24
   5 -12  -5    0.36    0.19
  -5  12   5    0.17    0.30
   4 -12  -5    0.47    0.18
  -4  12   5    0.68    0.25
   3 -12  -5   22.93    1.93
  -3  12   5   23.27    1.97
   2 -12  -5    3.15    0.33
  -2  12   5    3.08    0.39
   1 -12  -5   -0.08    0.14
  -1  12   5    0.27    0.20
   0 -12  -5    0.10    0.15
   0  12   5    0.19    0.19
  -1 -12  -5   -0.04    0.14
   1  12   5    0.16    0.17
  -2 -12  -5    0.01    0.15
   2  12   5    0.49    0.19
  -3 -12  -5    2.31    0.29
   3  12   5    2.46    0.30
  -4 -12  -5    0.13    0.17
   4  12   5    0.26    0.20
  -5 -12  -5    1.27    0.26
   5  12   5    1.22    0.24
  -6 -12  -5    0.16    0.24
   6  12   5    0.00    0.22
  -7 -12  -5    0.44    0.25
   7  12   5    0.25    0.26
   8  12   5    0.47    0.37
   8 -13  -5    0.68    0.33
  -8  13   5    0.28    0.38
   7 -13  -5    0.03    0.26
  -7  13   5    0.06    0.36
   6 -13  -5   -0.02    0.22
  -6  13   5    0.55    0.35
   5 -13  -5    1.59    0.29
  -5  13   5    1.90    0.40
   4 -13  -5    0.12    0.18
  -4  13   5    0.10    0.23
   3 -13  -5    3.83    0.39
  -3  13   5    3.24    0.46
   2 -13  -5    0.08    0.17
  -2  13   5    0.52    0.26
   1 -13  -5    0.16    0.16
  -1  13   5    0.02    0.21
   0 -13  -5    0.00    0.16
   0  13   5   -0.07    0.21
  -1 -13  -5    0.08    0.16
   1  13   5    0.14    0.18
  -2 -13  -5    0.22    0.18
   2  13   5    0.60    0.19
  -3 -13  -5    0.62    0.21
  -4 -13  -5    0.96    0.23
   4  13   5    1.88    0.28
  -5 -13  -5    4.99    0.54
   5  13   5    5.77    0.54
  -6 -13  -5    0.23    0.27
   6  13   5    0.24    0.27
   7  13   5    0.90    0.31
   7 -14  -5   -0.29    0.29
  -7  14   5    0.04    0.39
   6 -14  -5   -0.14    0.24
  -6  14   5   -0.01    0.38
   5 -14  -5    4.16    0.41
  -5  14   5    2.45    0.50
   4 -14  -5    0.36    0.20
  -4  14   5    0.50    0.36
   3 -14  -5    0.55    0.20
  -3  14   5    1.08    0.34
   2 -14  -5    0.65    0.20
  -2  14   5    0.51    0.27
   1 -14  -5    1.64    0.26
  -1  14   5    1.91    0.32
   0 -14  -5    0.58    0.20
   0  14   5    0.80    0.24
  -1 -14  -5    2.04    0.29
   1  14   5    2.28    0.30
  -2 -14  -5   -0.02    0.18
   2  14   5   -0.06    0.25
  -3 -14  -5    0.08    0.19
  -4 -14  -5    1.03    0.24
  -5 -14  -5    3.81    0.45
  -6 -14  -5    0.19    0.27
   6  14   5    0.54    0.31
   7  14   5    0.04    0.33
   6 -15  -5    0.32    0.28
  -6  15   5    0.72    0.44
   5 -15  -5    0.11    0.24
  -5  15   5    0.49    0.42
   4 -15  -5    0.03    0.22
  -4  15   5   -0.08    0.38
   3 -15  -5    0.16    0.21
  -3  15   5    0.65    0.35
   2 -15  -5    1.69    0.28
  -2  15   5    2.01    0.38
   1 -15  -5    0.08    0.19
  -1  15   5    0.14    0.27
   0 -15  -5    0.15    0.19
   0  15   5   -0.08    0.27
  -1 -15  -5    0.83    0.23
   1  15   5    1.33    0.27
  -2 -15  -5    1.35    0.28
  -3 -15  -5   -0.27    0.20
  -4 -15  -5    1.07    0.27
  -5 -15  -5   -0.08    0.30
   5 -16  -5   -0.01    0.27
  -5  16   5    0.71    0.47
   4 -16  -5    0.18    0.26
  -4  16   5    0.68    0.46
   3 -16  -5    0.56    0.25
  -3  16   5    0.66    0.41
   2 -16  -5    0.32    0.23
  -2  16   5    0.30    0.35
   1 -16  -5    0.04    0.21
  -1  16   5   -0.02    0.35
   0 -16  -5   -0.03    0.21
   0  16   5   -0.04    0.27
  -1 -16  -5    0.18    0.26
   1  16   5    0.48    0.31
  -2 -16  -5    1.73    0.31
  -3 -16  -5   -0.01    0.24
  -4 -16  -5   -0.12    0.26
  -5 -16  -5    1.06    0.33
   4 -17  -5   -0.04    0.32
  -4  17   5    0.54    0.50
   3 -17  -5    0.19    0.26
  -3  17   5    0.40    0.46
   2 -17  -5    0.45    0.27
  -2  17   5    0.29    0.41
   1 -17  -5   -0.05    0.25
  -1  17   5    0.22    0.35
   0 -17  -5    0.14    0.25
   0  17   5    0.86    0.39
  -1 -17  -5    0.20    0.25
  -2 -17  -5    0.07    0.27
  -3 -17  -5   -0.28    0.29
  -4 -17  -5    0.05    0.31
  -2  18   5    1.02    0.51
   1 -18  -5    0.01    0.28
  -1  18   5   -0.07    0.42
   0 -18  -5   -0.15    0.28
   0  18   5    0.60    0.41
  -1 -18  -5    0.25    0.30
  -2 -18  -5    0.09    0.30
   1  18  -6    0.56    0.37
   0  18  -6    0.75    0.36
   2 -18   6    0.05    0.29
   3 -18   6    0.14    0.36
  -4 -17   6    1.27    0.40
   3  17  -6    0.39    0.36
   2  17  -6    0.30    0.32
   1  17  -6    0.90    0.34
   0  17  -6    0.11    0.30
  -1  17  -6    0.41    0.31
   1 -17   6    0.35    0.24
  -2  17  -6    0.12    0.32
   2 -17   6    0.31    0.25
  -3  17  -6    0.10    0.33
   3 -17   6   -0.08    0.31
   4 -17   6    1.88    0.40
  -5 -16   6    0.36    0.35
  -4 -16   6    0.26    0.31
  -3 -16   6    1.37    0.34
   2  16  -6    0.11    0.28
   1  16  -6    1.86    0.34
   0  16  -6    0.18    0.27
  -1  16  -6    0.45    0.28
   1 -16   6    0.81    0.24
  -2  16  -6    1.67    0.33
   2 -16   6    1.39    0.28
  -3  16  -6    0.72    0.32
   3 -16   6    1.13    0.28
  -4  16  -6   -0.26    0.30
   4 -16   6   -0.05    0.26
  -5  16  -6   -0.22    0.37
   5 -16   6    0.05    0.32
  -6 -15   6   -0.06    0.34
  -5 -15   6    0.05    0.30
  -4 -15   6    2.88    0.41
  -3 -15   6    1.13    0.30
  -2 -15   6    1.00    0.27
   1  15  -6   -0.02    0.23
   0  15  -6    4.89    0.49
   0 -15   6    4.60    0.47
  -1  15  -6   -0.28    0.22
   1 -15   6   -0.24    0.20
  -2  15  -6    1.52    0.26
   2 -15   6    1.17    0.24
  -3  15  -6    0.12    0.25
   3 -15   6    0.02    0.21
  -4  15  -6    0.13    0.26
   4 -15   6    0.34    0.24
  -5  15  -6    0.07    0.33
   5 -15   6    0.01    0.25
  -6  15  -6    0.47    0.42
   6 -15   6    0.45    0.30
   7  14  -6    0.13    0.37
   6  14  -6    0.12    0.29
  -6 -14   6   -0.01    0.29
   5  14  -6    0.34    0.28
  -5 -14   6    0.58    0.27
  -4 -14   6    0.26    0.24
  -3 -14   6   -0.08    0.22
  -2 -14   6    1.42    0.27
  -1 -14   6    1.19    0.21
   0  14  -6    6.82    0.67
   0 -14   6    7.08    0.63
  -1  14  -6    0.48    0.21
   1 -14   6    0.69    0.19
  -2  14  -6    0.64    0.22
   2 -14   6    0.25    0.18
  -3  14  -6    2.39    0.34
   3 -14   6    2.22    0.31
  -4  14  -6    0.74    0.21
   4 -14   6    0.37    0.22
  -5  14  -6    0.41    0.28
   5 -14   6    0.18    0.26
  -6  14  -6   -0.03    0.34
   6 -14   6    0.23    0.27
  -7  14  -6    0.22    0.50
   7 -14   6    0.68    0.32
   7  13  -6    0.27    0.32
   6  13  -6    0.03    0.29
  -6 -13   6    0.33    0.26
   5  13  -6    0.16    0.23
  -5 -13   6    0.15    0.23
   4  13  -6   -0.08    0.21
  -4 -13   6    0.08    0.21
   3  13  -6    1.19    0.30
  -3 -13   6    1.33    0.25
  -2 -13   6    2.43    0.32
  -1 -13   6    1.78    0.26
  -1 -13   6    1.30    0.22
   0  13  -6    3.74    0.42
   0 -13   6    3.89    0.38
  -1  13  -6   -0.07    0.14
   1 -13   6    0.00    0.17
  -2  13  -6    7.23    0.63
   2 -13   6    5.95    0.59
  -3  13  -6    0.00    0.20
   3 -13   6   -0.03    0.17
  -4  13  -6    1.05    0.26
   4 -13   6    1.82    0.28
  -5  13  -6    0.10    0.24
   5 -13   6   -0.06    0.20
  -6  13  -6    0.13    0.31
   6 -13   6   -0.06    0.23
  -7  13  -6    2.70    0.52
   7 -13   6    2.69    0.40
  -8  13  -6    0.34    0.52
   8  12  -6    0.38    0.35
   7  12  -6    0.32    0.28
  -7 -12   6    0.58    0.28
   6  12  -6   -0.02    0.24
  -6 -12   6   -0.20    0.22
   5  12  -6    0.37    0.25
  -5 -12   6    0.45    0.22
   4  12  -6    1.67    0.27
  -4 -12   6    1.03    0.24
   3  12  -6    2.70    0.29
  -3 -12   6    1.69    0.29
   2  12  -6    0.63    0.17
  -2 -12   6    0.85    0.20
  -1 -12   6    0.93    0.20
  -1 -12   6    0.61    0.16
   0 -12   6   21.95    1.79
   0 -12   6   20.67    1.77
  -1  12  -6    8.95    0.79
   1 -12   6    8.95    0.77
  -2  12  -6    7.92    0.69
   2 -12   6    7.15    0.66
  -3  12  -6    0.36    0.19
   3 -12   6    0.33    0.19
  -4  12  -6    0.62    0.18
   4 -12   6    0.54    0.20
  -5  12  -6   -0.11    0.23
   5 -12   6   -0.06    0.19
  -6  12  -6    0.96    0.35
   6 -12   6    0.94    0.25
  -7  12  -6   -0.05    0.37
   7 -12   6   -0.03    0.25
  -8  12  -6    0.56    0.46
   8 -12   6    0.80    0.33
   8  11  -6    0.98    0.33
   7  11  -6    0.10    0.24
  -7 -11   6    0.07    0.23
   6  11  -6    0.12    0.22
  -6 -11   6    0.71    0.26
   5  11  -6   -0.22    0.19
  -5 -11   6    0.00    0.19
   4  11  -6    0.18    0.18
  -4 -11   6    0.31    0.18
   3  11  -6    1.12    0.21
  -3 -11   6    1.10    0.21
   2  11  -6    0.16    0.16
  -2 -11   6    0.20    0.17
  -2 -11   6    0.13    0.12
   1  11  -6    0.61    0.16
  -1 -11   6    0.71    0.15
  -1 -11   6    1.07    0.19
   0 -11   6   36.25    2.97
   0 -11   6   35.88    2.99
  -1  11  -6    3.52    0.34
   1 -11   6    2.64    0.30
  -2  11  -6    0.60    0.18
   2 -11   6    0.38    0.15
  -3  11  -6    6.31    0.58
   3 -11   6    6.01    0.56
  -4  11  -6    0.03    0.17
   4 -11   6   -0.11    0.17
  -5  11  -6    0.32    0.22
   5 -11   6    0.35    0.19
  -6  11  -6    0.63    0.29
   6 -11   6    1.32    0.24
  -7  11  -6    0.38    0.35
   7 -11   6    0.44    0.24
  -8  11  -6    0.73    0.42
   8 -11   6    0.58    0.32
   9  10  -6   -0.01    0.32
   8  10  -6   -0.10    0.27
   7  10  -6    2.34    0.32
  -7 -10   6    1.01    0.27
   6  10  -6    0.42    0.22
  -6 -10   6    0.31    0.20
   5  10  -6    0.74    0.20
  -5 -10   6    0.38    0.19
   4  10  -6   -0.13    0.15
  -4 -10   6   -0.05    0.16
   3  10  -6    1.25    0.20
  -3 -10   6    1.31    0.21
   2  10  -6    2.13    0.24
  -2 -10   6    2.05    0.23
  -2 -10   6    2.38    0.27
   1  10  -6    0.97    0.14
  -1 -10   6    0.86    0.14
  -1 -10   6    0.64    0.17
   0  10  -6    0.10    0.11
   0 -10   6    0.13    0.13
   0 -10   6    0.20    0.10
   1 -10   6    0.06    0.13
   1 -10   6    0.05    0.11
  -2  10  -6   -0.09    0.14
   2 -10   6    0.07    0.12
  -3  10  -6   -0.07    0.15
   3 -10   6   -0.04    0.13
  -4  10  -6    0.27    0.17
   4 -10   6    0.09    0.15
  -5  10  -6   -0.09    0.19
   5 -10   6    0.05    0.17
  -6  10  -6    0.05    0.25
   6 -10   6    0.05    0.15
  -7  10  -6    1.49    0.39
   7 -10   6    2.06    0.30
   8 -10   6    0.19    0.26
   9 -10   6    0.36    0.32
   9   9  -6    0.45    0.33
   8   9  -6    0.03    0.24
  -8  -9   6    0.01    0.23
   7   9  -6    3.50    0.38
  -7  -9   6    2.41    0.34
   6   9  -6    0.70    0.21
  -6  -9   6    0.50    0.20
   5   9  -6    1.19    0.22
  -5  -9   6    1.10    0.20
   4   9  -6    0.16    0.16
  -4  -9   6    0.50    0.14
   3   9  -6    0.59    0.15
  -3  -9   6    0.59    0.16
   2   9  -6    0.06    0.12
  -2  -9   6    0.00    0.10
  -2  -9   6    0.04    0.13
   1   9  -6    6.98    0.63
  -1  -9   6    7.40    0.63
  -1  -9   6    7.62    0.64
   0   9  -6    6.45    0.58
   0  -9   6    7.03    0.60
   0  -9   6    7.04    0.59
  -1   9  -6    0.16    0.09
   1  -9   6    0.26    0.13
   1  -9   6    0.05    0.10
  -2   9  -6    4.30    0.41
   2  -9   6    4.21    0.39
  -3   9  -6    0.08    0.14
   3  -9   6    0.12    0.13
  -4   9  -6    1.76    0.24
   4  -9   6    1.72    0.23
  -5   9  -6    0.97    0.22
   5  -9   6    1.07    0.20
  -6   9  -6    1.80    0.32
   6  -9   6    1.89    0.26
  -7   9  -6    0.09    0.34
   7  -9   6    0.27    0.21
   8  -9   6    0.13    0.23
   9  -9   6    0.02    0.32
   9   8  -6    0.32    0.30
   8   8  -6   -0.14    0.23
  -8  -8   6    0.11    0.21
   7   8  -6    0.87    0.25
  -7  -8   6    1.02    0.23
   6   8  -6    0.54    0.20
  -6  -8   6    0.75    0.21
   5   8  -6    0.91    0.19
  -5  -8   6    0.74    0.18
   4   8  -6    0.93    0.18
  -4  -8   6    1.18    0.19
   3   8  -6    1.21    0.17
  -3  -8   6    1.06    0.13
  -3  -8   6    0.90    0.17
   2   8  -6    1.05    0.17
  -2  -8   6    1.78    0.16
  -2  -8   6    1.37    0.18
   1   8  -6    0.48    0.12
  -1  -8   6    0.33    0.10
  -1  -8   6    0.67    0.13
   0   8  -6    0.07    0.08
   0  -8   6    0.05    0.08
   0  -8   6    0.18    0.11
  -1   8  -6   20.25    1.74
   1  -8   6   21.71    1.75
   1  -8   6   21.69    1.76
  -2   8  -6    0.22    0.12
  -2   8  -6    0.25    0.09
   2  -8   6    0.31    0.11
  -3   8  -6    0.69    0.14
   3  -8   6    0.39    0.13
   3  -8   6    0.48    0.11
  -4   8  -6    2.44    0.26
   4  -8   6    1.86    0.24
  -5   8  -6   12.30    0.94
   5  -8   6    9.40    0.92
  -6   8  -6    0.02    0.26
   6  -8   6    0.09    0.16
  -7   8  -6    1.64    0.34
   7  -8   6    1.85    0.27
   8  -8   6   -0.09    0.21
   9  -8   6    0.58    0.27
  10  -8   6    0.05    0.33
  10   7  -6    0.05    0.36
   9   7  -6   -0.03    0.26
   8   7  -6    0.51    0.24
  -8  -7   6    0.57    0.21
   7   7  -6    0.29    0.19
  -7  -7   6    0.18    0.18
   6   7  -6    4.68    0.45
  -6  -7   6    4.35    0.46
   5   7  -6    0.71    0.18
  -5  -7   6    0.94    0.18
   4   7  -6    2.13    0.24
  -4  -7   6    1.91    0.24
   3   7  -6   14.35    1.32
  -3  -7   6   15.28    1.32
  -3  -7   6   16.99    1.30
   2   7  -6    3.50    0.32
  -2  -7   6    3.42    0.33
  -2  -7   6    3.28    0.30
   1   7  -6    1.40    0.16
  -1  -7   6    1.65    0.15
  -1  -7   6    1.15    0.17
   0   7  -6    2.00    0.19
   0  -7   6    1.77    0.19
   0  -7   6    1.79    0.19
  -1   7  -6    0.06    0.08
   1  -7   6    0.12    0.09
   1  -7   6    0.09    0.09
  -2   7  -6    0.07    0.10
   2  -7   6    0.16    0.09
  -3   7  -6    4.51    0.44
   3  -7   6    5.13    0.42
   3  -7   6    4.60    0.43
  -4   7  -6    1.50    0.19
   4  -7   6    1.13    0.18
   4  -7   6    1.33    0.16
  -5   7  -6    1.69    0.25
   5  -7   6    1.97    0.23
  -6   7  -6   15.88    1.42
   6  -7   6   17.15    1.40
  -7   7  -6    0.87    0.31
   7  -7   6    1.14    0.22
   8  -7   6    0.33    0.21
   9  -7   6   -0.02    0.25
  10  -7   6    0.12    0.31
  10   6  -6    0.14    0.31
   9   6  -6    0.36    0.25
  -9  -6   6    0.77    0.27
   8   6  -6   -0.08    0.16
  -8  -6   6   -0.04    0.19
   7   6  -6    0.36    0.20
  -7  -6   6    0.84    0.19
   6   6  -6    0.09    0.15
  -6  -6   6    0.56    0.16
   5   6  -6   10.98    0.98
  -5  -6   6   11.88    0.98
   4   6  -6    0.07    0.12
  -4  -6   6    0.19    0.11
   3   6  -6    8.18    0.79
  -3  -6   6    9.58    0.79
  -3  -6   6    9.67    0.77
   2   6  -6    6.11    0.58
  -2  -6   6    6.73    0.58
  -2  -6   6    7.14    0.56
   1   6  -6    6.84    0.59
  -1  -6   6    7.18    0.60
  -1  -6   6    6.95    0.58
   0   6  -6    0.49    0.09
   0  -6   6    0.62    0.08
   0  -6   6    0.64    0.11
  -1   6  -6    2.50    0.24
   1  -6   6    2.81    0.26
   1  -6   6    2.59    0.24
  -2   6  -6    6.43    0.57
   2  -6   6    6.69    0.57
   2  -6   6    6.75    0.56
  -3   6  -6   16.67    1.38
   3  -6   6   15.64    1.37
   3  -6   6   16.98    1.36
  -4   6  -6   10.46    0.89
   4  -6   6   10.68    0.89
   4  -6   6   10.46    0.88
  -5   6  -6    1.27    0.23
   5  -6   6    1.71    0.19
   5  -6   6    1.83    0.22
  -6   6  -6    0.50    0.22
   6  -6   6    0.92    0.18
  -7   6  -6    4.34    0.45
   7  -6   6    3.71    0.41
   8  -6   6   -0.08    0.18
   9  -6   6    0.07    0.26
  10  -6   6    0.02    0.28
  10   5  -6    0.18    0.29
   9   5  -6    0.06    0.23
  -9  -5   6    0.09    0.20
   8   5  -6    0.45    0.22
  -8  -5   6    0.38    0.19
   7   5  -6   -0.14    0.17
  -7  -5   6    0.11    0.18
   6   5  -6    2.87    0.33
  -6  -5   6    3.32    0.33
   5   5  -6    1.95    0.24
  -5  -5   6    2.22    0.24
   4   5  -6   18.43    1.44
  -4  -5   6   16.29    1.43
   3   5  -6    0.70    0.13
  -3  -5   6    1.07    0.10
  -3  -5   6    1.10    0.15
   2   5  -6   50.73    4.32
  -2  -5   6   52.71    4.32
  -2  -5   6   54.19    4.31
   1   5  -6   28.74    2.45
  -1  -5   6   30.22    2.46
  -1  -5   6   30.38    2.44
   0   5  -6    3.21    0.31
   0  -5   6    3.68    0.31
   0  -5   6    3.77    0.32
   1  -5   6   29.13    2.30
   1  -5   6   28.32    2.30
   1  -5   6   26.60    2.31
   2  -5   6    1.95    0.21
   2  -5   6    2.11    0.21
   2  -5   6    2.43    0.21
  -3   5  -6    7.65    0.70
   3  -5   6    8.56    0.70
   3  -5   6    8.54    0.69
  -4   5  -6   26.29    2.21
   4  -5   6   27.97    2.20
   4  -5   6   25.83    2.21
  -5   5  -6    2.93    0.32
   5  -5   6    3.30    0.31
   5  -5   6    3.01    0.30
  -6   5  -6    1.47    0.27
   6  -5   6    1.46    0.20
   6  -5   6    1.75    0.22
   7  -5   6    0.01    0.16
   8  -5   6    1.34    0.24
   9  -5   6    0.32    0.23
 -10   5  -6   -0.02    0.28
  11   4  -6   -0.07    0.37
  10   4  -6   -0.08    0.27
   9   4  -6   -0.09    0.21
  -9  -4   6    0.05    0.20
   8   4  -6    0.89    0.23
  -8  -4   6    0.76    0.20
   7   4  -6    0.33    0.17
  -7  -4   6    0.51    0.16
   6   4  -6   -0.02    0.13
  -6  -4   6    0.16    0.13
   5   4  -6   39.11    3.15
  -5  -4   6   37.39    3.15
   4   4  -6    2.91    0.27
  -4  -4   6    2.97    0.24
  -4  -4   6    2.39    0.28
   3   4  -6    0.04    0.07
  -3  -4   6    0.07    0.03
  -3  -4   6    0.02    0.08
   2   4  -6    1.02    0.12
  -2  -4   6    0.59    0.11
  -2  -4   6    0.91    0.08
   1   4  -6    0.41    0.09
  -1  -4   6    0.81    0.10
  -1  -4   6    0.62    0.07
   0   4  -6    7.35    0.65
   0  -4   6    7.85    0.64
   0  -4   6    7.86    0.65
   1  -4   6   29.02    2.39
   1  -4   6   28.52    2.39
   1  -4   6   29.68    2.39
   2  -4   6    0.89    0.13
   2  -4   6    1.23    0.13
   2  -4   6    1.34    0.13
  -3   4  -6    9.38    0.85
   3  -4   6   10.96    0.85
   3  -4   6   10.26    0.85
  -4   4  -6    5.63    0.50
   4  -4   6    5.64    0.49
   4  -4   6    5.89    0.50
  -5   4  -6    2.15    0.29
   5  -4   6    2.56    0.26
   5  -4   6    3.03    0.28
  -6   4  -6    0.09    0.17
   6  -4   6    0.20    0.13
   6  -4   6    0.05    0.11
   7  -4   6    5.63    0.49
   7  -4   6    4.95    0.50
   8  -4   6    0.06    0.17
   8  -4   6    0.10    0.18
  -9   4  -6    0.18    0.22
 -10   4  -6   -0.15    0.25
 -11   4  -6    0.40    0.35
  11   3  -6    0.63    0.37
  10   3  -6   -0.21    0.29
   9   3  -6    0.15    0.22
  -9  -3   6    0.01    0.19
   8   3  -6    0.42    0.20
  -8  -3   6    0.11    0.19
   7   3  -6    0.61    0.17
  -7  -3   6    0.29    0.15
   6   3  -6    9.02    0.77
  -6  -3   6    8.88    0.77
   5   3  -6   10.62    0.87
  -5  -3   6    9.98    0.87
   4   3  -6    0.13    0.10
  -4  -3   6    0.27    0.04
  -4  -3   6   -0.03    0.07
   3   3  -6    8.70    0.75
  -3  -3   6    9.07    0.75
   2   3  -6    2.31    0.24
  -2  -3   6    2.96    0.25
   1   3  -6   13.77    1.14
  -1  -3   6   13.42    1.14
  -1  -3   6   13.86    1.12
   0  -3   6   34.93    2.91
   0  -3   6   35.85    2.90
   0  -3   6   35.42    2.91
   1  -3   6    7.65    0.63
   1  -3   6    7.58    0.63
   1  -3   6    7.45    0.63
   2  -3   6   26.72    2.16
   2  -3   6   26.76    2.16
   2  -3   6   25.50    2.16
  -3   3  -6   39.20    3.31
   3  -3   6   40.60    3.32
   3  -3   6   41.45    3.31
  -4   3  -6    2.12    0.22
   4  -3   6    2.19    0.22
   4  -3   6    2.07    0.22
  -5   3  -6    2.81    0.31
   5  -3   6    2.93    0.29
   5  -3   6    3.07    0.28
  -6   3  -6    0.16    0.13
   6  -3   6    0.04    0.12
   6  -3   6    0.20    0.13
   7  -3   6   -0.14    0.14
   7  -3   6   -0.01    0.14
  -8   3  -6    2.32    0.28
   8  -3   6    1.77    0.25
  -9   3  -6    0.00    0.21
   9  -3   6   -0.13    0.19
 -10   3  -6    0.10    0.26
 -11   3  -6   -0.02    0.37
  11   2  -6    0.52    0.35
  10   2  -6    0.25    0.25
 -10  -2   6   -0.19    0.23
   9   2  -6    0.51    0.22
  -9  -2   6    0.77    0.22
   8   2  -6    0.24    0.18
  -8  -2   6   -0.06    0.19
   7   2  -6    4.96    0.46
  -7  -2   6    4.44    0.45
   6   2  -6   12.41    0.99
  -6  -2   6   10.96    0.98
   5   2  -6   13.87    1.10
  -5  -2   6   13.24    1.08
  -5  -2   6   12.20    1.10
   4   2  -6   -0.11    0.08
  -4  -2   6    0.07    0.09
  -4  -2   6    0.02    0.04
   3   2  -6    3.96    0.34
  -3  -2   6    3.64    0.34
   2   2  -6   -0.01    0.06
  -2  -2   6    0.10    0.05
   1   2  -6    0.00    0.03
   1   2  -6   -0.02    0.06
  -1  -2   6   -0.01    0.05
   0  -2   6    0.13    0.04
   0  -2   6    0.06    0.05
   0  -2   6    0.03    0.05
   1  -2   6  107.55    8.91
   1  -2   6  110.96    8.91
   1  -2   6  108.46    8.91
   2  -2   6    9.97    0.86
   2  -2   6   10.39    0.86
   2  -2   6   10.66    0.86
  -3   2  -6    1.64    0.16
   3  -2   6    1.34    0.17
   3  -2   6    1.79    0.17
  -4   2  -6    1.12    0.15
   4  -2   6    1.10    0.15
   4  -2   6    1.46    0.16
  -5   2  -6    0.12    0.11
   5  -2   6    0.07    0.10
   5  -2   6    0.32    0.10
   6  -2   6    9.92    0.88
   6  -2   6   10.98    0.89
  -7   2  -6    0.55    0.16
   7  -2   6    0.40    0.14
  -8   2  -6    4.29    0.43
   8  -2   6    4.18    0.43
  -9   2  -6    0.20    0.21
   9  -2   6    0.47    0.18
 -10   2  -6    0.05    0.29
  10  -2   6    0.05    0.22
 -11   2  -6    0.24    0.37
  11   1  -6    0.32    0.34
  10   1  -6    0.10    0.25
 -10  -1   6   -0.09    0.26
   9   1  -6    0.46    0.22
  -9  -1   6    0.71    0.22
   8   1  -6    0.10    0.18
  -8  -1   6    0.05    0.16
   7   1  -6   -0.03    0.14
  -7  -1   6   -0.08    0.13
   6   1  -6    0.73    0.15
  -6  -1   6    0.53    0.14
   5   1  -6   -0.02    0.06
   5   1  -6    0.02    0.10
  -5  -1   6   -0.04    0.09
   4   1  -6   18.48    1.50
   4   1  -6   17.97    1.48
  -4  -1   6   17.85    1.50
   3   1  -6   10.88    1.01
   3   1  -6   12.83    0.99
  -3  -1   6   11.78    1.01
   2   1  -6    0.90    0.08
   2   1  -6    1.14    0.12
  -2  -1   6    0.96    0.11
   1   1  -6   26.31    2.16
   1   1  -6   26.85    2.17
  -1  -1   6   26.25    2.17
   0   1  -6   22.78    1.88
   0  -1   6   22.35    1.89
   0  -1   6   23.74    1.89
  -1   1  -6   63.05    5.32
   1  -1   6   66.99    5.33
   1  -1   6   65.17    5.32
  -2   1  -6    0.78    0.09
   2  -1   6    0.59    0.09
   2  -1   6    0.70    0.08
  -3   1  -6   66.16    5.46
  -3   1  -6   69.42    5.46
   3  -1   6   64.05    5.46
  -4   1  -6    0.38    0.10
  -4   1  -6    0.88    0.11
   4  -1   6    0.26    0.09
  -5   1  -6    1.52    0.18
  -5   1  -6    1.67    0.17
   5  -1   6    1.43    0.18
  -6   1  -6    1.74    0.22
   6  -1   6    2.10    0.23
  -7   1  -6   13.62    1.02
   7  -1   6   10.56    1.01
  -8   1  -6    0.20    0.20
   8  -1   6    0.06    0.16
  -9   1  -6    0.08    0.20
   9  -1   6   -0.07    0.18
 -10   1  -6    0.12    0.24
  10  -1   6   -0.06    0.23
 -11   1  -6   -0.33    0.31
  11   0  -6   -0.11    0.32
  10   0  -6    0.40    0.24
 -10   0   6    0.24    0.24
   9   0  -6    0.35    0.20
  -9   0   6    0.24    0.20
   8   0  -6    0.22    0.18
  -8   0   6    0.33    0.18
   7   0  -6    3.09    0.33
  -7   0   6    3.19    0.34
   6   0  -6    2.97    0.31
   6   0  -6    3.59    0.34
  -6   0   6    3.77    0.34
   5   0  -6   10.59    0.86
   5   0  -6   10.43    0.84
  -5   0   6    9.34    0.86
   4   0  -6    5.16    0.41
   4   0  -6    5.35    0.43
  -4   0   6    4.09    0.43
   3   0  -6   92.08    7.53
   3   0  -6   93.61    7.52
  -3   0   6   90.19    7.53
   2   0  -6    3.60    0.34
   2   0  -6    4.09    0.33
  -2   0   6    3.85    0.34
   1   0  -6  108.83    8.93
  -1   0   6  109.83    8.94
  -1   0   6  109.28    8.94
   0   0  -6   67.87    5.54
   0   0   6   69.88    5.54
   0   0   6   65.31    5.54
  -1   0  -6    4.90    0.44
   1   0   6    5.07    0.43
   1   0   6    6.00    0.45
  -2   0  -6    0.45    0.08
   2   0   6    0.66    0.09
   2   0   6    0.63    0.06
  -3   0  -6   69.77    5.58
  -3   0  -6   63.95    5.57
   3   0   6   71.75    5.59
  -4   0  -6    3.82    0.33
  -4   0  -6    4.31    0.35
   4   0   6    3.77    0.35
  -5   0  -6    2.09    0.26
  -5   0  -6    2.92    0.24
   5   0   6    2.70    0.27
  -6   0  -6    0.59    0.14
   6   0   6    0.44    0.14
  -7   0  -6    7.82    0.67
   7   0   6    7.25    0.66
  -8   0  -6    1.37    0.24
   8   0   6    1.86    0.25
  -9   0  -6    0.88    0.22
   9   0   6    0.59    0.21
 -10   0  -6    0.25    0.27
  10   0   6   -0.02    0.22
 -11   0  -6    0.01    0.35
  11   0   6    0.31    0.30
  10  -1  -6    0.17    0.24
 -10   1   6    0.43    0.25
   9  -1  -6   -0.07    0.18
  -9   1   6    0.15    0.20
   8  -1  -6    1.52    0.24
  -8   1   6    1.72    0.25
   7  -1  -6    9.29    0.83
  -7   1   6    9.92    0.84
   6  -1  -6    1.18    0.15
   6  -1  -6    1.14    0.17
  -6   1   6    1.06    0.18
   5  -1  -6    0.46    0.11
   5  -1  -6    0.39    0.09
  -5   1   6    0.39    0.12
   4  -1  -6   16.64    1.28
   4  -1  -6   15.91    1.27
  -4   1   6   13.76    1.28
   3  -1  -6   68.85    5.53
   3  -1  -6   67.50    5.54
  -3   1   6   66.47    5.54
   2  -1  -6   26.63    2.21
   2  -1  -6   27.72    2.20
  -2   1   6   26.05    2.21
   1  -1  -6    0.17    0.05
  -1   1   6    0.66    0.07
  -1   1   6    0.12    0.05
   0   1   6   60.14    5.03
   0   1   6   62.52    5.02
  -1  -1  -6    5.09    0.45
   1   1   6    5.04    0.45
   1   1   6    5.72    0.45
  -2  -1  -6    0.40    0.07
  -2  -1  -6    0.41    0.04
   2   1   6    0.45    0.09
  -3  -1  -6  144.44   11.80
   3   1   6  144.14   11.80
  -4  -1  -6    8.95    0.71
  -4  -1  -6    8.66    0.73
   4   1   6    7.56    0.73
  -5  -1  -6    0.76    0.14
   5   1   6    0.82    0.14
  -6  -1  -6    1.51    0.20
   6   1   6    1.56    0.21
  -7  -1  -6    0.42    0.16
   7   1   6    0.52    0.16
  -8  -1  -6    0.09    0.16
   8   1   6    0.23    0.18
  -9  -1  -6    2.84    0.36
   9   1   6    3.47    0.37
 -10  -1  -6    0.22    0.25
  10   1   6    0.55    0.25
 -11  -1  -6   -0.01    0.35
  11   1   6   -0.21    0.30
 -11   2   6    0.04    0.32
 -10   2   6    2.61    0.37
   9  -2  -6    0.71    0.23
  -9   2   6    0.75    0.24
   8  -2  -6    2.69    0.30
  -8   2   6    2.53    0.32
   7  -2  -6    0.31    0.16
   7  -2  -6    0.42    0.14
  -7   2   6    0.41    0.16
   6  -2  -6    0.92    0.18
   6  -2  -6    1.23    0.16
  -6   2   6    1.45    0.19
   5  -2  -6    1.07    0.14
   5  -2  -6    1.12    0.14
  -5   2   6    0.82    0.15
   4  -2  -6   -0.22    0.07
   4  -2  -6   -0.08    0.07
  -4   2   6   -0.10    0.09
   3  -2  -6    4.39    0.37
   3  -2  -6    4.70    0.38
  -3   2   6    3.82    0.38
   2  -2  -6    0.04    0.06
   2  -2  -6    0.20    0.06
  -2   2   6    0.24    0.07
   1  -2  -6    0.16    0.05
  -1   2   6    0.04    0.05
  -1   2   6    0.10    0.05
   0  -2  -6   23.43    1.89
   0   2   6   22.93    1.89
   0   2   6   22.71    1.89
  -1  -2  -6    6.40    0.63
   1   2   6    8.12    0.63
   1   2   6    7.93    0.64
  -2  -2  -6   30.05    2.42
   2   2   6   28.76    2.42
  -3  -2  -6    3.28    0.27
   3   2   6    2.48    0.27
  -4  -2  -6    0.70    0.12
   4   2   6    0.69    0.13
  -5  -2  -6    0.03    0.10
   5   2   6    0.02    0.11
  -6  -2  -6    0.33    0.13
   6   2   6    0.38    0.14
  -7  -2  -6    0.85    0.18
   7   2   6    1.20    0.20
  -8  -2  -6    0.04    0.16
   8   2   6   -0.16    0.17
  -9  -2  -6   -0.02    0.22
   9   2   6    0.11    0.20
 -10  -2  -6    0.43    0.26
  10   2   6    0.19    0.24
 -11  -2  -6    0.01    0.32
  11   2   6   -0.34    0.30
 -11   3   6    0.70    0.39
 -10   3   6   -0.26    0.30
  -9   3   6    0.65    0.24
   8  -3  -6    2.20    0.29
  -8   3   6    2.22    0.30
   7  -3  -6    1.26    0.17
   7  -3  -6    0.82    0.18
  -7   3   6    1.01    0.20
   6  -3  -6    1.34    0.18
   6  -3  -6    1.32    0.19
  -6   3   6    1.59    0.21
   5  -3  -6    0.81    0.13
   5  -3  -6    1.12    0.14
  -5   3   6    0.73    0.14
   4  -3  -6   28.60    2.36
   4  -3  -6   29.40    2.36
  -4   3   6   27.87    2.36
   3  -3  -6  153.09   12.52
   3  -3  -6  153.74   12.52
  -3   3   6  152.63   12.53
   2  -3  -6    2.74    0.27
   2  -3  -6    3.47    0.27
  -2   3   6    2.90    0.27
   1  -3  -6   23.45    2.05
  -1   3   6   25.42    2.05
  -1   3   6   26.09    2.05
   0  -3  -6   -0.01    0.05
   0   3   6    0.21    0.05
   0   3   6    0.01    0.05
  -1  -3  -6    0.84    0.12
   1   3   6    1.35    0.11
   1   3   6    1.07    0.13
  -2  -3  -6    0.09    0.07
   2   3   6    0.06    0.07
   2   3   6    0.05    0.03
  -3  -3  -6   72.62    5.76
   3   3   6   67.96    5.76
  -4  -3  -6    0.85    0.13
   4   3   6    0.73    0.13
  -5  -3  -6    0.27    0.11
   5   3   6    0.10    0.12
  -6  -3  -6    3.17    0.31
   6   3   6    2.91    0.32
  -7  -3  -6    2.37    0.26
   7   3   6    1.81    0.26
  -8  -3  -6    2.63    0.29
   8   3   6    1.90    0.28
  -9  -3  -6    0.09    0.20
   9   3   6   -0.15    0.20
 -10  -3  -6    0.08    0.25
  10   3   6   -0.19    0.25
 -11  -3  -6   -0.05    0.36
  11   3   6    0.41    0.36
 -11   4   6    0.01    0.41
 -10   4   6    0.20    0.28
  -9   4   6    0.60    0.24
  -8   4   6    0.08    0.19
   7  -4  -6    0.37    0.16
   7  -4  -6    0.42    0.16
  -7   4   6    0.50    0.18
   6  -4  -6    0.17    0.12
   6  -4  -6    0.19    0.11
  -6   4   6   -0.15    0.13
   5  -4  -6   11.84    1.02
   5  -4  -6   12.19    1.02
  -5   4   6   12.63    1.03
   4  -4  -6    7.14    0.66
   4  -4  -6    8.00    0.65
  -4   4   6    8.14    0.66
   3  -4  -6    0.05    0.07
   3  -4  -6    0.13    0.07
  -3   4   6    0.27    0.09
   2  -4  -6    0.92    0.11
   2  -4  -6    0.82    0.10
  -2   4   6    0.88    0.12
   1  -4  -6   57.68    4.76
  -1   4   6   58.11    4.76
  -1   4   6   58.49    4.76
   0  -4  -6    2.95    0.27
   0   4   6    3.27    0.28
   0   4   6    3.03    0.27
  -1  -4  -6   12.26    1.07
   1   4   6   12.53    1.07
   1   4   6   14.22    1.08
  -2  -4  -6    0.25    0.08
   2   4   6    0.62    0.10
   2   4   6    0.01    0.08
  -3  -4  -6   -0.06    0.08
   3   4   6   -0.14    0.08
   3   4   6    0.21    0.05
  -4  -4  -6   21.33    1.68
   4   4   6   19.32    1.69
  -5  -4  -6    6.37    0.51
   5   4   6    5.16    0.51
  -6  -4  -6    4.44    0.40
   6   4   6    4.04    0.41
  -7  -4  -6    0.08    0.15
   7   4   6    0.01    0.16
  -8  -4  -6   -0.03    0.17
   8   4   6    0.27    0.19
  -9  -4  -6   -0.09    0.20
   9   4   6    0.22    0.22
 -10  -4  -6    0.82    0.27
  10   4   6    0.40    0.27
 -11   5   6   -0.23    0.42
 -10   5   6    0.45    0.30
  -9   5   6    0.26    0.23
   8  -5  -6    0.97    0.21
  -8   5   6    1.20    0.25
   7  -5  -6    0.09    0.16
  -7   5   6   -0.04    0.16
   6  -5  -6    0.02    0.14
   6  -5  -6    0.14    0.13
  -6   5   6   -0.13    0.15
   5  -5  -6    0.02    0.09
   5  -5  -6    0.02    0.12
  -5   5   6    0.07    0.13
   4  -5  -6    7.60    0.70
   4  -5  -6    8.45    0.69
  -4   5   6    8.58    0.71
   3  -5  -6    0.00    0.06
   3  -5  -6   -0.03    0.08
  -3   5   6    0.15    0.11
   2  -5  -6    1.41    0.17
  -2   5   6    1.82    0.19
  -2   5   6    1.63    0.16
   1  -5  -6   23.87    1.97
  -1   5   6   24.26    1.97
  -1   5   6   23.68    1.98
   0  -5  -6  112.20    9.18
   0   5   6  104.96    9.19
   0   5   6  119.35    9.18
  -1  -5  -6    6.15    0.54
   1   5   6    6.10    0.54
   1   5   6    7.07    0.56
  -2  -5  -6   27.28    2.26
   2   5   6   26.46    2.26
   2   5   6   28.30    2.25
  -3  -5  -6    0.81    0.13
   3   5   6    0.62    0.13
   3   5   6    1.05    0.10
  -4  -5  -6    4.40    0.37
   4   5   6    3.66    0.37
  -5  -5  -6    1.33    0.17
   5   5   6    0.62    0.16
  -6  -5  -6    4.77    0.45
   6   5   6    4.95    0.46
  -7  -5  -6    0.23    0.16
   7   5   6   -0.10    0.17
  -8  -5  -6    0.76    0.19
   8   5   6   -0.07    0.19
  -9  -5  -6   -0.14    0.24
   9   5   6    0.09    0.22
 -10  -5  -6    0.11    0.26
  10   5   6   -0.09    0.28
 -11   6   6    0.07    0.39
 -10   6   6    0.09    0.30
  -9   6   6    0.49    0.26
   8  -6  -6    5.44    0.57
  -8   6   6    6.08    0.58
   7  -6  -6    3.70    0.36
  -7   6   6    2.92    0.38
   6  -6  -6    1.85    0.24
  -6   6   6    1.90    0.26
   5  -6  -6    1.66    0.21
  -5   6   6    1.66    0.23
   4  -6  -6    0.78    0.11
   4  -6  -6    1.02    0.14
  -4   6   6    0.70    0.16
   3  -6  -6    0.96    0.11
   3  -6  -6    0.70    0.13
  -3   6   6    0.68    0.16
   2  -6  -6    5.20    0.48
  -2   6   6    6.27    0.52
  -2   6   6    5.57    0.47
   1  -6  -6    0.67    0.12
  -1   6   6    1.06    0.16
  -1   6   6    0.87    0.11
   0  -6  -6    1.24    0.15
   0   6   6    1.33    0.14
   0   6   6    1.26    0.18
  -1  -6  -6    0.15    0.07
   1   6   6    0.23    0.09
   1   6   6    0.06    0.07
  -2  -6  -6    1.95    0.24
   2   6   6    2.47    0.24
   2   6   6    2.66    0.23
  -3  -6  -6    0.18    0.10
   3   6   6    0.35    0.08
   3   6   6    0.15    0.10
  -4  -6  -6    0.32    0.12
   4   6   6    0.64    0.14
  -5  -6  -6   -0.06    0.12
   5   6   6    0.05    0.14
  -6  -6  -6    3.70    0.38
   6   6   6    4.07    0.39
  -7  -6  -6    1.30    0.21
   7   6   6    0.75    0.21
  -8  -6  -6    0.08    0.19
   8   6   6    0.36    0.20
  -9  -6  -6    0.20    0.23
   9   6   6    0.15    0.23
 -10  -6  -6   -0.17    0.32
  10   6   6   -0.06    0.29
 -10   7   6    0.32    0.32
  -9   7   6    0.19    0.26
   8  -7  -6    0.42    0.23
  -8   7   6    0.83    0.23
   7  -7  -6    0.12    0.19
  -7   7   6   -0.03    0.20
   6  -7  -6   -0.04    0.16
  -6   7   6   -0.09    0.17
   5  -7  -6    0.83    0.17
  -5   7   6    1.36    0.22
   4  -7  -6    0.06    0.12
  -4   7   6    0.10    0.12
   3  -7  -6    0.23    0.07
   3  -7  -6    0.05    0.10
  -3   7   6    0.03    0.14
   2  -7  -6    0.05    0.09
  -2   7   6    0.06    0.07
  -2   7   6    0.13    0.14
   1  -7  -6   86.31    6.64
  -1   7   6   72.88    6.65
  -1   7   6   83.30    6.63
   0  -7  -6    3.36    0.31
   0   7   6    3.46    0.30
   0   7   6    3.08    0.32
  -1  -7  -6   12.51    1.08
   1   7   6   14.25    1.08
   1   7   6   12.04    1.07
  -2  -7  -6    4.78    0.42
   2   7   6    5.25    0.41
   2   7   6    3.92    0.41
  -3  -7  -6    1.18    0.16
   3   7   6    1.20    0.14
   3   7   6    0.90    0.16
  -4  -7  -6    5.56    0.53
   4   7   6    6.55    0.54
  -5  -7  -6    0.01    0.13
   5   7   6    0.09    0.14
  -6  -7  -6    8.06    0.68
   6   7   6    7.36    0.69
  -7  -7  -6    0.73    0.22
   7   7   6    1.01    0.21
  -8  -7  -6    0.52    0.21
   8   7   6    0.11    0.20
  -9  -7  -6    0.10    0.23
   9   7   6    0.27    0.24
 -10   8   6    0.29    0.37
   9  -8  -6    0.17    0.29
  -9   8   6    0.96    0.30
   8  -8  -6    6.01    0.59
  -8   8   6    6.39    0.63
   7  -8  -6   -0.20    0.21
  -7   8   6    0.03    0.21
   6  -8  -6    0.05    0.15
  -6   8   6   -0.04    0.20
   5  -8  -6    0.25    0.14
  -5   8   6    0.09    0.19
   4  -8  -6    1.18    0.17
  -4   8   6    1.03    0.23
   3  -8  -6   -0.01    0.11
  -3   8   6    0.16    0.17
   2  -8  -6    0.07    0.11
  -2   8   6    0.07    0.17
   1  -8  -6    2.65    0.28
  -1   8   6    2.88    0.26
  -1   8   6    3.32    0.32
   0  -8  -6   31.73    2.79
   0   8   6   35.14    2.80
   0   8   6   34.72    2.78
  -1  -8  -6    6.29    0.58
   1   8   6    6.75    0.57
   1   8   6    6.92    0.58
  -2  -8  -6    1.08    0.16
   2   8   6    1.10    0.16
   2   8   6    1.18    0.15
  -3  -8  -6   12.96    1.07
   3   8   6   13.19    1.06
   3   8   6   11.70    1.07
  -4  -8  -6    0.10    0.13
   4   8   6    0.03    0.13
  -5  -8  -6   -0.11    0.14
   5   8   6    0.02    0.14
  -6  -8  -6    3.15    0.35
   6   8   6    3.26    0.36
  -7  -8  -6    1.00    0.21
   7   8   6    0.92    0.22
  -8  -8  -6    1.98    0.29
   8   8   6    1.72    0.30
  -9  -8  -6    0.21    0.28
   9   8   6    0.50    0.28
 -10   9   6   -0.03    0.39
   9  -9  -6    0.94    0.29
  -9   9   6    0.28    0.32
   8  -9  -6    7.02    0.67
  -8   9   6    6.39    0.68
   7  -9  -6    0.05    0.19
  -7   9   6    0.29    0.23
   6  -9  -6    0.07    0.16
  -6   9   6    0.23    0.22
   5  -9  -6    0.02    0.15
  -5   9   6   -0.06    0.20
   4  -9  -6    0.17    0.14
  -4   9   6    0.13    0.21
   3  -9  -6   -0.07    0.12
  -3   9   6   -0.04    0.20
   2  -9  -6    0.35    0.12
  -2   9   6    0.10    0.18
   1  -9  -6    9.41    0.82
  -1   9   6   10.01    0.85
   0  -9  -6   28.61    2.36
   0   9   6   28.10    2.35
   0   9   6   29.17    2.37
  -1  -9  -6    3.71    0.36
   1   9   6    3.76    0.36
   1   9   6    3.73    0.35
  -2  -9  -6    0.24    0.11
   2   9   6    0.27    0.12
   2   9   6    0.11    0.13
  -3  -9  -6    1.59    0.20
   3   9   6    1.20    0.20
  -4  -9  -6   -0.12    0.13
   4   9   6   -0.05    0.14
  -5  -9  -6    1.87    0.23
   5   9   6    1.19    0.23
  -6  -9  -6    0.07    0.17
   6   9   6   -0.17    0.17
  -7  -9  -6    0.03    0.19
   7   9   6   -0.11    0.20
  -8  -9  -6    0.25    0.22
   8   9   6    0.18    0.27
   9   9   6   -0.01    0.29
   9 -10  -6    0.70    0.30
  -9  10   6    0.60    0.35
   8 -10  -6    0.09    0.24
  -8  10   6    0.08    0.29
   7 -10  -6   -0.01    0.20
  -7  10   6    0.01    0.25
   6 -10  -6   -0.11    0.17
  -6  10   6    0.11    0.22
   5 -10  -6    5.18    0.54
  -5  10   6    7.16    0.63
   4 -10  -6    0.00    0.14
  -4  10   6    0.00    0.23
   3 -10  -6    8.98    0.79
  -3  10   6    9.42    0.85
   2 -10  -6    1.54    0.22
  -2  10   6    1.90    0.30
   1 -10  -6    5.03    0.43
  -1  10   6    3.93    0.46
   0 -10  -6    0.09    0.12
   0  10   6   -0.04    0.15
  -1 -10  -6    1.34    0.18
   1  10   6    1.24    0.18
   1  10   6    0.89    0.16
  -2 -10  -6    1.45    0.20
   2  10   6    1.33    0.18
   2  10   6    1.16    0.19
  -3 -10  -6    5.56    0.51
   3  10   6    5.57    0.51
  -4 -10  -6   10.62    0.92
   4  10   6   10.68    0.92
  -5 -10  -6    0.17    0.16
   5  10   6    0.08    0.17
  -6 -10  -6    0.11    0.18
   6  10   6   -0.01    0.22
  -7 -10  -6    0.30    0.24
   7  10   6    0.42    0.23
  -8 -10  -6    0.10    0.24
   8  10   6    0.16    0.26
   9 -11  -6    0.13    0.31
  -9  11   6   -0.23    0.35
   8 -11  -6    1.55    0.35
  -8  11   6    1.59    0.38
   7 -11  -6    0.15    0.21
  -7  11   6   -0.14    0.27
   6 -11  -6    0.10    0.19
  -6  11   6    0.20    0.25
   5 -11  -6    0.05    0.18
  -5  11   6    0.06    0.25
   4 -11  -6    2.24    0.28
  -4  11   6    2.37    0.39
   3 -11  -6    0.45    0.16
  -3  11   6    0.57    0.26
   2 -11  -6    0.05    0.14
  -2  11   6    0.49    0.25
   1 -11  -6    0.61    0.15
  -1  11   6    0.59    0.20
   0 -11  -6    2.25    0.25
   0  11   6    2.02    0.27
  -1 -11  -6    1.17    0.21
   1  11   6    1.63    0.21
  -2 -11  -6    2.35    0.28
   2  11   6    2.61    0.27
   2  11   6    2.34    0.27
  -3 -11  -6    4.79    0.50
   3  11   6    5.64    0.49
  -4 -11  -6    0.10    0.17
   4  11   6    0.07    0.19
  -5 -11  -6    0.56    0.22
   5  11   6    0.84    0.24
  -6 -11  -6    0.14    0.23
   6  11   6    0.31    0.21
  -7 -11  -6   -0.08    0.23
   7  11   6    0.26    0.24
  -8 -11  -6   -0.01    0.31
   8  11   6    0.24    0.30
   9 -12  -6    0.23    0.39
   8 -12  -6    0.13    0.29
  -8  12   6    0.26    0.36
   7 -12  -6    0.07    0.23
  -7  12   6    0.21    0.30
   6 -12  -6    0.52    0.21
  -6  12   6    0.11    0.29
   5 -12  -6    0.47    0.20
  -5  12   6    0.58    0.30
   4 -12  -6    1.70    0.26
  -4  12   6    2.65    0.38
   3 -12  -6    0.86    0.20
  -3  12   6    1.37    0.27
   2 -12  -6    0.04    0.15
  -2  12   6    0.08    0.26
   1 -12  -6    8.85    0.72
  -1  12   6    7.26    0.75
   0 -12  -6    5.13    0.51
   0  12   6    5.99    0.54
  -1 -12  -6    1.48    0.21
   1  12   6    1.03    0.23
  -2 -12  -6    0.13    0.17
   2  12   6    0.18    0.17
  -3 -12  -6    1.15    0.22
   3  12   6    1.74    0.24
  -4 -12  -6    0.17    0.18
   4  12   6    0.39    0.18
  -5 -12  -6    0.13    0.22
   5  12   6    0.28    0.23
  -6 -12  -6    0.26    0.25
   6  12   6    0.40    0.24
  -7 -12  -6   -0.02    0.25
   7  12   6    0.02    0.26
   8  12   6    0.21    0.33
   8 -13  -6    0.22    0.33
   7 -13  -6   -0.05    0.26
  -7  13   6    0.08    0.35
   6 -13  -6    0.68    0.25
  -6  13   6    1.01    0.35
   5 -13  -6    0.27    0.21
  -5  13   6    0.83    0.36
   4 -13  -6   -0.11    0.18
  -4  13   6    0.27    0.31
   3 -13  -6    0.20    0.18
  -3  13   6    0.40    0.30
   2 -13  -6    0.72    0.19
  -2  13   6    0.64    0.29
   1 -13  -6    2.79    0.31
  -1  13   6    2.50    0.39
   0 -13  -6    3.41    0.37
   0  13   6    3.51    0.40
  -1 -13  -6    0.06    0.16
   1  13   6    0.16    0.21
  -2 -13  -6    0.30    0.18
  -3 -13  -6    0.30    0.19
  -4 -13  -6    0.35    0.21
   4  13   6    0.35    0.24
  -5 -13  -6    0.12    0.22
   5  13   6    0.26    0.22
  -6 -13  -6    0.25    0.25
   6  13   6    0.35    0.29
  -7 -13  -6    0.09    0.28
   7  13   6    0.29    0.30
   7 -14  -6    0.02    0.29
  -7  14   6    0.32    0.38
   6 -14  -6    0.06    0.28
  -6  14   6    0.05    0.37
   5 -14  -6    0.04    0.22
  -5  14   6    0.51    0.37
   4 -14  -6    2.15    0.30
  -4  14   6    1.83    0.43
   3 -14  -6   -0.12    0.18
  -3  14   6    0.07    0.32
   2 -14  -6    3.39    0.38
  -2  14   6    3.42    0.47
   1 -14  -6    0.13    0.18
  -1  14   6    0.05    0.26
   0 -14  -6    7.39    0.68
   0  14   6    7.33    0.71
  -1 -14  -6    0.76    0.20
   1  14   6    0.40    0.22
  -2 -14  -6    0.16    0.19
  -3 -14  -6    0.19    0.20
  -4 -14  -6    0.54    0.23
  -5 -14  -6    0.28    0.24
  -6 -14  -6    0.13    0.30
   6  14   6    0.46    0.29
   7  14   6    0.59    0.39
   6 -15  -6    0.64    0.31
  -6  15   6    0.59    0.42
   5 -15  -6    0.41    0.27
  -5  15   6    0.78    0.43
   4 -15  -6    1.53    0.28
  -4  15   6    1.10    0.43
   3 -15  -6    0.07    0.22
  -3  15   6   -0.15    0.35
   2 -15  -6    1.51    0.28
  -2  15   6    2.36    0.40
   1 -15  -6    0.89    0.23
  -1  15   6    0.58    0.30
   0 -15  -6    0.47    0.24
   0  15   6    0.19    0.31
  -1 -15  -6   -0.03    0.21
   1  15   6   -0.29    0.27
  -2 -15  -6   -0.05    0.20
  -3 -15  -6    0.49    0.26
  -4 -15  -6    0.45    0.25
  -5 -15  -6    0.18    0.28
  -6 -15  -6    0.95    0.34
   5 -16  -6    0.19    0.29
  -5  16   6    0.38    0.45
   4 -16  -6    0.06    0.26
  -4  16   6    0.39    0.44
   3 -16  -6    0.24    0.24
  -3  16   6    0.94    0.43
   2 -16  -6   -0.17    0.23
  -2  16   6    0.30    0.38
   1 -16  -6    2.40    0.34
  -1  16   6    2.48    0.44
   0 -16  -6    0.04    0.23
   0  16   6    0.22    0.31
  -1 -16  -6    0.31    0.24
  -2 -16  -6    0.37    0.25
  -3 -16  -6    1.46    0.33
  -4 -16  -6   -0.05    0.27
  -5 -16  -6    0.16    0.31
  -4  17   6    1.17    0.54
   3 -17  -6    1.32    0.32
  -3  17   6    1.63    0.52
   2 -17  -6    0.54    0.28
  -2  17   6    1.09    0.46
   1 -17  -6    0.58    0.27
  -1  17   6    0.95    0.41
   0 -17  -6   -0.05    0.25
   0  17   6    0.56    0.36
  -1 -17  -6    0.09    0.26
  -2 -17  -6    0.43    0.33
  -3 -17  -6    1.03    0.33
  -4 -17  -6    0.22    0.32
  -2  18   6    1.03    0.59
  -1  18   6    0.82    0.50
   0 -18  -6   -0.29    0.35
  -1 -18  -6    0.23    0.33
   2 -18   7    0.02    0.31
  -4 -17   7    0.53    0.39
  -3 -17   7   -0.17    0.33
   2  17  -7    0.09    0.33
   1  17  -7    0.97    0.35
   0  17  -7   -0.24    0.30
  -1  17  -7    0.52    0.33
  -2  17  -7    1.65    0.31
   2 -17   7    0.92    0.30
  -3  17  -7   -0.06    0.34
   3 -17   7    0.14    0.32
   4 -17   7    0.09    0.31
  -5 -16   7    0.00    0.36
  -4 -16   7    1.59    0.38
  -3 -16   7   -0.11    0.30
  -2 -16   7    1.90    0.36
   1  16  -7    0.26    0.28
   0  16  -7   -0.09    0.27
  -1  16  -7    2.83    0.43
   1 -16   7    3.72    0.40
  -2  16  -7    0.11    0.28
   2 -16   7    0.00    0.23
  -3  16  -7    0.62    0.31
   3 -16   7    0.60    0.26
  -4  16  -7   -0.04    0.32
   4 -16   7    0.74    0.29
  -5  16  -7    0.03    0.38
   5 -16   7   -0.14    0.30
  -6 -15   7    0.25    0.36
  -5 -15   7    0.23    0.36
  -4 -15   7    0.83    0.31
  -3 -15   7   -0.07    0.25
  -2 -15   7    8.77    0.83
   1  15  -7    0.07    0.24
   0  15  -7    1.58    0.31
  -1  15  -7    0.19    0.24
   1 -15   7   -0.04    0.19
  -2  15  -7    5.76    0.60
   2 -15   7    5.64    0.56
  -3  15  -7    0.62    0.27
   3 -15   7    0.59    0.23
  -4  15  -7    0.17    0.28
   4 -15   7    0.43    0.25
  -5  15  -7    1.33    0.36
   5 -15   7    1.29    0.31
  -6  15  -7    0.57    0.44
   6 -15   7    0.70    0.36
   7  14  -7   -0.26    0.40
   6  14  -7    0.14    0.34
  -6 -14   7    0.35    0.31
   5  14  -7   -0.04    0.26
  -5 -14   7    0.14    0.27
  -4 -14   7    0.05    0.24
  -3 -14   7    1.05    0.27
  -2 -14   7    0.70    0.24
  -1 -14   7    0.83    0.24
   0  14  -7    1.29    0.29
   0 -14   7    2.18    0.25
  -1  14  -7    1.47    0.27
   1 -14   7    1.39    0.25
  -2  14  -7    3.66    0.45
   2 -14   7    4.77    0.44
  -3  14  -7    1.59    0.31
   3 -14   7    1.78    0.27
  -4  14  -7    0.00    0.25
   4 -14   7   -0.22    0.21
  -5  14  -7    4.15    0.50
   5 -14   7    3.92    0.46
  -6  14  -7    0.33    0.36
   6 -14   7    0.57    0.32
  -7  14  -7   -0.30    0.49
   7  13  -7    0.14    0.36
  -7 -13   7    0.10    0.31
   6  13  -7   -0.12    0.27
  -6 -13   7   -0.10    0.26
   5  13  -7    1.17    0.27
  -5 -13   7    0.84    0.27
   4  13  -7    0.05    0.24
  -4 -13   7    0.29    0.22
   3  13  -7   -0.02    0.19
  -3 -13   7    0.06    0.20
  -2 -13   7    1.28    0.26
  -1 -13   7    2.14    0.30
   0 -13   7    4.20    0.42
   0 -13   7    4.08    0.44
  -1  13  -7    2.44    0.31
   1 -13   7    1.86    0.27
  -2  13  -7    0.14    0.20
   2 -13   7   -0.03    0.16
  -3  13  -7    1.26    0.25
   3 -13   7    0.92    0.22
  -4  13  -7    1.29    0.29
   4 -13   7    1.74    0.27
  -5  13  -7    2.63    0.38
   5 -13   7    2.64    0.35
  -6  13  -7    1.75    0.39
   6 -13   7    1.41    0.31
  -7  13  -7    0.74    0.45
   7 -13   7    1.47    0.32
   8  12  -7    0.25    0.35
   7  12  -7    1.27    0.33
  -7 -12   7    0.99    0.34
   6  12  -7    0.68    0.26
  -6 -12   7    0.28    0.24
   5  12  -7    0.23    0.22
  -5 -12   7    0.28    0.22
   4  12  -7   -0.11    0.19
  -4 -12   7    0.22    0.20
   3  12  -7    0.01    0.20
  -3 -12   7    0.31    0.20
   2  12  -7   17.93    1.55
  -2 -12   7   19.00    1.56
  -1 -12   7    1.51    0.23
  -1 -12   7    2.01    0.23
   0 -12   7   13.40    1.10
   0 -12   7   12.64    1.12
  -1  12  -7    0.28    0.18
   1 -12   7   -0.14    0.13
  -2  12  -7    4.09    0.45
   2 -12   7    4.36    0.44
  -3  12  -7    0.31    0.20
   3 -12   7    0.04    0.18
  -4  12  -7    0.50    0.21
   4 -12   7    0.17    0.18
  -5  12  -7    1.76    0.30
   5 -12   7    1.84    0.28
  -6  12  -7    0.34    0.30
   6 -12   7    0.32    0.23
  -7  12  -7   -0.28    0.42
   7 -12   7    0.12    0.25
   8 -12   7    0.50    0.32
   8  11  -7   -0.26    0.34
  -8 -11   7    0.14    0.39
   7  11  -7    0.14    0.27
  -7 -11   7   -0.15    0.28
   6  11  -7    0.49    0.24
  -6 -11   7    0.44    0.22
   5  11  -7    2.18    0.32
  -5 -11   7    2.77    0.33
   4  11  -7    2.35    0.29
  -4 -11   7    2.16    0.30
   3  11  -7    2.48    0.29
  -3 -11   7    2.52    0.31
   2  11  -7   17.46    1.44
  -2 -11   7   16.80    1.45
   1  11  -7    1.18    0.20
  -1 -11   7    1.15    0.18
  -1 -11   7    1.81    0.21
   0 -11   7    3.58    0.37
   0 -11   7    3.33    0.34
  -1  11  -7    0.49    0.18
   1 -11   7    0.39    0.15
  -2  11  -7    6.85    0.60
   2 -11   7    6.05    0.58
  -3  11  -7    4.30    0.44
   3 -11   7    4.27    0.42
  -4  11  -7    0.38    0.20
   4 -11   7    1.04    0.20
  -5  11  -7    6.72    0.71
   5 -11   7    8.78    0.71
  -6  11  -7    0.16    0.26
   6 -11   7    0.20    0.21
  -7  11  -7   -0.16    0.34
   7 -11   7    0.24    0.25
   8 -11   7    0.27    0.29
   9  10  -7    0.44    0.34
   8  10  -7    0.24    0.28
  -8 -10   7    0.21    0.26
   7  10  -7    0.14    0.25
  -7 -10   7    0.25    0.22
   6  10  -7    0.17    0.21
  -6 -10   7    0.61    0.22
   5  10  -7   10.08    0.82
  -5 -10   7    8.40    0.82
   4  10  -7    0.20    0.17
  -4 -10   7    0.17    0.17
   3  10  -7    0.11    0.15
  -3 -10   7    0.47    0.18
   2  10  -7    1.47    0.22
  -2 -10   7    1.83    0.23
   1  10  -7    0.95    0.17
  -1 -10   7    1.05    0.19
  -1 -10   7    0.99    0.15
   0  10  -7    0.20    0.12
   0 -10   7    0.47    0.16
   0 -10   7    0.20    0.12
   1 -10   7    1.42    0.20
   1 -10   7    0.92    0.16
  -2  10  -7   19.02    1.58
   2 -10   7   18.64    1.57
  -3  10  -7    0.67    0.18
   3 -10   7    0.35    0.15
  -4  10  -7    0.10    0.17
   4 -10   7    0.18    0.16
  -5  10  -7    0.97    0.23
   5 -10   7    1.13    0.21
  -6  10  -7    0.58    0.27
   6 -10   7    0.67    0.21
  -7  10  -7    0.01    0.36
   7 -10   7    0.22    0.23
   8 -10   7    0.09    0.26
   9 -10   7   -0.31    0.30
   9   9  -7    0.19    0.32
   8   9  -7    1.73    0.32
  -8  -9   7    1.38    0.29
   7   9  -7   -0.40    0.22
  -7  -9   7    0.03    0.24
   6   9  -7    1.94    0.28
  -6  -9   7    1.84    0.28
   5   9  -7    1.68    0.25
  -5  -9   7    1.98    0.26
   4   9  -7    0.05    0.16
  -4  -9   7   -0.01    0.15
   3   9  -7    0.32    0.16
  -3  -9   7    0.11    0.14
   2   9  -7    5.11    0.48
  -2  -9   7    6.16    0.50
  -2  -9   7    5.16    0.47
   1   9  -7    0.58    0.14
  -1  -9   7    0.63    0.11
  -1  -9   7    0.53    0.15
   0   9  -7    3.29    0.35
   0  -9   7    4.14    0.35
   0  -9   7    4.02    0.37
  -1   9  -7    2.42    0.25
   1  -9   7    2.59    0.27
   1  -9   7    2.35    0.25
  -2   9  -7   22.41    1.89
   2  -9   7   22.87    1.88
  -3   9  -7    7.51    0.68
   3  -9   7    7.78    0.67
  -4   9  -7    6.69    0.60
   4  -9   7    6.39    0.59
  -5   9  -7    4.41    0.44
   5  -9   7    3.45    0.39
  -6   9  -7    0.01    0.23
   6  -9   7    0.00    0.18
  -7   9  -7    0.17    0.31
   7  -9   7    0.22    0.21
   8  -9   7    2.16    0.33
   9  -9   7    0.20    0.30
   9   8  -7    0.30    0.29
   8   8  -7    0.16    0.25
  -8  -8   7    0.05    0.21
   7   8  -7    1.08    0.25
  -7  -8   7    1.17    0.24
   6   8  -7    1.31    0.24
  -6  -8   7    1.55    0.24
   5   8  -7    7.78    0.71
  -5  -8   7    7.97    0.70
   4   8  -7   -0.01    0.14
  -4  -8   7    0.12    0.15
   3   8  -7    1.49    0.19
  -3  -8   7    1.00    0.18
   2   8  -7    7.49    0.68
  -2  -8   7    7.97    0.66
  -2  -8   7    8.07    0.68
   1   8  -7    0.47    0.12
  -1  -8   7    0.72    0.11
  -1  -8   7    0.60    0.12
   0   8  -7    2.56    0.25
   0  -8   7    2.56    0.25
   0  -8   7    2.39    0.25
  -1   8  -7    3.46    0.35
   1  -8   7    4.02    0.35
   1  -8   7    4.16    0.37
  -2   8  -7    0.63    0.14
  -2   8  -7    0.66    0.11
   2  -8   7    0.28    0.12
  -3   8  -7    5.19    0.51
   3  -8   7    5.46    0.49
   3  -8   7    6.59    0.51
  -4   8  -7    0.01    0.14
   4  -8   7    0.04    0.13
  -5   8  -7    4.64    0.44
   5  -8   7    4.24    0.41
  -6   8  -7    1.47    0.31
   6  -8   7    1.64    0.25
  -7   8  -7    0.03    0.28
   7  -8   7    0.21    0.19
   8  -8   7    0.38    0.23
   9  -8   7    1.65    0.33
  10   7  -7   -0.17    0.36
   9   7  -7   -0.22    0.26
  -9  -7   7   -0.16    0.26
   8   7  -7    2.24    0.31
  -8  -7   7    1.20    0.26
   7   7  -7   -0.13    0.18
  -7  -7   7   -0.18    0.17
   6   7  -7    0.04    0.17
  -6  -7   7   -0.11    0.15
   5   7  -7    7.01    0.64
  -5  -7   7    7.19    0.64
   4   7  -7    3.49    0.36
  -4  -7   7    3.63    0.36
   3   7  -7    0.47    0.13
  -3  -7   7    0.68    0.14
   2   7  -7    8.24    0.69
  -2  -7   7    7.66    0.70
  -2  -7   7    8.18    0.67
   1   7  -7    7.37    0.63
  -1  -7   7    6.61    0.64
  -1  -7   7    7.83    0.62
   0   7  -7    0.13    0.08
   0  -7   7    0.17    0.08
   0  -7   7    0.17    0.08
  -1   7  -7    2.77    0.28
   1  -7   7    3.24    0.30
   1  -7   7    3.26    0.28
  -2   7  -7    2.37    0.27
   2  -7   7    2.50    0.26
   2  -7   7    3.09    0.26
  -3   7  -7    2.69    0.32
   3  -7   7    4.07    0.32
   3  -7   7    3.30    0.31
  -4   7  -7    0.52    0.15
   4  -7   7    0.54    0.14
   4  -7   7    0.67    0.13
  -5   7  -7    2.66    0.29
   5  -7   7    2.18    0.28
  -6   7  -7    0.02    0.21
   6  -7   7    0.09    0.16
   7  -7   7    0.64    0.20
   8  -7   7    0.76    0.24
   9  -7   7   -0.06    0.26
  10  -7   7    0.11    0.32
  10   6  -7    0.22    0.32
   9   6  -7    0.07    0.26
  -9  -6   7    0.03    0.22
   8   6  -7    1.06    0.26
  -8  -6   7    0.54    0.21
   7   6  -7    1.09    0.25
  -7  -6   7    1.87    0.24
   6   6  -7    1.03    0.20
  -6  -6   7    0.76    0.18
   5   6  -7    0.69    0.15
  -5  -6   7    0.93    0.17
   4   6  -7    0.19    0.13
  -4  -6   7    0.00    0.12
   3   6  -7    9.26    0.79
  -3  -6   7    8.48    0.79
  -3  -6   7    9.77    0.77
   2   6  -7    0.86    0.15
  -2  -6   7    1.32    0.12
  -2  -6   7    0.90    0.15
   1   6  -7    6.46    0.57
  -1  -6   7    7.26    0.56
  -1  -6   7    6.01    0.58
   0   6  -7    6.48    0.56
   0  -6   7    6.60    0.57
   0  -6   7    6.77    0.56
  -1   6  -7    0.38    0.09
   1  -6   7    0.24    0.09
   1  -6   7    0.33    0.10
   2  -6   7   34.04    2.75
   2  -6   7   34.17    2.74
   2  -6   7   31.96    2.75
  -3   6  -7   10.44    0.93
   3  -6   7   10.72    0.93
   3  -6   7   11.78    0.92
  -4   6  -7    2.26    0.25
   4  -6   7    2.61    0.24
   4  -6   7    2.22    0.25
  -5   6  -7    1.72    0.22
   5  -6   7    0.87    0.16
   5  -6   7    0.82    0.18
  -6   6  -7    0.23    0.24
   6  -6   7    0.37    0.16
   7  -6   7    0.03    0.17
   8  -6   7   -0.02    0.20
   9  -6   7   -0.22    0.23
  10   5  -7    0.50    0.31
   9   5  -7   -0.02    0.24
  -9  -5   7   -0.08    0.21
   8   5  -7    1.79    0.30
  -8  -5   7    1.96    0.27
   7   5  -7   -0.14    0.18
  -7  -5   7    0.07    0.16
   6   5  -7    0.81    0.21
  -6  -5   7    1.62    0.20
   5   5  -7    0.06    0.14
  -5  -5   7   -0.09    0.11
   4   5  -7    1.38    0.20
  -4  -5   7    1.70    0.20
   3   5  -7    7.47    0.66
  -3  -5   7    8.05    0.63
  -3  -5   7    6.79    0.66
   2   5  -7    0.19    0.09
  -2  -5   7    0.27    0.05
  -2  -5   7    0.07    0.09
   1   5  -7   -0.04    0.07
  -1  -5   7    0.04    0.08
  -1  -5   7    0.03    0.05
   0   5  -7    3.65    0.38
   0  -5   7    4.75    0.38
   0  -5   7    4.56    0.37
   1  -5   7    0.47    0.09
   1  -5   7    0.38    0.09
   1  -5   7    0.35    0.09
   2  -5   7    0.71    0.11
   2  -5   7    0.51    0.11
   2  -5   7    0.73    0.11
  -3   5  -7    8.09    0.70
   3  -5   7    8.13    0.70
   3  -5   7    8.66    0.70
  -4   5  -7    1.30    0.18
   4  -5   7    1.56    0.19
   4  -5   7    1.51    0.18
  -5   5  -7    0.13    0.16
   5  -5   7    0.36    0.12
   5  -5   7    0.45    0.14
  -6   5  -7    0.46    0.20
   6  -5   7    0.94    0.15
   6  -5   7    0.92    0.18
   7  -5   7    0.55    0.18
   7  -5   7    0.73    0.19
   8  -5   7    0.79    0.21
   9  -5   7   -0.15    0.23
 -10   5  -7    0.25    0.29
  10   4  -7    0.03    0.27
 -10  -4   7    0.33    0.48
   9   4  -7    0.36    0.24
  -9  -4   7    0.06    0.23
   8   4  -7    0.70    0.22
  -8  -4   7    0.56    0.20
   7   4  -7    0.53    0.19
  -7  -4   7    0.53    0.17
   6   4  -7    0.00    0.14
  -6  -4   7    0.09    0.13
   5   4  -7    3.20    0.31
  -5  -4   7    2.81    0.30
   4   4  -7    7.15    0.64
  -4  -4   7    7.82    0.65
   3   4  -7   11.57    0.92
  -3  -4   7   10.46    0.92
   2   4  -7   10.37    0.88
  -2  -4   7   10.96    0.87
  -2  -4   7    9.67    0.88
   1   4  -7    5.77    0.51
  -1  -4   7    6.08    0.50
  -1  -4   7    5.95    0.51
   0   4  -7    1.14    0.12
   0  -4   7    1.08    0.12
   0  -4   7    0.79    0.10
   1  -4   7   20.48    1.72
   1  -4   7   20.53    1.72
   1  -4   7   21.75    1.73
   2  -4   7   19.52    1.62
   2  -4   7   19.56    1.62
   2  -4   7   19.80    1.62
  -3   4  -7    6.40    0.55
   3  -4   7    6.57    0.56
   3  -4   7    6.47    0.55
  -4   4  -7    0.92    0.14
   4  -4   7    1.41    0.16
   4  -4   7    1.12    0.15
  -5   4  -7    2.85    0.32
   5  -4   7    3.07    0.31
   5  -4   7    3.12    0.31
  -6   4  -7    0.22    0.27
   6  -4   7    0.34    0.14
   6  -4   7    0.28    0.14
   7  -4   7    2.01    0.25
   7  -4   7    1.59    0.23
   8  -4   7    1.42    0.23
   8  -4   7    1.78    0.26
  -9   4  -7    2.06    0.32
 -10   4  -7    0.76    0.30
  11   3  -7   -0.25    0.34
  10   3  -7    0.02    0.27
 -10  -3   7    0.03    0.25
   9   3  -7    0.82    0.26
  -9  -3   7    0.86    0.26
   8   3  -7   -0.14    0.18
  -8  -3   7    0.10    0.17
   7   3  -7   -0.05    0.15
  -7  -3   7    0.13    0.17
   6   3  -7    0.49    0.16
  -6  -3   7    0.49    0.14
   5   3  -7    5.01    0.45
  -5  -3   7    4.94    0.45
   4   3  -7    0.66    0.12
  -4  -3   7    0.41    0.11
   3   3  -7   17.11    1.38
  -3  -3   7   16.23    1.38
   2   3  -7    1.07    0.14
  -2  -3   7    1.18    0.13
   1   3  -7    2.21    0.22
  -1  -3   7    2.31    0.22
  -1  -3   7    2.27    0.20
   0  -3   7    2.49    0.20
   0  -3   7    1.95    0.18
   0  -3   7    1.75    0.19
   1  -3   7    4.07    0.34
   1  -3   7    3.83    0.34
   1  -3   7    3.77    0.34
   2  -3   7   16.26    1.35
   2  -3   7   16.31    1.35
   2  -3   7   16.37    1.35
  -3   3  -7   35.63    3.12
   3  -3   7   42.11    3.12
   3  -3   7   36.79    3.12
  -4   3  -7   15.02    1.18
   4  -3   7   12.64    1.18
   4  -3   7   14.55    1.18
  -5   3  -7    0.59    0.17
   5  -3   7    0.77    0.14
   5  -3   7    1.02    0.13
   6  -3   7    0.23    0.13
   6  -3   7    0.10    0.13
   7  -3   7   -0.03    0.15
   7  -3   7    0.12    0.16
  -8   3  -7    4.77    0.48
   8  -3   7    4.71    0.47
  -9   3  -7   -0.18    0.21
   9  -3   7   -0.13    0.21
 -10   3  -7    0.48    0.28
 -11   3  -7   -0.04    0.38
  11   2  -7    0.43    0.35
  10   2  -7   -0.03    0.26
 -10  -2   7    0.14    0.28
   9   2  -7   -0.11    0.21
  -9  -2   7    0.19    0.23
   8   2  -7    0.25    0.19
  -8  -2   7    0.47    0.18
   7   2  -7   -0.12    0.15
  -7  -2   7    0.23    0.15
   6   2  -7    0.36    0.15
  -6  -2   7    0.55    0.14
   5   2  -7    4.12    0.40
  -5  -2   7    4.60    0.40
   4   2  -7    1.96    0.20
  -4  -2   7    1.83    0.15
  -4  -2   7    1.59    0.19
   3   2  -7   15.94    1.35
  -3  -2   7   16.67    1.35
   2   2  -7   18.27    1.55
  -2  -2   7   19.18    1.55
   1   2  -7   18.19    1.49
   1   2  -7   17.96    1.48
  -1  -2   7   17.99    1.49
   0   2  -7    8.96    0.74
   0  -2   7    9.36    0.75
   0  -2   7    8.59    0.75
   1  -2   7   37.17    3.06
   1  -2   7   37.86    3.06
   1  -2   7   36.96    3.06
   2  -2   7   43.53    3.59
   2  -2   7   42.28    3.58
   2  -2   7   45.75    3.59
  -3   2  -7    2.11    0.20
   3  -2   7    1.89    0.21
   3  -2   7    2.17    0.21
  -4   2  -7    2.45    0.25
   4  -2   7    2.89    0.25
   4  -2   7    2.36    0.25
  -5   2  -7   -0.01    0.12
   5  -2   7   -0.05    0.11
   5  -2   7   -0.01    0.10
  -6   2  -7    1.41    0.21
   6  -2   7    1.72    0.21
  -7   2  -7    2.04    0.28
   7  -2   7    2.88    0.28
  -8   2  -7    0.37    0.19
   8  -2   7    0.03    0.16
  -9   2  -7    1.98    0.29
   9  -2   7    1.46    0.27
 -10   2  -7    0.39    0.28
  10  -2   7    0.51    0.23
 -11   2  -7    0.60    0.39
  11   1  -7    0.53    0.38
  10   1  -7    0.64    0.31
 -10  -1   7    0.35    0.25
   9   1  -7    0.03    0.21
  -9  -1   7    0.20    0.21
   8   1  -7    0.24    0.18
  -8  -1   7    0.07    0.18
   7   1  -7    2.47    0.29
  -7  -1   7    2.52    0.29
   6   1  -7    5.43    0.50
  -6  -1   7    5.58    0.50
   5   1  -7    0.26    0.12
  -5  -1   7    0.25    0.11
   4   1  -7    0.07    0.05
   4   1  -7    0.16    0.09
  -4  -1   7    0.06    0.09
   3   1  -7   52.53    4.19
   3   1  -7   51.01    4.21
  -3  -1   7   49.78    4.21
   2   1  -7   15.21    1.21
   2   1  -7   14.79    1.23
  -2  -1   7   14.04    1.23
   1   1  -7   45.26    3.68
  -1  -1   7   44.30    3.69
  -1  -1   7   45.34    3.69
   0   1  -7   12.24    0.99
   0  -1   7   11.98    0.99
   0  -1   7   11.68    0.99
  -1   1  -7    7.65    0.65
   1  -1   7    8.04    0.65
   1  -1   7    7.69    0.65
  -2   1  -7    3.51    0.31
   2  -1   7    3.55    0.30
   2  -1   7    3.43    0.31
  -3   1  -7    3.24    0.32
  -3   1  -7    3.79    0.31
   3  -1   7    3.79    0.33
  -4   1  -7    0.16    0.09
  -4   1  -7    0.25    0.10
   4  -1   7    0.21    0.09
  -5   1  -7    0.96    0.16
   5  -1   7    1.31    0.16
  -6   1  -7    2.33    0.24
   6  -1   7    1.60    0.22
  -7   1  -7    0.11    0.15
   7  -1   7    0.05    0.13
  -8   1  -7   -0.06    0.17
   8  -1   7    0.16    0.18
  -9   1  -7    2.00    0.28
   9  -1   7    1.14    0.24
 -10   1  -7    0.01    0.29
  10  -1   7   -0.12    0.24
 -11   1  -7   -0.18    0.31
  11   0  -7    1.30    0.39
  10   0  -7    0.17    0.28
 -10   0   7    0.10    0.24
   9   0  -7    0.71    0.26
  -9   0   7    0.43    0.21
   8   0  -7    0.74    0.21
  -8   0   7    0.91    0.21
   7   0  -7    8.09    0.72
  -7   0   7    8.15    0.72
   6   0  -7    2.79    0.30
  -6   0   7    2.95    0.30
   5   0  -7    6.09    0.52
   5   0  -7    5.99    0.51
  -5   0   7    5.83    0.53
   4   0  -7    1.75    0.16
   4   0  -7    2.01    0.19
  -4   0   7    1.45    0.19
   3   0  -7  100.30    8.09
   3   0  -7   99.12    8.08
  -3   0   7   97.25    8.09
   2   0  -7   68.12    5.38
   2   0  -7   64.55    5.39
  -2   0   7   64.21    5.38
   1   0  -7    4.52    0.38
  -1   0   7    4.21    0.39
  -1   0   7    4.69    0.38
   0   0  -7   34.39    2.84
   0   0   7   34.71    2.84
   0   0   7   34.88    2.84
  -1   0  -7    1.40    0.17
   1   0   7    2.01    0.17
   1   0   7    1.78    0.16
  -2   0  -7   17.38    1.50
   2   0   7   18.92    1.50
   2   0   7   18.27    1.49
  -3   0  -7   17.85    1.56
  -3   0  -7   19.01    1.55
   3   0   7   19.93    1.57
  -4   0  -7   -0.01    0.04
  -4   0  -7    0.00    0.09
   4   0   7    0.01    0.09
  -5   0  -7    7.55    0.64
   5   0   7    7.24    0.64
  -6   0  -7    0.07    0.13
   6   0   7   -0.13    0.12
  -7   0  -7   -0.03    0.14
   7   0   7    0.00    0.14
  -8   0  -7    0.18    0.17
   8   0   7    0.03    0.19
  -9   0  -7    0.19    0.20
   9   0   7   -0.02    0.19
 -10   0  -7    0.51    0.30
  10   0   7    0.18    0.22
 -11   0  -7    0.23    0.33
  11   0   7   -0.03    0.28
 -11   1   7    0.19    0.35
  10  -1  -7    0.55    0.25
 -10   1   7    0.26    0.25
   9  -1  -7    1.83    0.30
  -9   1   7    2.37    0.31
   8  -1  -7    0.12    0.17
  -8   1   7    0.05    0.18
   7  -1  -7    0.38    0.15
  -7   1   7    0.44    0.17
   6  -1  -7    5.36    0.49
   6  -1  -7    5.68    0.51
  -6   1   7    5.39    0.50
   5  -1  -7    1.79    0.21
   5  -1  -7    1.89    0.19
  -5   1   7    1.83    0.22
   4  -1  -7   23.70    1.93
   4  -1  -7   23.63    1.94
  -4   1   7   22.90    1.94
   3  -1  -7    0.09    0.05
   3  -1  -7    0.17    0.08
  -3   1   7   -0.02    0.08
   2  -1  -7   25.55    2.10
   2  -1  -7   25.42    2.10
  -2   1   7   25.76    2.10
   1  -1  -7    5.56    0.46
  -1   1   7    5.38    0.46
  -1   1   7    5.37    0.46
   0  -1  -7    1.37    0.14
   0   1   7    1.20    0.14
   0   1   7    1.52    0.13
  -1  -1  -7    0.13    0.06
   1   1   7    0.00    0.04
   1   1   7    0.04    0.05
  -2  -1  -7    7.87    0.74
   2   1   7    9.12    0.73
   2   1   7    9.38    0.75
  -3  -1  -7   10.63    0.86
   3   1   7    9.91    0.86
  -4  -1  -7    5.22    0.44
   4   1   7    4.97    0.45
  -5  -1  -7    0.75    0.14
   5   1   7    0.53    0.13
  -6  -1  -7    6.07    0.52
   6   1   7    5.38    0.52
  -7  -1  -7    0.02    0.14
   7   1   7   -0.10    0.14
  -8  -1  -7   -0.04    0.17
   8   1   7    0.13    0.17
  -9  -1  -7    1.89    0.27
   9   1   7    1.24    0.25
 -10  -1  -7   -0.08    0.25
  10   1   7    0.21    0.25
 -11  -1  -7    0.48    0.34
  11   1   7    0.39    0.29
 -11   2   7    0.02    0.34
 -10   2   7    0.58    0.27
   9  -2  -7    0.12    0.23
  -9   2   7    0.35    0.22
   8  -2  -7    1.52    0.25
  -8   2   7    1.49    0.25
   7  -2  -7   -0.01    0.13
  -7   2   7    0.11    0.15
   6  -2  -7    0.55    0.13
   6  -2  -7    0.62    0.15
  -6   2   7    0.54    0.15
   5  -2  -7   11.27    0.89
   5  -2  -7   10.60    0.88
  -5   2   7    9.72    0.89
   4  -2  -7    5.03    0.44
   4  -2  -7    5.21    0.44
  -4   2   7    5.03    0.45
   3  -2  -7    0.59    0.10
   3  -2  -7    0.64    0.09
  -3   2   7    0.51    0.10
   2  -2  -7    2.59    0.24
   2  -2  -7    3.04    0.25
  -2   2   7    2.74    0.25
   1  -2  -7   94.70    7.86
  -1   2   7   97.00    7.86
  -1   2   7   96.49    7.86
   0  -2  -7    0.80    0.09
   0   2   7    0.70    0.08
   0   2   7    0.59    0.09
  -1  -2  -7  159.97   13.21
   1   2   7  160.88   13.21
   1   2   7  163.78   13.20
  -2  -2  -7    8.39    0.71
   2   2   7    8.76    0.69
   2   2   7    7.32    0.71
  -3  -2  -7    1.21    0.15
   3   2   7    1.17    0.15
  -4  -2  -7    0.86    0.13
   4   2   7    0.51    0.12
  -5  -2  -7   37.16    2.96
   5   2   7   34.67    2.96
  -6  -2  -7    0.48    0.14
   6   2   7    0.43    0.15
  -7  -2  -7    0.04    0.15
   7   2   7   -0.13    0.15
  -8  -2  -7    1.82    0.25
   8   2   7    0.81    0.21
  -9  -2  -7    0.85    0.24
   9   2   7    0.51    0.22
 -10  -2  -7    0.14    0.26
  10   2   7   -0.03    0.24
 -11  -2  -7    0.24    0.33
  11   2   7    0.09    0.32
 -11   3   7    0.49    0.35
 -10   3   7    0.02    0.31
  -9   3   7    0.95    0.26
   8  -3  -7    0.00    0.19
  -8   3   7   -0.02    0.19
   7  -3  -7    2.08    0.26
  -7   3   7    2.25    0.28
   6  -3  -7    0.00    0.11
   6  -3  -7    0.03    0.12
  -6   3   7   -0.03    0.13
   5  -3  -7    1.45    0.17
   5  -3  -7    1.16    0.16
  -5   3   7    1.59    0.19
   4  -3  -7    9.91    0.90
   4  -3  -7   10.97    0.90
  -4   3   7   11.60    0.91
   3  -3  -7    1.57    0.17
   3  -3  -7    2.01    0.18
  -3   3   7    1.68    0.19
   2  -3  -7   13.09    1.10
   2  -3  -7   13.75    1.10
  -2   3   7   13.00    1.10
   1  -3  -7   53.57    4.45
  -1   3   7   52.83    4.45
  -1   3   7   56.57    4.45
   0  -3  -7    3.16    0.29
   0   3   7    3.40    0.29
   0   3   7    3.22    0.28
  -1  -3  -7   47.10    3.82
   1   3   7   46.45    3.81
   1   3   7   46.39    3.82
  -2  -3  -7    0.27    0.08
   2   3   7    0.18    0.08
   2   3   7    0.12    0.03
  -3  -3  -7    0.01    0.09
   3   3   7    0.04    0.07
  -4  -3  -7    0.08    0.10
   4   3   7    0.02    0.10
  -5  -3  -7   22.07    1.71
   5   3   7   19.22    1.71
  -6  -3  -7    0.06    0.13
   6   3   7    0.14    0.14
  -7  -3  -7    0.41    0.16
   7   3   7    0.02    0.16
  -8  -3  -7    0.77    0.20
   8   3   7    0.82    0.20
  -9  -3  -7    0.30    0.21
   9   3   7    0.53    0.23
 -10  -3  -7   -0.07    0.25
  10   3   7   -0.11    0.25
 -11  -3  -7    0.15    0.37
 -11   4   7   -0.11    0.36
 -10   4   7    0.01    0.29
  -9   4   7    0.67    0.25
  -8   4   7    1.03    0.23
   7  -4  -7    2.73    0.31
   7  -4  -7    3.08    0.31
  -7   4   7    2.69    0.33
   6  -4  -7    0.41    0.13
   6  -4  -7    0.39    0.12
  -6   4   7    0.52    0.16
   5  -4  -7    0.03    0.09
   5  -4  -7    0.03    0.09
  -5   4   7    0.21    0.10
   4  -4  -7    0.49    0.10
   4  -4  -7    0.76    0.11
  -4   4   7    0.48    0.11
   3  -4  -7    0.60    0.11
   3  -4  -7    0.74    0.10
  -3   4   7    0.65    0.11
   2  -4  -7   51.87    4.36
  -2   4   7   53.94    4.35
  -2   4   7   53.64    4.36
   1  -4  -7   33.89    2.93
  -1   4   7   35.83    2.93
  -1   4   7   37.49    2.94
   0  -4  -7    9.39    0.82
   0   4   7    9.57    0.82
   0   4   7   10.25    0.81
  -1  -4  -7   46.17    3.89
   1   4   7   48.43    3.89
   1   4   7   47.76    3.89
  -2  -4  -7    8.30    0.75
   2   4   7    9.61    0.74
   2   4   7    8.10    0.75
  -3  -4  -7    2.05    0.19
   3   4   7    1.29    0.17
  -4  -4  -7    4.53    0.42
   4   4   7    4.66    0.42
  -5  -4  -7    0.69    0.14
   5   4   7    0.46    0.14
  -6  -4  -7    4.85    0.44
   6   4   7    4.40    0.44
  -7  -4  -7    0.02    0.15
   7   4   7   -0.32    0.16
  -8  -4  -7   -0.04    0.17
   8   4   7    0.11    0.20
  -9  -4  -7    0.22    0.24
   9   4   7    0.47    0.23
 -10  -4  -7    0.00    0.26
  10   4   7   -0.18    0.27
 -11   5   7   -0.09    0.44
 -10   5   7    0.18    0.30
  -9   5   7   -0.02    0.24
  -8   5   7    1.08    0.24
   7  -5  -7    3.67    0.36
  -7   5   7    3.07    0.38
   6  -5  -7    8.76    0.71
   6  -5  -7    7.25    0.69
  -6   5   7    8.10    0.71
   5  -5  -7    2.52    0.27
   5  -5  -7    2.48    0.27
  -5   5   7    3.60    0.30
   4  -5  -7    3.71    0.35
   4  -5  -7    3.34    0.34
  -4   5   7    4.53    0.35
   3  -5  -7    1.09    0.14
   3  -5  -7    0.96    0.13
  -3   5   7    1.19    0.15
   2  -5  -7    4.89    0.45
  -2   5   7    5.22    0.44
  -2   5   7    5.52    0.46
   1  -5  -7    1.00    0.13
  -1   5   7    0.97    0.12
  -1   5   7    1.09    0.14
   0  -5  -7    1.31    0.15
   0   5   7    1.43    0.16
   0   5   7    1.10    0.14
  -1  -5  -7    0.27    0.09
   1   5   7    0.37    0.10
   1   5   7    0.47    0.10
  -2  -5  -7    1.93    0.19
   2   5   7    1.66    0.18
   2   5   7    1.68    0.19
  -3  -5  -7    0.15    0.10
   3   5   7    0.10    0.07
   3   5   7    0.22    0.10
  -4  -5  -7    1.85    0.22
   4   5   7    2.01    0.23
  -5  -5  -7    0.09    0.13
   5   5   7    0.23    0.14
  -6  -5  -7   -0.04    0.14
   6   5   7    0.01    0.14
  -7  -5  -7    2.53    0.30
   7   5   7    2.73    0.32
  -8  -5  -7   -0.07    0.18
   8   5   7    0.14    0.19
  -9  -5  -7    0.14    0.22
   9   5   7    0.08    0.23
 -10  -5  -7    0.03    0.27
  10   5   7   -0.05    0.27
 -10   6   7    0.14    0.32
  -9   6   7    0.14    0.25
  -8   6   7    0.77    0.24
   7  -6  -7   -0.06    0.15
  -7   6   7   -0.11    0.18
   6  -6  -7    9.84    0.87
  -6   6   7   10.62    0.89
   5  -6  -7   11.91    1.08
  -5   6   7   14.01    1.10
   4  -6  -7    0.09    0.10
   4  -6  -7    0.08    0.08
  -4   6   7    0.23    0.14
   3  -6  -7    1.09    0.12
   3  -6  -7    0.42    0.12
  -3   6   7    0.89    0.15
   2  -6  -7    0.69    0.13
  -2   6   7    0.79    0.11
  -2   6   7    0.93    0.15
   1  -6  -7    6.17    0.52
  -1   6   7    6.00    0.51
  -1   6   7    5.84    0.54
   0  -6  -7    0.25    0.09
   0   6   7    0.04    0.13
   0   6   7    0.20    0.08
  -1  -6  -7   34.06    2.74
   1   6   7   30.83    2.74
   1   6   7   35.20    2.74
  -2  -6  -7    6.80    0.59
   2   6   7    7.00    0.58
   2   6   7    6.51    0.58
  -3  -6  -7    0.13    0.10
   3   6   7    0.00    0.09
   3   6   7    0.14    0.11
  -4  -6  -7    0.62    0.14
   4   6   7    0.90    0.15
  -5  -6  -7    2.84    0.32
   5   6   7    3.49    0.33
  -6  -6  -7    1.23    0.20
   6   6   7    1.38    0.22
  -7  -6  -7    0.62    0.19
   7   6   7    0.52    0.19
  -8  -6  -7    0.07    0.19
   8   6   7    0.09    0.21
  -9  -6  -7    1.56    0.31
   9   6   7    0.98    0.29
 -10  -6  -7    0.06    0.29
  10   6   7   -0.02    0.28
 -10   7   7    0.22    0.34
  -9   7   7    0.70    0.29
   8  -7  -7    0.27    0.22
  -8   7   7    0.27    0.23
   7  -7  -7    0.61    0.21
  -7   7   7    0.74    0.22
   6  -7  -7    0.24    0.15
  -6   7   7    0.24    0.19
   5  -7  -7    0.28    0.13
  -5   7   7    0.27    0.17
   4  -7  -7    9.82    0.91
  -4   7   7   11.87    0.93
   3  -7  -7    2.86    0.26
   3  -7  -7    2.68    0.28
  -3   7   7    2.86    0.31
   2  -7  -7    0.54    0.12
  -2   7   7    0.57    0.10
  -2   7   7    0.23    0.14
   1  -7  -7    3.14    0.29
  -1   7   7    2.64    0.31
  -1   7   7    3.10    0.27
   0  -7  -7    5.22    0.44
   0   7   7    4.71    0.46
   0   7   7    4.82    0.43
  -1  -7  -7   13.88    1.13
   1   7   7   12.56    1.14
   1   7   7   14.17    1.13
  -2  -7  -7    0.19    0.11
   2   7   7    0.30    0.11
   2   7   7    0.37    0.10
  -3  -7  -7    0.33    0.12
   3   7   7    0.27    0.12
  -4  -7  -7   11.46    0.95
   4   7   7   10.88    0.95
  -5  -7  -7    2.33    0.25
   5   7   7    1.67    0.25
  -6  -7  -7   -0.01    0.15
   6   7   7   -0.01    0.17
  -7  -7  -7   -0.01    0.17
   7   7   7    0.05    0.15
  -8  -7  -7    2.79    0.33
   8   7   7    2.14    0.33
  -9  -7  -7    0.42    0.25
   9   7   7    0.23    0.27
 -10  -7  -7   -0.17    0.30
 -10   8   7    0.15    0.37
  -9   8   7    0.61    0.31
   8  -8  -7    0.05    0.24
  -8   8   7    0.02    0.24
   7  -8  -7    3.30    0.39
  -7   8   7    3.54    0.39
   6  -8  -7    1.95    0.26
  -6   8   7    2.15    0.31
   5  -8  -7    7.19    0.67
  -5   8   7    8.24    0.70
   4  -8  -7    3.14    0.34
  -4   8   7    3.83    0.39
   3  -8  -7    1.20    0.18
  -3   8   7    1.51    0.23
   2  -8  -7    8.80    0.73
  -2   8   7    8.02    0.76
   1  -8  -7    5.48    0.51
  -1   8   7    6.08    0.50
  -1   8   7    5.51    0.55
   0  -8  -7    1.60    0.20
   0   8   7    1.63    0.18
   0   8   7    1.84    0.23
  -1  -8  -7   -0.01    0.11
   1   8   7    0.15    0.11
   1   8   7    0.02    0.09
  -2  -8  -7    6.22    0.55
   2   8   7    6.77    0.54
   2   8   7    5.56    0.54
  -3  -8  -7    0.44    0.14
   3   8   7    0.91    0.16
  -4  -8  -7    1.57    0.21
   4   8   7    1.27    0.20
  -5  -8  -7    0.76    0.18
   5   8   7    0.96    0.19
  -6  -8  -7    1.43    0.23
   6   8   7    1.37    0.24
  -7  -8  -7    1.62    0.25
   7   8   7    1.65    0.27
  -8  -8  -7    1.25    0.24
   8   8   7    0.50    0.25
  -9  -8  -7    0.23    0.26
   9   8   7    0.58    0.30
  -9   9   7   -0.46    0.31
   8  -9  -7    0.06    0.22
  -8   9   7    0.04    0.26
   7  -9  -7    0.31    0.22
  -7   9   7    0.30    0.23
   6  -9  -7    7.24    0.68
  -6   9   7    7.58    0.70
   5  -9  -7   14.05    1.17
  -5   9   7   13.58    1.20
   4  -9  -7    1.27    0.19
  -4   9   7    0.72    0.23
   3  -9  -7   18.97    1.62
  -3   9   7   20.11    1.65
   2  -9  -7    2.60    0.26
  -2   9   7    1.92    0.30
   1  -9  -7    2.10    0.24
  -1   9   7    2.32    0.30
   0  -9  -7   -0.10    0.11
   0   9   7    0.03    0.10
   0   9   7   -0.09    0.15
  -1  -9  -7    1.75    0.20
   1   9   7    1.35    0.18
   1   9   7    1.31    0.21
  -2  -9  -7    2.04    0.21
   2   9   7    1.12    0.19
   2   9   7    1.57    0.20
  -3  -9  -7   34.68    2.78
   3   9   7   32.66    2.78
  -4  -9  -7   -0.01    0.14
   4   9   7    0.01    0.15
  -5  -9  -7    1.06    0.21
   5   9   7    1.53    0.25
  -6  -9  -7    0.01    0.17
   6   9   7   -0.10    0.18
  -7  -9  -7    0.47    0.21
   7   9   7    0.30    0.22
  -8  -9  -7    0.90    0.26
   8   9   7    0.89    0.28
  -9  -9  -7   -0.27    0.32
   9   9   7    0.34    0.30
   9 -10  -7   -0.02    0.38
  -9  10   7    0.33    0.35
   8 -10  -7    0.29    0.24
  -8  10   7    0.09    0.29
   7 -10  -7    0.30    0.20
  -7  10   7    0.74    0.28
   6 -10  -7    0.13    0.18
  -6  10   7    0.15    0.23
   5 -10  -7    0.48    0.18
  -5  10   7    0.49    0.24
   4 -10  -7    3.02    0.34
  -4  10   7    3.69    0.40
   3 -10  -7   15.27    1.30
  -3  10   7   15.52    1.32
   2 -10  -7    0.25    0.14
  -2  10   7    0.09    0.20
   1 -10  -7    1.04    0.18
  -1  10   7    1.84    0.30
   0 -10  -7    1.34    0.19
   0  10   7    1.57    0.26
  -1 -10  -7    0.61    0.15
   1  10   7    0.46    0.18
   1  10   7    0.46    0.14
  -2 -10  -7    2.49    0.27
   2  10   7    2.45    0.27
   2  10   7    2.26    0.26
  -3 -10  -7    3.17    0.33
   3  10   7    3.06    0.33
  -4 -10  -7    0.20    0.16
   4  10   7    0.36    0.17
  -5 -10  -7    0.79    0.20
   5  10   7    1.04    0.21
  -6 -10  -7    0.29    0.20
   6  10   7    0.10    0.20
  -7 -10  -7    0.01    0.24
   7  10   7    0.22    0.23
  -8 -10  -7    0.19    0.30
   8  10   7    0.12    0.28
   9 -11  -7    0.02    0.31
   8 -11  -7    1.45    0.34
  -8  11   7    2.93    0.42
   7 -11  -7    0.08    0.22
  -7  11   7   -0.03    0.27
   6 -11  -7    2.26    0.29
  -6  11   7    1.53    0.33
   5 -11  -7    0.36    0.18
  -5  11   7    0.26    0.25
   4 -11  -7    0.41    0.17
  -4  11   7    0.20    0.26
   3 -11  -7    0.48    0.17
  -3  11   7    0.35    0.26
   2 -11  -7    3.67    0.36
  -2  11   7    3.25    0.42
   1 -11  -7   -0.03    0.14
  -1  11   7    0.04    0.22
   0 -11  -7    1.81    0.24
   0  11   7    2.26    0.29
  -1 -11  -7    1.97    0.26
   1  11   7    2.46    0.28
  -2 -11  -7    1.55    0.22
   2  11   7    1.31    0.20
  -3 -11  -7    0.69    0.18
   3  11   7    0.54    0.17
  -4 -11  -7    1.83    0.25
   4  11   7    1.41    0.24
  -5 -11  -7    0.34    0.19
   5  11   7    0.32    0.19
  -6 -11  -7    0.18    0.21
   6  11   7    0.31    0.22
  -7 -11  -7   -0.19    0.23
   7  11   7   -0.03    0.24
  -8 -11  -7   -0.16    0.31
   8  11   7   -0.06    0.30
   8 -12  -7    0.12    0.29
  -8  12   7    0.16    0.37
   7 -12  -7    1.16    0.28
  -7  12   7    0.74    0.32
   6 -12  -7    0.11    0.23
  -6  12   7    0.14    0.28
   5 -12  -7    0.15    0.19
  -5  12   7    0.30    0.28
   4 -12  -7   -0.26    0.16
  -4  12   7    0.03    0.27
   3 -12  -7    3.53    0.38
  -3  12   7    3.89    0.48
   2 -12  -7    3.91    0.40
  -2  12   7    3.86    0.48
   1 -12  -7    0.40    0.16
  -1  12   7    0.63    0.30
   0 -12  -7    0.23    0.16
   0  12   7    0.27    0.24
  -1 -12  -7    1.89    0.27
   1  12   7    2.78    0.33
  -2 -12  -7    1.65    0.24
  -3 -12  -7    0.75    0.21
   3  12   7    1.21    0.21
  -4 -12  -7    0.34    0.20
   4  12   7    0.41    0.20
  -5 -12  -7    0.53    0.21
   5  12   7    0.29    0.21
  -6 -12  -7    0.70    0.26
   6  12   7    1.09    0.26
  -7 -12  -7    0.03    0.30
   7  12   7    0.15    0.31
  -8 -12  -7    0.49    0.37
   8  12   7    0.53    0.39
   8 -13  -7   -0.05    0.33
   7 -13  -7   -0.16    0.26
  -7  13   7    0.18    0.28
   6 -13  -7    0.36    0.24
  -6  13   7    0.56    0.33
   5 -13  -7    0.09    0.22
  -5  13   7    0.11    0.31
   4 -13  -7    0.24    0.20
  -4  13   7    0.35    0.32
   3 -13  -7    4.16    0.44
  -3  13   7    4.40    0.53
   2 -13  -7    0.04    0.17
  -2  13   7    0.09    0.29
   1 -13  -7    5.00    0.51
  -1  13   7    5.98    0.59
   0 -13  -7   -0.09    0.17
   0  13   7    0.25    0.26
  -1 -13  -7    2.16    0.27
   1  13   7    2.04    0.30
  -2 -13  -7    1.04    0.22
  -3 -13  -7    1.05    0.23
  -4 -13  -7   -0.09    0.20
   4  13   7    0.17    0.23
  -5 -13  -7   -0.24    0.22
   5  13   7    0.17    0.25
  -6 -13  -7    1.14    0.32
   6  13   7    1.11    0.28
  -7 -13  -7    0.08    0.30
   7  13   7    0.29    0.35
   7 -14  -7    0.15    0.30
   6 -14  -7    1.56    0.32
  -6  14   7    1.28    0.41
   5 -14  -7    2.06    0.32
  -5  14   7    1.87    0.42
   4 -14  -7   -0.06    0.21
  -4  14   7    0.24    0.35
   3 -14  -7    1.78    0.27
  -3  14   7    1.48    0.39
   2 -14  -7    0.56    0.20
  -2  14   7    0.79    0.33
   1 -14  -7    4.49    0.46
  -1  14   7    4.50    0.53
   0 -14  -7    0.34    0.20
   0  14   7    0.55    0.26
  -1 -14  -7    4.87    0.51
   1  14   7    5.33    0.54
  -2 -14  -7    1.41    0.26
  -3 -14  -7   -0.18    0.21
  -4 -14  -7    0.57    0.24
  -5 -14  -7    0.11    0.25
  -6 -14  -7    0.21    0.29
   6  14   7    0.35    0.29
   6 -15  -7    0.19    0.29
  -6  15   7    0.05    0.40
   5 -15  -7    0.18    0.27
  -5  15   7    0.20    0.41
   4 -15  -7    0.11    0.23
  -4  15   7    0.20    0.39
   3 -15  -7    0.54    0.24
  -3  15   7    0.97    0.40
   2 -15  -7    2.47    0.32
  -2  15   7    1.52    0.42
   1 -15  -7    0.55    0.22
  -1  15   7    0.80    0.38
   0 -15  -7    0.67    0.23
   0  15   7   -0.04    0.28
  -1 -15  -7    3.61    0.41
  -2 -15  -7    0.55    0.22
  -3 -15  -7    0.31    0.24
  -4 -15  -7   -0.06    0.25
  -5 -15  -7   -0.16    0.28
  -6 -15  -7   -0.15    0.32
   5 -16  -7    0.13    0.30
  -5  16   7    0.43    0.45
   4 -16  -7    1.29    0.31
  -4  16   7    1.85    0.50
   3 -16  -7    0.10    0.25
  -3  16   7    0.62    0.44
   2 -16  -7    0.16    0.24
  -2  16   7    0.42    0.40
   1 -16  -7    0.14    0.23
  -1  16   7    0.51    0.37
   0 -16  -7   -0.01    0.23
   0  16   7    0.09    0.34
  -1 -16  -7    1.22    0.29
  -2 -16  -7    0.18    0.25
  -3 -16  -7    1.14    0.29
  -4 -16  -7    0.05    0.34
  -5 -16  -7   -0.36    0.36
   3 -17  -7   -0.04    0.28
  -3  17   7    0.80    0.52
   2 -17  -7    0.02    0.26
  -2  17   7   -0.06    0.46
   1 -17  -7    0.15    0.27
  -1  17   7    1.22    0.53
   0 -17  -7    0.31    0.27
  -1 -17  -7    0.08    0.28
  -2 -17  -7    0.16    0.30
  -3 -17  -7   -0.05    0.30
  -2  18   7    0.05    0.52
  -1  18   7    0.00    0.52
  -3 -17   8    1.24    0.39
   2  17  -8   -0.21    0.34
   1  17  -8    0.25    0.32
   0  17  -8    0.12    0.32
  -1  17  -8   -0.06    0.32
  -2  17  -8   -0.32    0.32
   2 -17   8   -0.03    0.31
  -3  17  -8   -0.18    0.40
   3 -17   8   -0.31    0.32
   4 -17   8   -0.22    0.31
  -5 -16   8    0.32    0.37
  -4 -16   8    0.95    0.37
  -3 -16   8    3.21    0.46
  -2 -16   8    1.50    0.35
   1  16  -8    0.69    0.31
   0  16  -8    0.82    0.30
  -1  16  -8    0.23    0.29
  -2  16  -8    0.46    0.30
   2 -16   8    0.36    0.24
  -3  16  -8    0.26    0.31
   3 -16   8    0.08    0.25
  -4  16  -8    0.36    0.33
   4 -16   8   -0.03    0.27
  -5  16  -8   -0.24    0.39
   5 -16   8    0.19    0.37
  -6 -15   8   -0.02    0.37
  -5 -15   8    0.26    0.32
  -4 -15   8    1.49    0.34
  -3 -15   8    0.37    0.28
  -2 -15   8    0.21    0.26
  -1 -15   8    0.04    0.23
   0  15  -8    2.32    0.35
  -1  15  -8   -0.08    0.24
   1 -15   8    0.16    0.20
  -2  15  -8    1.87    0.33
   2 -15   8    1.71    0.28
  -3  15  -8    0.44    0.28
   3 -15   8    0.97    0.28
  -4  15  -8    0.75    0.36
   4 -15   8    1.45    0.29
  -5  15  -8    0.20    0.33
   5 -15   8    0.62    0.30
  -6  15  -8    0.04    0.43
   7  14  -8    0.06    0.41
  -7 -14   8   -0.08    0.42
   6  14  -8   -0.34    0.31
  -6 -14   8    0.32    0.32
   5  14  -8    0.68    0.33
  -5 -14   8    0.17    0.32
  -4 -14   8    0.20    0.26
  -3 -14   8    0.13    0.23
  -2 -14   8    0.97    0.25
  -1 -14   8   -0.07    0.22
   0  14  -8    0.14    0.22
  -1  14  -8    0.96    0.26
   1 -14   8    0.75    0.20
  -2  14  -8   -0.04    0.22
   2 -14   8    0.03    0.19
  -3  14  -8    0.98    0.27
   3 -14   8    0.96    0.24
  -4  14  -8    0.31    0.26
   4 -14   8    0.41    0.23
  -5  14  -8    0.12    0.28
   5 -14   8   -0.08    0.25
  -6  14  -8    0.04    0.37
   6 -14   8    0.21    0.29
  -7  14  -8   -0.41    0.48
   7  13  -8    0.50    0.34
  -7 -13   8    0.28    0.33
   6  13  -8    0.09    0.28
  -6 -13   8   -0.06    0.27
   5  13  -8    0.70    0.27
  -5 -13   8    1.08    0.28
   4  13  -8    0.40    0.23
  -4 -13   8    0.65    0.24
   3  13  -8    0.06    0.20
  -3 -13   8    0.18    0.21
  -2 -13   8   -0.03    0.20
  -1 -13   8    0.12    0.15
   0 -13   8    2.62    0.35
   0 -13   8    2.82    0.31
  -1  13  -8    0.78    0.23
   1 -13   8    1.08    0.21
  -2  13  -8    1.17    0.24
   2 -13   8    0.75    0.20
  -3  13  -8    0.31    0.21
   3 -13   8    0.11    0.19
  -4  13  -8    1.47    0.28
   4 -13   8    1.16    0.25
  -5  13  -8    0.10    0.28
   5 -13   8   -0.15    0.22
  -6  13  -8    0.24    0.33
   6 -13   8    0.03    0.25
  -7  13  -8   -0.20    0.42
   7 -13   8   -0.05    0.33
   8  12  -8    0.27    0.36
  -8 -12   8    0.38    0.37
   7  12  -8   -0.04    0.30
  -7 -12   8   -0.11    0.32
   6  12  -8    0.09    0.26
  -6 -12   8    0.41    0.26
   5  12  -8    0.11    0.22
  -5 -12   8    0.18    0.23
   4  12  -8    2.46    0.36
  -4 -12   8    3.10    0.36
   3  12  -8    0.24    0.22
  -3 -12   8    0.13    0.19
   2  12  -8    0.12    0.18
  -2 -12   8    0.30    0.19
  -1 -12   8   -0.07    0.17
   0 -12   8   21.85    1.81
   0 -12   8   21.65    1.83
  -1  12  -8    1.01    0.22
   1 -12   8    1.04    0.19
  -2  12  -8    0.74    0.21
   2 -12   8    0.42    0.17
  -3  12  -8    4.35    0.45
   3 -12   8    4.08    0.43
  -4  12  -8    6.01    0.58
   4 -12   8    5.53    0.55
  -5  12  -8    0.02    0.22
   5 -12   8   -0.09    0.20
  -6  12  -8    1.06    0.36
   6 -12   8    0.99    0.26
  -7  12  -8    0.45    0.46
   7 -12   8    0.92    0.33
   8  11  -8    1.09    0.41
  -8 -11   8    1.22    0.34
   7  11  -8    1.40    0.32
  -7 -11   8    1.36    0.31
   6  11  -8   -0.10    0.22
  -6 -11   8    0.11    0.22
   5  11  -8    3.55    0.40
  -5 -11   8    3.61    0.41
   4  11  -8    0.10    0.19
  -4 -11   8    0.06    0.19
   3  11  -8    0.76    0.19
  -3 -11   8    0.47    0.20
   2  11  -8    1.14    0.21
  -2 -11   8    0.99    0.21
   1  11  -8    0.31    0.16
  -1 -11   8    0.24    0.17
  -1 -11   8    0.17    0.15
   0 -11   8   25.31    2.11
   0 -11   8   25.76    2.13
   1 -11   8   17.12    1.32
   1 -11   8   14.14    1.33
  -2  11  -8    2.71    0.33
   2 -11   8    3.61    0.34
  -3  11  -8    3.86    0.41
   3 -11   8    3.88    0.39
  -4  11  -8    0.23    0.20
   4 -11   8    0.57    0.19
  -5  11  -8    0.05    0.21
   5 -11   8    0.17    0.19
  -6  11  -8    0.21    0.27
   6 -11   8    0.04    0.21
  -7  11  -8    0.58    0.42
   7 -11   8    1.29    0.29
   8 -11   8    0.25    0.30
   8  10  -8   -0.03    0.29
  -8 -10   8    0.17    0.27
   7  10  -8    3.22    0.42
  -7 -10   8    3.28    0.42
   6  10  -8   -0.22    0.23
  -6 -10   8    0.16    0.21
   5  10  -8   -0.13    0.18
  -5 -10   8    0.23    0.19
   4  10  -8    2.55    0.30
  -4 -10   8    2.21    0.30
   3  10  -8    5.03    0.48
  -3 -10   8    4.77    0.48
   2  10  -8    5.63    0.53
  -2 -10   8    6.18    0.55
   1  10  -8    4.81    0.48
  -1 -10   8    5.71    0.50
  -1 -10   8    5.22    0.46
   0  10  -8    7.52    0.71
   0 -10   8    8.67    0.72
   0 -10   8    9.03    0.74
   1 -10   8    0.49    0.16
   1 -10   8    0.70    0.16
  -2  10  -8    1.57    0.23
   2 -10   8    1.58    0.22
  -3  10  -8    4.71    0.47
   3 -10   8    4.82    0.45
  -4  10  -8    4.29    0.44
   4 -10   8    4.32    0.43
  -5  10  -8   -0.14    0.19
   5 -10   8    0.33    0.18
  -6  10  -8    0.62    0.26
   6 -10   8    0.58    0.22
  -7  10  -8    0.39    0.39
   7 -10   8    0.66    0.25
   8 -10   8    0.15    0.27
   9   9  -8   -0.44    0.31
   8   9  -8    1.31    0.32
  -8  -9   8    1.17    0.29
   7   9  -8    0.12    0.23
  -7  -9   8    0.39    0.22
   6   9  -8    0.59    0.22
  -6  -9   8    1.15    0.23
   5   9  -8    0.66    0.20
  -5  -9   8    0.63    0.19
   4   9  -8    7.62    0.71
  -4  -9   8    8.20    0.71
   3   9  -8    0.51    0.16
  -3  -9   8    0.64    0.15
   2   9  -8   31.22    2.52
  -2  -9   8   29.69    2.52
   1   9  -8    1.95    0.25
  -1  -9   8    2.30    0.26
  -1  -9   8    2.38    0.23
   0   9  -8    7.16    0.64
   0  -9   8    7.13    0.64
   0  -9   8    8.49    0.67
  -1   9  -8    0.01    0.11
   1  -9   8   -0.15    0.13
   1  -9   8   -0.07    0.12
  -2   9  -8    2.69    0.27
   2  -9   8    2.44    0.27
  -3   9  -8   -0.12    0.14
   3  -9   8    0.11    0.14
  -4   9  -8    2.91    0.34
   4  -9   8    3.41    0.34
  -5   9  -8    0.04    0.17
   5  -9   8   -0.10    0.16
  -6   9  -8    3.17    0.42
   6  -9   8    3.88    0.39
   7  -9   8    0.04    0.20
   8  -9   8   -0.06    0.24
   9  -9   8    0.51    0.30
   9   8  -8    0.09    0.30
  -9  -8   8    0.12    0.27
   8   8  -8    0.77    0.27
  -8  -8   8    0.50    0.24
   7   8  -8    0.22    0.21
  -7  -8   8    0.25    0.20
   6   8  -8    0.44    0.21
  -6  -8   8    1.40    0.22
   5   8  -8    1.85    0.27
  -5  -8   8    2.01    0.24
   4   8  -8    3.41    0.35
  -4  -8   8    3.10    0.35
   3   8  -8    9.81    0.82
  -3  -8   8    9.22    0.82
   2   8  -8   -0.07    0.11
  -2  -8   8   -0.02    0.13
   1   8  -8    1.96    0.22
  -1  -8   8    1.69    0.23
  -1  -8   8    1.98    0.20
   0   8  -8   16.12    1.34
   0  -8   8   15.65    1.34
   0  -8   8   16.80    1.35
  -1   8  -8    2.78    0.31
   1  -8   8    3.49    0.32
   1  -8   8    3.59    0.31
  -2   8  -8    5.22    0.45
   2  -8   8    5.12    0.46
   2  -8   8    4.81    0.46
  -3   8  -8   17.03    1.37
   3  -8   8   15.42    1.36
   3  -8   8   16.24    1.35
  -4   8  -8   -0.03    0.14
   4  -8   8    0.11    0.14
  -5   8  -8    3.01    0.33
   5  -8   8    2.52    0.31
  -6   8  -8    1.04    0.28
   6  -8   8    1.67    0.24
   7  -8   8    2.95    0.36
   8  -8   8   -0.01    0.22
   9  -8   8   -0.16    0.28
   9   7  -8    0.32    0.30
  -9  -7   8    0.37    0.26
   8   7  -8    0.56    0.25
  -8  -7   8    0.76    0.23
   7   7  -8    3.23    0.39
  -7  -7   8    3.30    0.37
   6   7  -8    0.53    0.21
  -6  -7   8    0.94    0.20
   5   7  -8    0.19    0.16
  -5  -7   8    0.07    0.15
   4   7  -8    0.04    0.14
  -4  -7   8    0.22    0.13
   3   7  -8    5.44    0.55
  -3  -7   8    7.28    0.57
   2   7  -8    7.10    0.63
  -2  -7   8    7.67    0.61
  -2  -7   8    6.55    0.63
   1   7  -8   24.77    2.06
  -1  -7   8   24.19    2.07
  -1  -7   8   25.61    2.05
   0   7  -8    2.22    0.24
   0  -7   8    2.53    0.26
   0  -7   8    2.71    0.24
  -1   7  -8    5.95    0.53
   1  -7   8    6.20    0.54
   1  -7   8    6.21    0.53
   2  -7   8    2.66    0.26
   2  -7   8    2.53    0.27
   2  -7   8    2.56    0.25
  -3   7  -8    7.12    0.64
   3  -7   8    6.86    0.63
   3  -7   8    7.77    0.63
  -4   7  -8    4.76    0.50
   4  -7   8    6.33    0.50
   4  -7   8    5.50    0.48
  -5   7  -8    0.91    0.20
   5  -7   8    0.57    0.17
  -6   7  -8    0.79    0.25
   6  -7   8    0.83    0.20
   7  -7   8    0.13    0.18
   8  -7   8   -0.12    0.22
   9  -7   8   -0.24    0.25
  10   6  -8   -0.20    0.31
   9   6  -8    0.01    0.27
  -9  -6   8    0.02    0.23
   8   6  -8   -0.11    0.22
  -8  -6   8   -0.09    0.19
   7   6  -8    1.74    0.28
  -7  -6   8    1.96    0.27
   6   6  -8    5.35    0.55
  -6  -6   8    6.34    0.55
   5   6  -8    0.02    0.15
  -5  -6   8   -0.06    0.13
   4   6  -8   20.33    1.66
  -4  -6   8   19.45    1.66
   3   6  -8    0.60    0.14
  -3  -6   8    0.67    0.14
   2   6  -8   25.25    2.26
  -2  -6   8   28.62    2.25
  -2  -6   8   27.74    2.27
   1   6  -8   11.11    1.01
  -1  -6   8   12.89    1.02
  -1  -6   8   12.19    1.00
   0   6  -8    2.00    0.22
   0  -6   8    2.37    0.21
   0  -6   8    2.16    0.23
  -1   6  -8   10.33    0.90
   1  -6   8   10.92    0.91
   1  -6   8   10.94    0.90
   2  -6   8    4.96    0.43
   2  -6   8    4.86    0.43
   2  -6   8    4.78    0.44
  -3   6  -8    0.37    0.13
   3  -6   8    0.55    0.11
   3  -6   8    0.58    0.12
  -4   6  -8   16.27    1.35
   4  -6   8   16.73    1.34
   4  -6   8   15.27    1.35
  -5   6  -8    0.00    0.15
   5  -6   8    0.06    0.14
   5  -6   8   -0.11    0.12
  -6   6  -8    8.52    0.89
   6  -6   8   11.06    0.86
   7  -6   8    0.20    0.18
   8  -6   8    1.01    0.24
   9  -6   8   -0.04    0.25
 -10   6  -8    0.35    0.32
  10   5  -8    0.02    0.30
 -10  -5   8    0.08    0.29
   9   5  -8   -0.04    0.25
  -9  -5   8    0.16    0.26
   8   5  -8    0.87    0.23
  -8  -5   8    0.80    0.22
   7   5  -8    0.06    0.18
  -7  -5   8   -0.01    0.17
   6   5  -8    6.18    0.54
  -6  -5   8    5.61    0.54
   5   5  -8    3.88    0.39
  -5  -5   8    4.06    0.39
   4   5  -8   16.89    1.34
  -4  -5   8   15.21    1.34
   3   5  -8   15.96    1.37
  -3  -5   8   16.82    1.37
   2   5  -8   37.19    3.24
  -2  -5   8   40.74    3.24
  -2  -5   8   39.96    3.22
   1   5  -8    0.02    0.09
  -1  -5   8    0.01    0.05
  -1  -5   8   -0.04    0.07
   0   5  -8    1.89    0.21
   0  -5   8    2.25    0.20
   0  -5   8    2.06    0.22
   1  -5   8    8.92    0.79
   1  -5   8   10.03    0.80
   1  -5   8    9.65    0.80
   2  -5   8    6.84    0.58
   2  -5   8    6.99    0.58
   2  -5   8    6.66    0.59
  -3   5  -8    9.62    0.90
   3  -5   8   11.08    0.90
   3  -5   8   11.41    0.90
  -4   5  -8    6.91    0.62
   4  -5   8    7.67    0.62
   4  -5   8    6.82    0.61
  -5   5  -8    3.26    0.34
   5  -5   8    3.05    0.33
   5  -5   8    3.42    0.33
   6  -5   8   22.71    1.83
   6  -5   8   21.09    1.83
   7  -5   8    0.23    0.16
   7  -5   8    0.26    0.17
   8  -5   8   -0.12    0.19
  -9   5  -8    1.25    0.30
 -10   5  -8    0.42    0.30
  10   4  -8    0.31    0.29
 -10  -4   8    0.04    0.31
   9   4  -8   -0.30    0.24
  -9  -4   8   -0.12    0.21
   8   4  -8   -0.11    0.20
  -8  -4   8    0.19    0.19
   7   4  -8    8.44    0.73
  -7  -4   8    7.79    0.72
   6   4  -8    0.28    0.16
  -6  -4   8    0.15    0.14
   5   4  -8    0.28    0.13
  -5  -4   8    0.28    0.13
   4   4  -8    2.66    0.28
  -4  -4   8    2.78    0.28
   3   4  -8   20.98    1.69
  -3  -4   8   19.92    1.69
   2   4  -8    0.41    0.05
   2   4  -8    0.32    0.10
  -2  -4   8    0.41    0.10
   1   4  -8  102.84    8.54
  -1  -4   8  106.12    8.53
  -1  -4   8  103.74    8.54
   0   4  -8    6.64    0.60
   0  -4   8    7.07    0.59
   0  -4   8    7.36    0.60
   1  -4   8    7.60    0.58
   1  -4   8    6.23    0.57
   1  -4   8    6.66    0.58
   2  -4   8   37.82    3.06
   2  -4   8   36.21    3.05
   2  -4   8   37.51    3.06
  -3   4  -8    7.99    0.73
   3  -4   8    9.15    0.73
   3  -4   8    8.93    0.73
  -4   4  -8    0.96    0.14
   4  -4   8    0.96    0.14
   4  -4   8    0.72    0.14
  -5   4  -8    2.65    0.27
   5  -4   8    2.47    0.26
   5  -4   8    1.95    0.26
   6  -4   8    0.04    0.14
   6  -4   8   -0.02    0.14
   7  -4   8    6.50    0.62
   7  -4   8    7.13    0.62
  -8   4  -8    0.22    0.20
   8  -4   8    0.17    0.20
  -9   4  -8    0.63    0.25
 -10   4  -8    0.70    0.31
  11   3  -8    0.42    0.36
  10   3  -8    0.13    0.29
 -10  -3   8    0.22    0.26
   9   3  -8    1.50    0.31
  -9  -3   8    0.72    0.24
   8   3  -8    0.01    0.19
  -8  -3   8    0.08    0.18
   7   3  -8    2.57    0.32
  -7  -3   8    2.65    0.30
   6   3  -8    1.70    0.22
  -6  -3   8    1.40    0.21
   5   3  -8    0.16    0.12
  -5  -3   8    0.01    0.11
   4   3  -8    0.87    0.13
  -4  -3   8    0.18    0.11
   3   3  -8    0.09    0.09
  -3  -3   8    0.32    0.10
   2   3  -8    2.42    0.24
  -2  -3   8    2.47    0.24
   1   3  -8   75.07    5.94
   1   3  -8   69.97    5.95
  -1  -3   8   72.27    5.95
   0  -3   8    1.90    0.19
   0  -3   8    2.23    0.18
   0  -3   8    1.53    0.19
   1  -3   8  151.05   12.45
   1  -3   8  150.53   12.46
   1  -3   8  155.51   12.46
   2  -3   8    0.89    0.11
   2  -3   8    0.61    0.11
   2  -3   8    0.93    0.11
  -3   3  -8   -0.04    0.07
   3  -3   8    0.02    0.09
   3  -3   8    0.23    0.09
  -4   3  -8    2.92    0.27
   4  -3   8    3.03    0.28
   4  -3   8    2.47    0.28
  -5   3  -8    1.80    0.21
   5  -3   8    1.24    0.17
   5  -3   8    1.24    0.19
   6  -3   8   19.11    1.61
   6  -3   8   19.42    1.61
  -7   3  -8    0.07    0.17
   7  -3   8   -0.15    0.13
  -8   3  -8    0.38    0.19
   8  -3   8    0.00    0.17
  -9   3  -8    1.75    0.30
   9  -3   8    1.54    0.28
 -10   3  -8    0.46    0.29
  11   2  -8    0.20    0.36
  10   2  -8    0.34    0.28
 -10  -2   8    0.17    0.25
   9   2  -8    0.76    0.25
  -9  -2   8    0.49    0.22
   8   2  -8    5.98    0.61
  -8  -2   8    6.97    0.61
   7   2  -8    0.05    0.17
  -7  -2   8   -0.10    0.14
   6   2  -8    0.04    0.13
  -6  -2   8    0.03    0.10
   5   2  -8    4.86    0.46
  -5  -2   8    5.12    0.46
   4   2  -8    2.31    0.23
  -4  -2   8    1.90    0.22
   3   2  -8    2.47    0.23
  -3  -2   8    2.11    0.23
   2   2  -8   33.05    2.69
   2   2  -8   32.61    2.67
  -2  -2   8   32.29    2.68
   1   2  -8    1.40    0.17
   1   2  -8    1.61    0.15
  -1  -2   8    1.83    0.17
   0   2  -8   42.98    3.53
   0  -2   8   43.23    3.53
   0  -2   8   42.96    3.53
  -1   2  -8    2.07    0.22
   1  -2   8    3.06    0.23
   1  -2   8    2.38    0.22
  -2   2  -8   41.17    3.50
   2  -2   8   44.26    3.50
   2  -2   8   42.29    3.50
  -3   2  -8    4.47    0.38
  -3   2  -8    4.23    0.39
   3  -2   8    4.37    0.39
  -4   2  -8    1.08    0.15
  -4   2  -8    1.23    0.14
   4  -2   8    0.86    0.15
  -5   2  -8    1.15    0.17
   5  -2   8    0.98    0.16
  -6   2  -8    0.05    0.13
   6  -2   8    0.08    0.12
  -7   2  -8    1.42    0.23
   7  -2   8    1.48    0.21
  -8   2  -8    0.41    0.20
   8  -2   8    0.19    0.19
  -9   2  -8    2.95    0.37
   9  -2   8    2.87    0.34
 -10   2  -8    0.19    0.26
  10  -2   8    0.14    0.24
  11   1  -8    0.12    0.39
 -11  -1   8    0.12    0.33
  10   1  -8    0.56    0.28
 -10  -1   8    0.38    0.26
   9   1  -8    1.41    0.26
  -9  -1   8    0.54    0.24
   8   1  -8    1.09    0.25
  -8  -1   8    0.99    0.21
   7   1  -8    0.28    0.17
  -7  -1   8    0.17    0.16
   6   1  -8    7.75    0.69
  -6  -1   8    8.08    0.69
   5   1  -8    0.04    0.11
  -5  -1   8    0.02    0.11
   4   1  -8    4.05    0.34
   4   1  -8    3.82    0.31
  -4  -1   8    3.10    0.34
   3   1  -8    0.39    0.05
   3   1  -8    0.23    0.10
  -3  -1   8    0.16    0.09
   2   1  -8   55.09    4.53
   2   1  -8   57.99    4.55
  -2  -1   8   53.56    4.54
   1   1  -8  105.59    8.43
  -1  -1   8   99.33    8.44
  -1  -1   8  104.18    8.44
   0   1  -8   98.35    8.09
   0  -1   8  101.04    8.09
   0  -1   8   97.45    8.09
  -1   1  -8   10.36    0.96
   1  -1   8   11.87    0.95
   1  -1   8   12.62    0.96
  -2   1  -8   33.44    2.83
   2  -1   8   33.90    2.83
   2  -1   8   35.65    2.82
  -3   1  -8    0.65    0.11
  -3   1  -8    0.64    0.09
   3  -1   8    0.70    0.12
  -4   1  -8    7.54    0.65
  -4   1  -8    7.07    0.64
   4  -1   8    8.39    0.65
  -5   1  -8   -0.04    0.11
   5  -1   8    0.05    0.11
  -6   1  -8    1.87    0.22
   6  -1   8    1.59    0.21
  -7   1  -8    1.18    0.20
   7  -1   8    0.98    0.19
  -8   1  -8    0.26    0.19
   8  -1   8    0.35    0.17
  -9   1  -8   -0.11    0.21
   9  -1   8   -0.05    0.18
 -10   1  -8    1.15    0.29
  10  -1   8    0.82    0.26
  11   0  -8    0.18    0.38
 -11   0   8    0.09    0.33
  10   0  -8    0.10    0.25
 -10   0   8   -0.06    0.29
   9   0  -8    0.79    0.27
  -9   0   8    0.26    0.22
   8   0  -8    0.94    0.23
  -8   0   8    0.56    0.20
   7   0  -8    4.50    0.46
  -7   0   8    4.71    0.45
   6   0  -8    0.92    0.16
  -6   0   8    0.67    0.16
   5   0  -8    1.76    0.23
  -5   0   8    2.16    0.23
   4   0  -8   18.36    1.55
   4   0  -8   19.22    1.54
  -4   0   8   18.17    1.55
   3   0  -8   22.38    1.84
   3   0  -8   22.95    1.83
  -3   0   8   21.24    1.84
   2   0  -8    0.44    0.06
   2   0  -8    0.33    0.09
  -2   0   8    0.45    0.09
   1   0  -8   60.99    5.01
  -1   0   8   59.92    5.01
  -1   0   8   62.62    5.01
   0   0  -8  102.92    8.41
   0   0   8  104.40    8.42
   0   0   8  101.27    8.42
  -1   0  -8   77.15    6.26
   1   0   8   75.48    6.26
   1   0   8   76.71    6.25
  -2   0  -8    4.29    0.40
   2   0   8    4.75    0.39
   2   0   8    4.55    0.40
  -3   0  -8   25.59    2.03
  -3   0  -8   24.39    2.04
   3   0   8   23.70    2.04
  -4   0  -8   26.86    2.23
   4   0   8   27.14    2.23
  -5   0  -8    0.15    0.12
   5   0   8    0.08    0.11
  -6   0  -8    5.92    0.52
   6   0   8    5.65    0.52
  -7   0  -8   -0.07    0.15
   7   0   8    0.10    0.14
  -8   0  -8    2.39    0.27
   8   0   8    1.20    0.23
  -9   0  -8    1.07    0.24
   9   0   8    0.86    0.22
 -10   0  -8    0.75    0.31
  10   0   8    0.61    0.24
 -11   0  -8    0.02    0.33
  11   0   8    0.24    0.29
 -11   1   8   -0.25    0.34
  10  -1  -8   -0.12    0.24
 -10   1   8    0.00    0.25
   9  -1  -8    4.09    0.45
  -9   1   8    3.55    0.43
   8  -1  -8    0.02    0.18
  -8   1   8    0.25    0.19
   7  -1  -8    0.75    0.21
  -7   1   8    1.26    0.21
   6  -1  -8   -0.05    0.14
  -6   1   8   -0.11    0.13
   5  -1  -8    0.05    0.08
   5  -1  -8   -0.05    0.10
  -5   1   8    0.08    0.09
   4  -1  -8    0.62    0.11
   4  -1  -8    0.70    0.09
  -4   1   8    0.48    0.12
   3  -1  -8   11.29    0.92
   3  -1  -8   11.15    0.93
  -3   1   8   10.86    0.93
   2  -1  -8    2.29    0.20
   2  -1  -8    2.14    0.22
  -2   1   8    2.29    0.22
   1  -1  -8   67.27    5.38
  -1   1   8   64.12    5.39
  -1   1   8   65.79    5.38
   0  -1  -8   41.24    3.40
   0   1   8   42.12    3.40
   0   1   8   41.11    3.41
  -1  -1  -8   25.35    2.13
   1   1   8   26.22    2.13
   1   1   8   26.12    2.12
  -2  -1  -8    5.68    0.49
   2   1   8    5.81    0.48
   2   1   8    5.72    0.50
  -3  -1  -8    9.84    0.80
   3   1   8    9.25    0.81
  -4  -1  -8    7.77    0.68
   4   1   8    8.09    0.68
  -5  -1  -8    0.07    0.11
   5   1   8   -0.05    0.11
  -6  -1  -8    0.15    0.13
   6   1   8    0.27    0.13
  -7  -1  -8    0.81    0.18
   7   1   8    0.46    0.16
  -8  -1  -8    1.35    0.23
   8   1   8    1.14    0.21
  -9  -1  -8    0.15    0.22
   9   1   8   -0.09    0.19
 -10  -1  -8    0.03    0.30
  10   1   8    0.29    0.23
 -11  -1  -8   -0.07    0.34
  11   1   8   -0.05    0.28
 -11   2   8    0.02    0.34
 -10   2   8   -0.07    0.27
   9  -2  -8    0.34    0.22
  -9   2   8    0.29    0.22
   8  -2  -8    0.12    0.19
  -8   2   8    0.05    0.19
   7  -2  -8    0.32    0.18
  -7   2   8    0.35    0.17
   6  -2  -8    0.18    0.14
  -6   2   8    0.30    0.15
   5  -2  -8    9.69    0.81
   5  -2  -8    9.34    0.82
  -5   2   8    9.95    0.83
   4  -2  -8    3.47    0.34
   4  -2  -8    4.15    0.36
  -4   2   8    4.45    0.37
   3  -2  -8   29.24    2.37
   3  -2  -8   29.50    2.37
  -3   2   8   27.71    2.38
   2  -2  -8   36.58    2.98
   2  -2  -8   35.78    2.98
  -2   2   8   36.57    2.98
   1  -2  -8    0.16    0.07
  -1   2   8    0.21    0.07
  -1   2   8    0.23    0.06
   0  -2  -8   23.43    2.00
   0   2   8   25.09    2.00
   0   2   8   24.57    2.01
  -1  -2  -8    0.23    0.07
   1   2   8    0.35    0.06
   1   2   8    0.15    0.08
  -2  -2  -8    3.90    0.42
   2   2   8    5.18    0.40
   2   2   8    4.65    0.42
  -3  -2  -8   18.56    1.49
   3   2   8   17.47    1.50
  -4  -2  -8    1.60    0.17
   4   2   8    0.93    0.15
  -5  -2  -8    0.59    0.14
   5   2   8    0.52    0.13
  -6  -2  -8    0.09    0.13
   6   2   8   -0.02    0.13
  -7  -2  -8    2.76    0.28
   7   2   8    1.65    0.27
  -8  -2  -8    0.21    0.18
   8   2   8    0.04    0.18
  -9  -2  -8   -0.02    0.22
   9   2   8    0.11    0.21
 -10  -2  -8    0.01    0.27
  10   2   8   -0.08    0.26
 -11   3   8    0.25    0.37
 -10   3   8   -0.16    0.32
  -9   3   8    2.86    0.38
   8  -3  -8    0.70    0.21
  -8   3   8    0.50    0.21
   7  -3  -8    1.12    0.21
  -7   3   8    1.70    0.24
   6  -3  -8    5.17    0.47
   6  -3  -8    5.30    0.47
  -6   3   8    5.34    0.49
   5  -3  -8    6.45    0.55
   5  -3  -8    6.24    0.55
  -5   3   8    6.24    0.56
   4  -3  -8    5.04    0.44
   4  -3  -8    4.91    0.44
  -4   3   8    5.13    0.45
   3  -3  -8    5.56    0.46
   3  -3  -8    5.86    0.46
  -3   3   8    4.60    0.47
   2  -3  -8    1.01    0.14
  -2   3   8    1.54    0.14
  -2   3   8    1.21    0.14
   1  -3  -8    0.44    0.07
  -1   3   8    0.13    0.07
  -1   3   8    0.27    0.08
   0  -3  -8   37.32    3.04
   0   3   8   37.73    3.05
   0   3   8   36.38    3.04
  -1  -3  -8   43.32    3.58
   1   3   8   44.39    3.57
   1   3   8   42.78    3.58
  -2  -3  -8    9.04    0.83
   2   3   8   10.38    0.82
   2   3   8    9.66    0.84
  -3  -3  -8    2.73    0.27
   3   3   8    2.95    0.27
  -4  -3  -8   11.64    0.98
   4   3   8   11.72    0.99
  -5  -3  -8    1.88    0.21
   5   3   8    1.38    0.20
  -6  -3  -8    2.69    0.27
   6   3   8    2.11    0.28
  -7  -3  -8    0.30    0.17
   7   3   8    0.18    0.16
  -8  -3  -8    0.26    0.19
   8   3   8    0.02    0.18
  -9  -3  -8   -0.15    0.20
   9   3   8    0.10    0.22
 -10  -3  -8   -0.17    0.27
  10   3   8   -0.20    0.30
 -11   4   8    0.58    0.39
 -10   4   8    0.39    0.31
  -9   4   8    0.60    0.26
  -8   4   8   -0.09    0.20
   7  -4  -8    0.13    0.14
  -7   4   8   -0.16    0.17
   6  -4  -8    1.27    0.18
   6  -4  -8    1.12    0.16
  -6   4   8    0.91    0.20
   5  -4  -8    6.84    0.55
   5  -4  -8    5.55    0.55
  -5   4   8    6.75    0.57
   4  -4  -8   23.60    1.92
   4  -4  -8   22.05    1.92
  -4   4   8   24.42    1.93
   3  -4  -8    0.05    0.09
   3  -4  -8   -0.01    0.07
  -3   4   8    0.31    0.09
   2  -4  -8    4.30    0.39
  -2   4   8    4.58    0.39
  -2   4   8    4.62    0.40
   1  -4  -8   -0.03    0.07
  -1   4   8    0.06    0.07
  -1   4   8    0.06    0.07
   0  -4  -8    0.07    0.07
   0   4   8   -0.17    0.07
   0   4   8    0.00    0.07
  -1  -4  -8   -0.01    0.08
   1   4   8   -0.01    0.08
   1   4   8    0.09    0.05
  -2  -4  -8    0.48    0.10
   2   4   8    0.30    0.06
   2   4   8    0.46    0.10
  -3  -4  -8    0.37    0.11
   3   4   8    0.26    0.10
  -4  -4  -8    4.47    0.40
   4   4   8    4.35    0.41
  -5  -4  -8    2.72    0.28
   5   4   8    2.53    0.29
  -6  -4  -8    0.10    0.14
   6   4   8   -0.02    0.15
  -7  -4  -8    3.38    0.34
   7   4   8    2.77    0.34
  -8  -4  -8    0.52    0.22
   8   4   8    0.57    0.20
  -9  -4  -8   -0.16    0.22
   9   4   8    0.18    0.22
 -10  -4  -8   -0.02    0.28
  10   4   8    0.02    0.28
 -10   5   8    0.44    0.32
  -9   5   8   -0.14    0.24
  -8   5   8    0.28    0.21
   7  -5  -8    0.12    0.17
  -7   5   8   -0.03    0.18
   6  -5  -8    1.44    0.21
  -6   5   8    1.97    0.23
   5  -5  -8    7.42    0.65
   5  -5  -8    7.29    0.65
  -5   5   8    7.93    0.66
   4  -5  -8   10.23    0.90
   4  -5  -8   10.89    0.89
  -4   5   8   10.71    0.90
   3  -5  -8    7.88    0.75
   3  -5  -8    9.60    0.75
  -3   5   8    9.32    0.76
   2  -5  -8    0.40    0.11
  -2   5   8    0.55    0.11
  -2   5   8    0.46    0.10
   1  -5  -8    1.33    0.14
  -1   5   8    1.00    0.13
  -1   5   8    1.15    0.15
   0  -5  -8   33.77    2.80
   0   5   8   36.20    2.80
   0   5   8   32.02    2.80
  -1  -5  -8    6.88    0.63
   1   5   8    7.99    0.62
   1   5   8    7.06    0.63
  -2  -5  -8   -0.04    0.08
   2   5   8   -0.05    0.09
   2   5   8   -0.07    0.06
  -3  -5  -8   27.28    2.14
   3   5   8   24.66    2.14
  -4  -5  -8    0.17    0.12
   4   5   8    0.49    0.12
  -5  -5  -8    0.27    0.14
   5   5   8    0.03    0.13
  -6  -5  -8    0.52    0.16
   6   5   8    0.26    0.16
  -7  -5  -8    2.73    0.33
   7   5   8    2.72    0.32
  -8  -5  -8    0.09    0.19
   8   5   8    0.00    0.19
  -9  -5  -8   -0.17    0.22
   9   5   8    0.10    0.23
 -10  -5  -8    0.14    0.33
  10   5   8   -0.11    0.29
 -10   6   8    0.16    0.33
  -9   6   8    0.01    0.26
  -8   6   8    0.16    0.22
   7  -6  -8    0.08    0.18
  -7   6   8   -0.18    0.19
   6  -6  -8    2.88    0.29
  -6   6   8    2.12    0.30
   5  -6  -8    0.09    0.12
  -5   6   8    0.02    0.12
   4  -6  -8    1.28    0.16
   4  -6  -8    1.09    0.17
  -4   6   8    1.64    0.20
   3  -6  -8    5.71    0.57
   3  -6  -8    7.12    0.56
  -3   6   8    6.76    0.57
   2  -6  -8    1.60    0.21
  -2   6   8    2.38    0.23
  -2   6   8    2.09    0.20
   1  -6  -8    3.74    0.35
  -1   6   8    3.74    0.36
  -1   6   8    3.99    0.34
   0  -6  -8    0.51    0.11
   0   6   8    0.69    0.12
   0   6   8    0.74    0.11
  -1  -6  -8   -0.02    0.09
   1   6   8    0.05    0.09
   1   6   8   -0.05    0.09
  -2  -6  -8    0.11    0.10
   2   6   8   -0.02    0.10
   2   6   8   -0.06    0.09
  -3  -6  -8   17.00    1.35
   3   6   8   15.29    1.34
  -4  -6  -8    2.73    0.29
   4   6   8    2.96    0.30
  -5  -6  -8    4.98    0.40
   5   6   8    3.33    0.40
  -6  -6  -8    0.07    0.15
   6   6   8   -0.18    0.16
  -7  -6  -8    0.02    0.17
   7   6   8    0.09    0.18
  -8  -6  -8   -0.13    0.19
   8   6   8    0.19    0.21
  -9  -6  -8    0.50    0.26
   9   6   8    0.47    0.25
 -10  -6  -8   -0.15    0.30
 -10   7   8    0.58    0.36
  -9   7   8    0.28    0.28
  -8   7   8    0.25    0.24
   7  -7  -8   -0.27    0.19
  -7   7   8    0.03    0.20
   6  -7  -8    0.16    0.17
  -6   7   8   -0.16    0.17
   5  -7  -8    2.11    0.25
  -5   7   8    2.52    0.29
   4  -7  -8    0.84    0.17
  -4   7   8    1.62    0.19
   3  -7  -8    0.04    0.09
   3  -7  -8    0.07    0.11
  -3   7   8    0.01    0.13
   2  -7  -8    0.04    0.10
  -2   7   8   -0.14    0.12
  -2   7   8   -0.02    0.09
   1  -7  -8    0.10    0.10
  -1   7   8   -0.05    0.08
  -1   7   8   -0.15    0.12
   0  -7  -8   -0.14    0.09
   0   7   8    0.01    0.10
   0   7   8    0.09    0.12
  -1  -7  -8    0.26    0.11
   1   7   8    0.38    0.13
   1   7   8    0.38    0.12
  -2  -7  -8   11.98    0.90
   2   7   8   10.35    0.90
   2   7   8    9.86    0.90
  -3  -7  -8    3.92    0.37
   3   7   8    3.71    0.36
  -4  -7  -8    0.29    0.13
   4   7   8    0.32    0.15
  -5  -7  -8    0.51    0.16
   5   7   8    0.28    0.16
  -6  -7  -8    4.20    0.41
   6   7   8    3.82    0.41
  -7  -7  -8   -0.16    0.20
   7   7   8    0.36    0.19
  -8  -7  -8    0.41    0.22
   8   7   8    0.85    0.25
  -9  -7  -8   -0.14    0.25
   9   7   8    0.11    0.27
 -10  -7  -8    0.49    0.33
 -10   8   8   -0.09    0.38
  -9   8   8    0.46    0.32
   8  -8  -8    0.80    0.25
  -8   8   8    1.40    0.30
   7  -8  -8    1.14    0.24
  -7   8   8    1.10    0.25
   6  -8  -8    0.10    0.18
  -6   8   8    0.38    0.21
   5  -8  -8    0.09    0.16
  -5   8   8   -0.03    0.18
   4  -8  -8   21.27    1.89
  -4   8   8   24.54    1.91
   3  -8  -8    0.34    0.13
  -3   8   8    0.24    0.17
   2  -8  -8    3.12    0.32
  -2   8   8    3.26    0.35
   1  -8  -8   -0.08    0.11
  -1   8   8    0.02    0.17
  -1   8   8    0.02    0.09
   0  -8  -8    0.13    0.11
   0   8   8    0.13    0.10
   0   8   8   -0.09    0.16
  -1  -8  -8    0.03    0.09
   1   8   8    0.04    0.11
   1   8   8   -0.05    0.15
  -2  -8  -8    0.25    0.13
   2   8   8    0.30    0.12
   2   8   8    0.27    0.14
  -3  -8  -8    0.16    0.14
   3   8   8    0.23    0.12
  -4  -8  -8    9.19    0.77
   4   8   8    8.46    0.77
  -5  -8  -8    1.31    0.20
   5   8   8    0.96    0.21
  -6  -8  -8    0.64    0.19
   6   8   8    0.51    0.19
  -7  -8  -8    1.26    0.24
   7   8   8    1.23    0.25
  -8  -8  -8    0.03    0.25
   8   8   8    0.10    0.23
  -9  -8  -8    0.37    0.28
   9   8   8   -0.04    0.28
  -9   9   8   -0.11    0.33
   8  -9  -8    1.42    0.30
  -8   9   8    1.21    0.31
   7  -9  -8    1.32    0.24
  -7   9   8    1.10    0.28
   6  -9  -8    0.42    0.21
  -6   9   8    0.78    0.24
   5  -9  -8    5.49    0.50
  -5   9   8    4.96    0.55
   4  -9  -8   12.01    1.07
  -4   9   8   13.34    1.10
   3  -9  -8    0.46    0.15
  -3   9   8    0.63    0.20
   2  -9  -8    1.26    0.19
  -2   9   8    1.51    0.26
   1  -9  -8   17.37    1.44
  -1   9   8   17.05    1.46
   0  -9  -8    2.78    0.30
   0   9   8    2.92    0.29
   0   9   8    2.87    0.33
   1   9   8    8.60    0.78
   1   9   8    9.04    0.76
  -2  -9  -8    0.44    0.15
   2   9   8    0.80    0.14
  -3  -9  -8    5.19    0.48
   3   9   8    5.13    0.47
  -4  -9  -8   14.60    1.14
   4   9   8   12.25    1.13
  -5  -9  -8    0.30    0.18
   5   9   8    0.42    0.18
  -6  -9  -8    0.66    0.20
   6   9   8    0.79    0.21
  -7  -9  -8   -0.15    0.23
   7   9   8    0.09    0.21
  -8  -9  -8   -0.04    0.24
   8   9   8   -0.10    0.25
  -9  -9  -8   -0.14    0.29
  -9  10   8    0.11    0.33
   8 -10  -8    0.13    0.25
  -8  10   8    0.41    0.31
   7 -10  -8    0.05    0.20
  -7  10   8    0.07    0.26
   6 -10  -8    0.00    0.18
  -6  10   8   -0.03    0.22
   5 -10  -8   10.30    0.86
  -5  10   8    9.34    0.90
   4 -10  -8    0.10    0.15
  -4  10   8    0.49    0.25
   3 -10  -8    0.27    0.15
  -3  10   8    0.04    0.21
   2 -10  -8    0.53    0.16
  -2  10   8    0.30    0.21
   1 -10  -8    0.23    0.14
  -1  10   8    0.42    0.23
   0 -10  -8    0.83    0.17
   0  10   8    0.74    0.23
  -1 -10  -8    0.50    0.13
   1  10   8    0.31    0.15
   1  10   8    0.32    0.17
  -2 -10  -8    1.04    0.19
   2  10   8    1.06    0.19
  -3 -10  -8   11.34    0.88
   3  10   8    9.14    0.86
  -4 -10  -8   -0.15    0.16
   4  10   8    0.02    0.15
  -5 -10  -8   -0.04    0.18
   5  10   8    0.00    0.18
  -6 -10  -8    0.99    0.25
   6  10   8    1.62    0.26
  -7 -10  -8   -0.04    0.23
   7  10   8   -0.02    0.23
  -8 -10  -8    0.38    0.28
   8  10   8    0.37    0.28
  -9 -10  -8   -0.06    0.32
   8 -11  -8    0.39    0.28
  -8  11   8    0.52    0.36
   7 -11  -8    1.14    0.25
  -7  11   8    0.81    0.30
   6 -11  -8   -0.01    0.19
  -6  11   8    0.16    0.21
   5 -11  -8    0.10    0.18
  -5  11   8    0.35    0.24
   4 -11  -8    4.57    0.44
  -4  11   8    4.14    0.50
   3 -11  -8    0.14    0.16
  -3  11   8    1.46    0.32
   2 -11  -8    1.65    0.23
  -2  11   8    1.65    0.31
   1 -11  -8    5.28    0.49
  -1  11   8    4.95    0.54
   0 -11  -8    2.89    0.31
   0  11   8    2.52    0.36
  -1 -11  -8    2.25    0.27
   1  11   8    2.02    0.28
  -2 -11  -8   11.16    0.97
   2  11   8   11.36    0.97
  -3 -11  -8    0.65    0.20
   3  11   8    1.22    0.19
  -4 -11  -8    0.64    0.19
   4  11   8    0.60    0.18
  -5 -11  -8    0.55    0.21
   5  11   8    0.20    0.20
  -6 -11  -8   -0.10    0.22
   6  11   8    0.11    0.21
  -7 -11  -8    0.80    0.28
   7  11   8    1.30    0.32
  -8 -11  -8   -0.14    0.32
   8  11   8    0.20    0.30
   8 -12  -8    0.87    0.37
  -8  12   8    1.33    0.40
   7 -12  -8    0.10    0.28
  -7  12   8    0.40    0.32
   6 -12  -8    1.18    0.26
  -6  12   8    0.95    0.32
   5 -12  -8    1.13    0.25
  -5  12   8    0.83    0.30
   4 -12  -8    1.89    0.27
  -4  12   8    1.94    0.35
   3 -12  -8    1.97    0.28
  -3  12   8    2.57    0.38
   2 -12  -8    0.35    0.17
  -2  12   8    0.73    0.29
   1 -12  -8    2.98    0.35
  -1  12   8    3.95    0.45
   0 -12  -8    0.27    0.17
   0  12   8    0.31    0.24
  -1 -12  -8    2.21    0.28
   1  12   8    2.25    0.33
  -2 -12  -8    0.47    0.18
  -3 -12  -8    1.75    0.27
   3  12   8    1.89    0.25
  -4 -12  -8    1.09    0.24
   4  12   8    1.33    0.25
  -5 -12  -8    0.19    0.22
   5  12   8    0.13    0.23
  -6 -12  -8    0.57    0.26
   6  12   8    0.49    0.26
  -7 -12  -8    1.12    0.35
   7  12   8    1.23    0.32
  -8 -12  -8   -0.06    0.33
   8 -13  -8    0.05    0.34
   7 -13  -8    0.23    0.29
  -7  13   8    0.51    0.37
   6 -13  -8   -0.34    0.23
  -6  13   8    0.30    0.32
   5 -13  -8    1.39    0.27
  -5  13   8    1.66    0.37
   4 -13  -8    0.11    0.20
  -4  13   8    0.04    0.30
   3 -13  -8    0.68    0.20
  -3  13   8    0.57    0.30
   2 -13  -8    0.66    0.20
  -2  13   8    0.87    0.32
   1 -13  -8    0.03    0.17
  -1  13   8    0.44    0.28
   0 -13  -8    1.66    0.25
   0  13   8    1.34    0.34
  -1 -13  -8   -0.22    0.17
  -2 -13  -8    1.67    0.28
  -3 -13  -8    0.27    0.20
  -4 -13  -8    0.22    0.22
  -5 -13  -8    0.32    0.28
   5  13   8   -0.01    0.24
  -6 -13  -8    0.79    0.29
   6  13   8    0.62    0.28
  -7 -13  -8   -0.19    0.31
   7  13   8    0.14    0.33
   7 -14  -8   -0.10    0.31
   6 -14  -8    0.32    0.28
  -6  14   8    0.85    0.39
   5 -14  -8    0.54    0.24
  -5  14   8    0.04    0.34
   4 -14  -8    0.81    0.24
  -4  14   8    1.09    0.37
   3 -14  -8    0.06    0.20
  -3  14   8   -0.48    0.31
   2 -14  -8   -0.19    0.18
  -2  14   8    0.20    0.31
   1 -14  -8    0.03    0.19
  -1  14   8    0.32    0.31
   0 -14  -8    0.24    0.21
   0  14   8    0.57    0.33
  -1 -14  -8    0.78    0.22
  -2 -14  -8   -0.03    0.19
  -3 -14  -8   -0.05    0.22
  -4 -14  -8    0.09    0.24
  -5 -14  -8    0.05    0.30
  -6 -14  -8    0.40    0.30
   6  14   8    0.61    0.34
   6 -15  -8   -0.16    0.33
   5 -15  -8    0.90    0.31
  -5  15   8    1.28    0.45
   4 -15  -8    0.01    0.24
  -4  15   8    0.97    0.40
   3 -15  -8    0.50    0.24
  -3  15   8    0.53    0.38
   2 -15  -8    0.72    0.24
  -2  15   8    0.69    0.38
   1 -15  -8    1.26    0.27
  -1  15   8    1.60    0.43
   0 -15  -8    0.28    0.22
   0  15   8    0.33    0.33
  -1 -15  -8    0.32    0.23
  -2 -15  -8    0.07    0.23
  -3 -15  -8    0.88    0.28
  -4 -15  -8    0.15    0.26
  -5 -15  -8    0.19    0.30
   4 -16  -8    0.35    0.28
  -4  16   8    0.49    0.44
   3 -16  -8    0.45    0.31
  -3  16   8    1.66    0.47
   2 -16  -8    0.50    0.26
  -2  16   8    1.20    0.52
   1 -16  -8    0.06    0.24
  -1  16   8    0.26    0.40
   0 -16  -8    0.33    0.26
  -1 -16  -8    0.18    0.26
  -2 -16  -8    0.29    0.26
  -3 -16  -8   -0.08    0.27
  -4 -16  -8    0.62    0.36
  -3  17   8    0.44    0.49
   2 -17  -8    0.69    0.29
  -2  17   8    0.30    0.48
   1 -17  -8   -0.03    0.26
  -1  17   8    0.30    0.47
   0 -17  -8    0.35    0.28
  -1 -17  -8    0.59    0.30
  -2 -17  -8    0.21    0.31
  -2 -17   9    0.13    0.35
   1  17  -9    0.18    0.34
   0  17  -9   -0.18    0.33
  -1  17  -9    0.77    0.36
  -2  17  -9    0.30    0.36
   3 -17   9   -0.11    0.30
  -4 -16   9    0.67    0.37
  -3 -16   9   -0.18    0.33
  -2 -16   9    1.37    0.35
   1  16  -9    1.21    0.34
   0  16  -9   -0.05    0.28
  -1  16  -9    0.38    0.30
  -2  16  -9    0.56    0.31
   2 -16   9    0.50    0.26
  -3  16  -9    0.94    0.35
   3 -16   9    0.86    0.28
  -4  16  -9    0.93    0.37
   4 -16   9    0.61    0.32
  -6 -15   9    0.10    0.43
  -5 -15   9    0.26    0.34
  -4 -15   9   -0.26    0.34
  -3 -15   9    0.28    0.29
  -2 -15   9    3.10    0.42
  -1 -15   9   -0.22    0.25
   0  15  -9    0.90    0.29
  -1  15  -9    0.31    0.27
  -2  15  -9    0.79    0.29
   2 -15   9    0.22    0.22
  -3  15  -9    0.22    0.29
   3 -15   9    0.45    0.24
  -4  15  -9    0.61    0.31
   4 -15   9    0.38    0.27
  -5  15  -9    1.04    0.37
   5 -15   9    1.63    0.34
  -6  15  -9   -0.01    0.43
   6  14  -9    0.21    0.33
  -6 -14   9   -0.03    0.33
   5  14  -9    0.31    0.30
  -5 -14   9    0.30    0.35
  -4 -14   9    0.95    0.30
  -3 -14   9    0.11    0.25
  -2 -14   9    0.58    0.25
  -1 -14   9    1.26    0.28
   0 -14   9    0.26    0.22
  -1  14  -9    0.16    0.22
   1 -14   9    0.00    0.18
  -2  14  -9    0.37    0.24
   2 -14   9    0.43    0.23
  -3  14  -9    1.38    0.30
   3 -14   9    1.28    0.25
  -4  14  -9    0.27    0.27
   4 -14   9    0.67    0.25
  -5  14  -9    1.61    0.36
   5 -14   9    2.09    0.34
  -6  14  -9   -0.23    0.36
   6 -14   9    0.03    0.29
  -7  14  -9    0.01    0.51
   7  13  -9    0.32    0.42
  -7 -13   9    0.60    0.35
   6  13  -9    0.28    0.31
  -6 -13   9    0.16    0.29
   5  13  -9   -0.25    0.24
  -5 -13   9    0.34    0.30
   4  13  -9    0.45    0.23
  -4 -13   9    0.09    0.24
   3  13  -9    0.36    0.24
  -3 -13   9    0.14    0.22
  -2 -13   9    2.28    0.33
  -1 -13   9    0.72    0.22
   0 -13   9    0.61    0.22
  -1  13  -9    0.01    0.21
   1 -13   9   -0.05    0.16
  -2  13  -9    3.12    0.41
   2 -13   9    4.19    0.41
  -3  13  -9    0.02    0.22
   3 -13   9    0.07    0.19
  -4  13  -9    0.54    0.25
   4 -13   9    0.19    0.21
  -5  13  -9    0.48    0.27
   5 -13   9    1.02    0.26
  -6  13  -9   -0.25    0.31
   6 -13   9   -0.06    0.26
  -7  13  -9   -0.12    0.46
   7 -13   9   -0.08    0.29
  -8 -12   9    0.27    0.40
   7  12  -9    0.15    0.31
  -7 -12   9    0.56    0.31
   6  12  -9    0.27    0.31
  -6 -12   9    0.99    0.32
   5  12  -9   -0.09    0.22
  -5 -12   9   -0.25    0.22
   4  12  -9    0.68    0.27
  -4 -12   9    1.28    0.26
   3  12  -9    1.54    0.25
  -3 -12   9    1.37    0.26
   2  12  -9    7.84    0.70
  -2 -12   9    7.48    0.71
  -1 -12   9    3.30    0.38
   0 -12   9    0.99    0.23
   0 -12   9    0.97    0.18
   1 -12   9   -0.03    0.17
   1 -12   9   -0.04    0.18
  -2  12  -9    9.10    0.85
   2 -12   9   10.03    0.85
  -3  12  -9    0.23    0.20
   3 -12   9    0.22    0.18
  -4  12  -9    2.97    0.36
   4 -12   9    2.62    0.33
  -5  12  -9   -0.03    0.22
   5 -12   9   -0.05    0.21
  -6  12  -9    0.29    0.29
   6 -12   9   -0.08    0.24
   7 -12   9    0.61    0.29
   8  11  -9   -0.40    0.33
  -8 -11   9   -0.08    0.31
   7  11  -9    0.24    0.28
  -7 -11   9    0.43    0.28
   6  11  -9    0.59    0.26
  -6 -11   9    0.35    0.25
   5  11  -9    1.65    0.26
  -5 -11   9    0.90    0.25
   4  11  -9    0.23    0.21
  -4 -11   9    0.21    0.20
   3  11  -9    8.96    0.76
  -3 -11   9    7.88    0.76
   2  11  -9    8.27    0.72
  -2 -11   9    7.84    0.73
   1  11  -9    0.56    0.18
  -1 -11   9    0.41    0.18
   0 -11   9    5.10    0.50
   0 -11   9    5.81    0.53
   1 -11   9    0.15    0.17
   1 -11   9    0.01    0.14
  -2  11  -9    0.24    0.18
   2 -11   9    0.05    0.14
  -3  11  -9    0.76    0.22
   3 -11   9    1.16    0.22
  -4  11  -9   -0.06    0.19
   4 -11   9    0.20    0.18
  -5  11  -9    3.66    0.42
   5 -11   9    3.27    0.39
  -6  11  -9    0.06    0.30
   6 -11   9   -0.18    0.22
   7 -11   9    0.33    0.26
   8 -11   9    0.28    0.31
  -9 -10   9   -0.05    0.50
   8  10  -9   -0.22    0.30
  -8 -10   9    0.16    0.28
   7  10  -9    0.05    0.25
  -7 -10   9   -0.25    0.23
   6  10  -9    0.23    0.23
  -6 -10   9    0.45    0.22
   5  10  -9    2.56    0.32
  -5 -10   9    1.99    0.31
   4  10  -9    2.30    0.30
  -4 -10   9    2.63    0.32
   3  10  -9    2.54    0.32
  -3 -10   9    3.43    0.35
   2  10  -9    7.60    0.71
  -2 -10   9    8.67    0.73
   1  10  -9    3.30    0.36
  -1 -10   9    3.99    0.38
   0  10  -9    0.10    0.14
   0 -10   9    0.20    0.13
   0 -10   9    0.00    0.15
   1 -10   9    2.32    0.27
   1 -10   9    2.06    0.25
  -2  10  -9   20.81    1.84
   2 -10   9   23.10    1.83
  -3  10  -9    0.18    0.16
   3 -10   9    0.29    0.16
  -4  10  -9    0.25    0.18
   4 -10   9    0.06    0.18
  -5  10  -9    6.39    0.59
   5 -10   9    5.90    0.58
  -6  10  -9    0.61    0.26
   6 -10   9    0.50    0.21
   7 -10   9    0.09    0.24
   8 -10   9    0.75    0.30
   9   9  -9    0.03    0.34
  -9  -9   9    0.27    0.31
   8   9  -9    2.38    0.36
  -8  -9   9    1.30    0.32
   7   9  -9    0.22    0.27
  -7  -9   9    0.11    0.22
   6   9  -9    0.08    0.20
  -6  -9   9    0.29    0.20
   5   9  -9    0.04    0.18
  -5  -9   9   -0.02    0.17
   4   9  -9    0.13    0.17
  -4  -9   9    0.22    0.17
   3   9  -9    1.10    0.20
  -3  -9   9    1.46    0.22
   2   9  -9   15.28    1.33
  -2  -9   9   16.50    1.34
   1   9  -9    0.32    0.15
  -1  -9   9    0.64    0.12
  -1  -9   9    0.46    0.16
   0   9  -9    3.35    0.35
   0  -9   9    4.21    0.38
   0  -9   9    3.86    0.35
  -1   9  -9    3.46    0.35
   1  -9   9    3.61    0.34
   1  -9   9    4.07    0.38
  -2   9  -9   24.12    1.95
   2  -9   9   22.81    1.95
   2  -9   9   23.60    1.96
  -3   9  -9    0.01    0.15
   3  -9   9   -0.03    0.14
  -4   9  -9   17.39    1.53
   4  -9   9   19.21    1.54
  -5   9  -9    2.53    0.31
   5  -9   9    1.81    0.28
  -6   9  -9    3.38    0.41
   6  -9   9    2.72    0.35
   7  -9   9    0.31    0.23
   8  -9   9    0.86    0.28
   9  -9   9    1.19    0.36
   9   8  -9    0.09    0.33
  -9  -8   9   -0.12    0.32
   8   8  -9    0.76    0.28
  -8  -8   9    0.71    0.25
   7   8  -9    0.29    0.22
  -7  -8   9   -0.01    0.20
   6   8  -9    4.28    0.45
  -6  -8   9    4.10    0.44
   5   8  -9    2.14    0.28
  -5  -8   9    2.12    0.28
   4   8  -9    3.02    0.30
  -4  -8   9    2.24    0.30
   3   8  -9    3.75    0.38
  -3  -8   9    4.03    0.39
   2   8  -9   10.60    0.94
  -2  -8   9   11.76    0.96
   1   8  -9    5.93    0.57
  -1  -8   9    7.08    0.56
  -1  -8   9    6.34    0.58
   0   8  -9    3.66    0.38
   0  -8   9    4.30    0.40
   0  -8   9    4.39    0.37
  -1   8  -9    4.38    0.44
   1  -8   9    5.77    0.45
   1  -8   9    5.05    0.46
  -2   8  -9    2.58    0.30
   2  -8   9    3.85    0.31
   2  -8   9    2.87    0.32
  -3   8  -9    0.36    0.15
   3  -8   9    0.64    0.13
   3  -8   9    0.53    0.14
  -4   8  -9    3.49    0.33
   4  -8   9    2.41    0.31
  -5   8  -9   11.96    1.03
   5  -8   9   12.09    1.03
  -6   8  -9    0.52    0.27
   6  -8   9    0.72    0.20
   7  -8   9   -0.20    0.21
   8  -8   9    0.22    0.24
   9  -8   9    0.73    0.30
   9   7  -9    0.14    0.30
  -9  -7   9    0.56    0.26
   8   7  -9   -0.07    0.24
  -8  -7   9    0.05    0.22
   7   7  -9   -0.19    0.19
  -7  -7   9    0.03    0.19
   6   7  -9    0.45    0.21
  -6  -7   9    0.15    0.17
   5   7  -9   12.05    1.02
  -5  -7   9   11.72    1.02
   4   7  -9    3.11    0.33
  -4  -7   9    3.18    0.33
   3   7  -9    6.19    0.59
  -3  -7   9    7.11    0.60
   2   7  -9    5.85    0.58
  -2  -7   9    7.51    0.59
   1   7  -9    7.02    0.65
  -1  -7   9    8.18    0.64
  -1  -7   9    7.17    0.66
   0   7  -9    8.85    0.81
   0  -7   9   10.21    0.83
   0  -7   9    9.91    0.81
  -1   7  -9    6.78    0.58
   1  -7   9    6.29    0.58
   1  -7   9    7.35    0.60
   2  -7   9    0.69    0.14
   2  -7   9    0.92    0.15
   2  -7   9    1.02    0.15
  -3   7  -9    0.11    0.13
   3  -7   9    0.05    0.11
   3  -7   9    0.06    0.12
  -4   7  -9    1.07    0.20
   4  -7   9    1.33    0.18
   4  -7   9    1.19    0.19
  -5   7  -9    0.83    0.18
   5  -7   9    0.69    0.17
   6  -7   9    4.77    0.47
   7  -7   9    0.15    0.19
   8  -7   9    0.03    0.22
   9  -7   9   -0.12    0.27
  10   6  -9    0.06    0.33
 -10  -6   9    0.26    0.30
   9   6  -9    0.07    0.29
  -9  -6   9    0.37    0.25
   8   6  -9    1.02    0.27
  -8  -6   9    1.32    0.25
   7   6  -9   -0.01    0.18
  -7  -6   9    0.00    0.18
   6   6  -9   17.33    1.37
  -6  -6   9   15.02    1.36
   5   6  -9    2.33    0.28
  -5  -6   9    2.36    0.27
   4   6  -9    0.48    0.15
  -4  -6   9    0.15    0.10
   3   6  -9    5.02    0.47
  -3  -6   9    5.34    0.48
   2   6  -9   29.32    2.38
  -2  -6   9   28.28    2.38
   1   6  -9    0.96    0.15
  -1  -6   9    1.18    0.12
  -1  -6   9    0.98    0.16
   0   6  -9    0.01    0.09
   0  -6   9    0.04    0.10
   0  -6   9    0.06    0.07
   1  -6   9    0.22    0.10
   1  -6   9    0.27    0.10
   1  -6   9    0.23    0.10
   2  -6   9   18.62    1.46
   2  -6   9   16.97    1.45
   2  -6   9   17.13    1.46
  -3   6  -9    6.32    0.57
   3  -6   9    6.59    0.57
   3  -6   9    6.55    0.57
  -4   6  -9    6.20    0.59
   4  -6   9    6.69    0.59
   4  -6   9    7.62    0.60
  -5   6  -9    1.64    0.24
   5  -6   9    1.70    0.23
   5  -6   9    1.79    0.22
   6  -6   9    1.24    0.21
   7  -6   9    0.61    0.20
   8  -6   9    0.16    0.21
   9  -6   9   -0.20    0.25
  10   5  -9   -0.10    0.32
 -10  -5   9    0.02    0.29
   9   5  -9    0.77    0.28
  -9  -5   9    0.77    0.26
   8   5  -9    2.26    0.32
  -8  -5   9    1.67    0.28
   7   5  -9   -0.04    0.19
  -7  -5   9    0.04    0.17
   6   5  -9   14.09    1.16
  -6  -5   9   13.16    1.16
   5   5  -9   19.89    1.60
  -5  -5   9   18.46    1.60
   4   5  -9   -0.09    0.12
  -4  -5   9    0.09    0.12
   3   5  -9    0.56    0.13
  -3  -5   9    0.28    0.12
   2   5  -9   -0.02    0.10
  -2  -5   9    0.00    0.10
  -2  -5   9   -0.02    0.05
   1   5  -9   39.65    3.33
  -1  -5   9   39.80    3.33
  -1  -5   9   41.67    3.32
   0   5  -9    1.49    0.17
   0  -5   9    1.67    0.18
   0  -5   9    1.54    0.16
   1  -5   9   15.04    1.27
   1  -5   9   15.92    1.27
   1  -5   9   14.83    1.26
   2  -5   9    4.01    0.38
   2  -5   9    4.23    0.38
   2  -5   9    4.47    0.38
  -3   5  -9    3.28    0.34
   3  -5   9    3.94    0.34
   3  -5   9    3.75    0.34
  -4   5  -9   15.33    1.30
   4  -5   9   15.30    1.30
   4  -5   9   16.13    1.30
  -5   5  -9    4.10    0.40
   5  -5   9    3.55    0.38
   5  -5   9    4.86    0.40
   6  -5   9   -0.11    0.14
   6  -5   9   -0.12    0.15
   7  -5   9    0.09    0.17
   7  -5   9   -0.13    0.17
   8  -5   9    0.65    0.23
  -9   5  -9    0.63    0.27
 -10   5  -9    0.17    0.31
  10   4  -9    0.34    0.31
 -10  -4   9    0.23    0.29
   9   4  -9    1.07    0.29
  -9  -4   9    1.03    0.26
   8   4  -9   -0.07    0.19
  -8  -4   9    0.00    0.18
   7   4  -9    0.20    0.20
  -7  -4   9    0.15    0.17
   6   4  -9    0.37    0.18
  -6  -4   9    0.26    0.12
   5   4  -9   11.15    0.96
  -5  -4   9   11.39    0.96
   4   4  -9    6.06    0.50
  -4  -4   9    5.18    0.50
   3   4  -9    8.97    0.77
  -3  -4   9    9.02    0.77
   2   4  -9    4.69    0.38
   2   4  -9    4.15    0.41
  -2  -4   9    4.58    0.41
   1   4  -9   16.20    1.47
  -1  -4   9   18.33    1.47
  -1  -4   9   18.37    1.46
   0  -4   9   21.49    1.80
   0  -4   9   21.40    1.80
   0  -4   9   22.21    1.79
   1  -4   9   54.50    4.38
   1  -4   9   53.52    4.37
   1  -4   9   52.02    4.38
   2  -4   9   13.85    1.13
   2  -4   9   13.59    1.13
   2  -4   9   13.08    1.12
  -3   4  -9    1.47    0.17
   3  -4   9    1.65    0.18
   3  -4   9    1.51    0.18
  -4   4  -9    2.21    0.24
   4  -4   9    2.16    0.25
   4  -4   9    2.91    0.27
  -5   4  -9    7.75    0.74
   5  -4   9    8.42    0.71
   5  -4   9    8.35    0.72
   6  -4   9    7.38    0.62
   6  -4   9    6.57    0.61
  -7   4  -9    0.26    0.18
   7  -4   9    0.19    0.18
  -8   4  -9    2.46    0.31
   8  -4   9    1.84    0.30
  -9   4  -9    0.92    0.28
 -10   4  -9    0.49    0.30
  10   3  -9    0.07    0.30
 -10  -3   9    0.08    0.27
   9   3  -9    0.05    0.24
  -9  -3   9    0.03    0.22
   8   3  -9    2.88    0.36
  -8  -3   9    3.01    0.35
   7   3  -9    1.13    0.24
  -7  -3   9    1.72    0.23
   6   3  -9    7.54    0.67
  -6  -3   9    7.41    0.66
   5   3  -9    5.91    0.50
  -5  -3   9    4.93    0.49
   4   3  -9    0.92    0.14
  -4  -3   9    1.12    0.16
   3   3  -9   -0.03    0.09
  -3  -3   9   -0.14    0.09
   2   3  -9   25.80    2.06
   2   3  -9   24.28    2.08
  -2  -3   9   24.67    2.08
   1   3  -9   20.49    1.76
   1   3  -9   21.39    1.75
  -1  -3   9   21.87    1.76
   0   3  -9    1.27    0.13
   0  -3   9    1.11    0.15
   0  -3   9    1.16    0.14
   1  -3   9   80.29    6.65
   1  -3   9   82.35    6.65
   1  -3   9   81.08    6.65
   2  -3   9   18.17    1.55
   2  -3   9   19.04    1.55
   2  -3   9   19.19    1.55
  -3   3  -9    0.08    0.08
   3  -3   9    0.02    0.09
   3  -3   9   -0.05    0.09
  -4   3  -9   16.60    1.39
   4  -3   9   17.48    1.40
   4  -3   9   16.27    1.40
   5  -3   9    6.53    0.57
   5  -3   9    6.40    0.57
  -6   3  -9   -0.08    0.14
   6  -3   9    0.02    0.13
  -7   3  -9    0.49    0.19
   7  -3   9    0.62    0.18
  -8   3  -9    1.85    0.31
   8  -3   9    2.99    0.31
  -9   3  -9    0.30    0.24
   9  -3   9   -0.03    0.20
 -10   3  -9   -0.14    0.30
  11   2  -9    1.02    0.38
 -11  -2   9    0.83    0.37
  10   2  -9    0.58    0.34
 -10  -2   9    0.22    0.27
   9   2  -9    0.29    0.23
  -9  -2   9   -0.04    0.24
   8   2  -9    0.32    0.20
  -8  -2   9    0.04    0.18
   7   2  -9    2.34    0.31
  -7  -2   9    2.99    0.32
   6   2  -9    4.43    0.47
  -6  -2   9    5.46    0.47
   5   2  -9    1.57    0.20
  -5  -2   9    1.46    0.20
   4   2  -9    2.09    0.19
  -4  -2   9    1.02    0.17
   3   2  -9    7.82    0.62
  -3  -2   9    6.57    0.61
   2   2  -9    2.03    0.18
   2   2  -9    2.34    0.22
  -2  -2   9    2.23    0.22
   1   2  -9    7.20    0.59
   1   2  -9    6.63    0.60
  -1  -2   9    7.30    0.60
   0   2  -9    9.08    0.77
   0  -2   9    9.46    0.78
   0  -2   9    9.34    0.78
  -1   2  -9   -0.03    0.06
   1  -2   9    0.12    0.08
   1  -2   9    0.02    0.06
  -2   2  -9    1.73    0.22
   2  -2   9    2.54    0.23
   2  -2   9    2.66    0.22
  -3   2  -9    1.25    0.14
  -3   2  -9    1.09    0.15
   3  -2   9    1.45    0.17
  -4   2  -9    2.01    0.19
  -4   2  -9    1.37    0.20
   4  -2   9    1.84    0.21
  -5   2  -9    4.93    0.44
   5  -2   9    4.68    0.44
  -6   2  -9    4.39    0.41
   6  -2   9    3.97    0.40
  -7   2  -9    3.68    0.39
   7  -2   9    3.87    0.39
  -8   2  -9    0.46    0.21
   8  -2   9    0.50    0.19
  -9   2  -9   -0.04    0.24
   9  -2   9   -0.10    0.20
 -10   2  -9    0.16    0.29
  10  -2   9   -0.04    0.27
  11   1  -9   -0.04    0.40
 -11  -1   9    0.02    0.35
  10   1  -9    0.19    0.28
 -10  -1   9    0.25    0.26
   9   1  -9    0.95    0.29
  -9  -1   9    0.59    0.23
   8   1  -9    2.31    0.32
  -8  -1   9    2.05    0.29
   7   1  -9    1.63    0.23
  -7  -1   9    1.15    0.19
   6   1  -9    0.82    0.19
  -6  -1   9    1.17    0.18
   5   1  -9    5.34    0.47
  -5  -1   9    4.90    0.47
   4   1  -9    0.42    0.12
  -4  -1   9    0.17    0.11
   3   1  -9   12.46    1.02
   3   1  -9   12.15    1.04
  -3  -1   9   12.66    1.04
   2   1  -9    2.00    0.17
   2   1  -9    1.76    0.19
  -2  -1   9    1.73    0.19
   1   1  -9   69.63    5.56
  -1  -1   9   65.72    5.57
  -1  -1   9   68.54    5.57
   0   1  -9    0.30    0.06
   0  -1   9    0.28    0.07
   0  -1   9    0.31    0.08
  -1   1  -9  213.64   17.16
   1  -1   9  202.23   17.16
   1  -1   9  213.59   17.16
  -2   1  -9    0.53    0.10
   2  -1   9    0.57    0.11
   2  -1   9    0.42    0.08
  -3   1  -9    0.00    0.09
  -3   1  -9   -0.03    0.06
   3  -1   9   -0.01    0.09
  -4   1  -9    0.23    0.11
   4  -1   9    0.14    0.11
  -5   1  -9    4.89    0.41
   5  -1   9    3.85    0.40
  -6   1  -9    2.16    0.25
   6  -1   9    1.90    0.24
  -7   1  -9    0.24    0.18
   7  -1   9    0.05    0.15
  -8   1  -9    0.83    0.21
   8  -1   9    0.55    0.19
  -9   1  -9    0.06    0.22
   9  -1   9    0.16    0.20
 -10   1  -9    0.01    0.27
  10  -1   9   -0.13    0.27
  11   0  -9    0.10    0.38
 -11   0   9   -0.23    0.35
  10   0  -9    0.24    0.28
 -10   0   9    0.19    0.28
   9   0  -9    1.03    0.27
  -9   0   9    1.60    0.30
   8   0  -9    0.08    0.21
  -8   0   9    0.14    0.19
   7   0  -9    2.03    0.26
  -7   0   9    1.93    0.26
   6   0  -9    0.54    0.15
  -6   0   9    0.28    0.15
   5   0  -9    1.84    0.21
  -5   0   9    1.46    0.20
   4   0  -9    0.41    0.11
   4   0  -9    0.54    0.08
  -4   0   9    0.45    0.12
   3   0  -9    2.66    0.23
   3   0  -9    2.81    0.26
  -3   0   9    2.55    0.26
   2   0  -9   16.28    1.36
   2   0  -9   17.75    1.38
  -2   0   9   16.01    1.37
   1   0  -9   13.36    1.08
  -1   0   9   13.64    1.08
  -1   0   9   11.98    1.09
   0   0  -9   25.82    2.10
   0   0   9   23.84    2.11
   0   0   9   26.83    2.10
  -1   0  -9   34.23    2.87
   1   0   9   35.32    2.87
   1   0   9   35.32    2.88
  -2   0  -9    0.00    0.08
   2   0   9    0.17    0.05
   2   0   9    0.12    0.09
  -3   0  -9   -0.01    0.05
  -3   0  -9   -0.04    0.09
   3   0   9    0.13    0.10
  -4   0  -9    8.79    0.73
   4   0   9    8.28    0.73
  -5   0  -9    2.34    0.28
   5   0   9    3.04    0.29
  -6   0  -9    0.13    0.14
   6   0   9    0.02    0.13
  -7   0  -9    2.15    0.26
   7   0   9    1.96    0.26
  -8   0  -9    1.60    0.24
   8   0   9    1.13    0.22
  -9   0  -9    1.08    0.26
   9   0   9    1.10    0.24
 -10   0  -9    0.10    0.27
  10   0   9    0.10    0.24
 -11   1   9    0.27    0.35
  10  -1  -9    0.77    0.33
 -10   1   9    0.77    0.30
   9  -1  -9    0.32    0.26
  -9   1   9    0.63    0.24
   8  -1  -9    0.17    0.18
  -8   1   9   -0.08    0.18
   7  -1  -9    0.09    0.16
  -7   1   9   -0.08    0.15
   6  -1  -9    3.05    0.31
  -6   1   9    2.78    0.29
   5  -1  -9    0.15    0.11
  -5   1   9    0.08    0.12
   4  -1  -9    2.63    0.25
   4  -1  -9    2.79    0.27
  -4   1   9    2.66    0.27
   3  -1  -9    0.46    0.11
   3  -1  -9    0.57    0.08
  -3   1   9    0.54    0.10
   2  -1  -9    0.41    0.08
   2  -1  -9    0.46    0.10
  -2   1   9    0.59    0.09
   1  -1  -9   13.39    1.09
  -1   1   9   12.79    1.10
  -1   1   9   13.35    1.10
   0  -1  -9    0.58    0.08
   0   1   9    0.50    0.08
   0   1   9    0.75    0.10
  -1  -1  -9   14.96    1.33
   1   1   9   15.44    1.33
   1   1   9   17.20    1.32
  -2  -1  -9    4.44    0.42
   2   1   9    5.08    0.40
   2   1   9    4.42    0.42
  -3  -1  -9    0.04    0.09
   3   1   9    0.17    0.11
  -4  -1  -9    0.46    0.12
   4   1   9    0.24    0.12
  -5  -1  -9    6.95    0.63
   5   1   9    7.37    0.63
  -6  -1  -9   -0.08    0.13
   6   1   9    0.08    0.13
  -7  -1  -9    0.25    0.16
   7   1   9    0.30    0.16
  -8  -1  -9   -0.04    0.18
   8   1   9    0.04    0.17
  -9  -1  -9    0.19    0.23
   9   1   9    0.24    0.21
 -10  -1  -9    0.10    0.28
  10   1   9   -0.12    0.24
 -11   2   9    0.22    0.36
 -10   2   9    0.52    0.29
   9  -2  -9    0.32    0.22
  -9   2   9    0.34    0.23
   8  -2  -9    1.42    0.26
  -8   2   9    2.38    0.29
   7  -2  -9    0.47    0.17
  -7   2   9    0.62    0.19
   6  -2  -9   -0.01    0.12
  -6   2   9    0.14    0.14
   5  -2  -9    0.16    0.09
   5  -2  -9    0.36    0.13
  -5   2   9    0.22    0.13
   4  -2  -9    5.92    0.51
   4  -2  -9    6.39    0.53
  -4   2   9    5.79    0.53
   3  -2  -9    4.38    0.39
   3  -2  -9    4.22    0.37
  -3   2   9    4.34    0.39
   2  -2  -9   46.36    3.76
   2  -2  -9   46.00    3.77
  -2   2   9   45.28    3.77
   1  -2  -9    1.07    0.12
  -1   2   9    1.08    0.14
  -1   2   9    1.15    0.13
   0  -2  -9    8.64    0.69
   0   2   9    8.30    0.69
   0   2   9    7.89    0.70
  -1  -2  -9   11.10    0.92
   1   2   9   10.58    0.93
   1   2   9   11.26    0.91
  -2  -2  -9  102.27    8.42
   2   2   9   96.74    8.42
   2   2   9  108.32    8.40
  -3  -2  -9    0.55    0.11
   3   2   9    0.61    0.13
  -4  -2  -9   20.39    1.67
   4   2   9   19.75    1.67
  -5  -2  -9    2.50    0.27
   5   2   9    2.34    0.27
  -6  -2  -9    0.41    0.16
   6   2   9    0.35    0.14
  -7  -2  -9    0.26    0.17
   7   2   9    0.09    0.15
  -8  -2  -9    2.60    0.31
   8   2   9    2.18    0.30
  -9  -2  -9    0.30    0.26
   9   2   9    0.05    0.20
 -10  -2  -9   -0.16    0.27
  10   2   9    0.23    0.24
 -11   3   9    0.29    0.37
 -10   3   9    0.16    0.29
  -9   3   9   -0.09    0.25
   8  -3  -9    1.27    0.25
  -8   3   9    1.32    0.22
   7  -3  -9    2.06    0.29
  -7   3   9    2.57    0.28
   6  -3  -9    0.11    0.14
  -6   3   9    0.03    0.15
   5  -3  -9    9.32    0.84
   5  -3  -9    9.72    0.84
  -5   3   9   11.19    0.86
   4  -3  -9    5.26    0.45
   4  -3  -9    4.85    0.45
  -4   3   9    5.34    0.46
   3  -3  -9   10.17    0.85
   3  -3  -9    9.94    0.84
  -3   3   9   10.18    0.85
   2  -3  -9   26.38    2.27
  -2   3   9   28.46    2.28
  -2   3   9   28.30    2.28
   1  -3  -9   13.67    1.15
  -1   3   9   13.44    1.15
  -1   3   9   14.48    1.15
   0  -3  -9    4.00    0.36
   0   3   9    3.74    0.37
   0   3   9    4.58    0.36
  -1  -3  -9   10.74    0.95
   1   3   9   11.92    0.94
   1   3   9   10.87    0.95
  -2  -3  -9   29.71    2.44
   2   3   9   30.30    2.42
   2   3   9   28.28    2.44
  -3  -3  -9    2.71    0.27
   3   3   9    2.75    0.27
  -4  -3  -9   33.61    2.77
   4   3   9   33.53    2.77
  -5  -3  -9    2.40    0.24
   5   3   9    1.81    0.23
  -6  -3  -9    2.13    0.24
   6   3   9    1.98    0.25
  -7  -3  -9   -0.12    0.16
   7   3   9    0.16    0.16
  -8  -3  -9    0.92    0.21
   8   3   9    0.74    0.20
  -9  -3  -9    0.09    0.23
   9   3   9    0.18    0.21
 -10  -3  -9    0.21    0.32
  10   3   9    0.13    0.26
 -10   4   9   -0.02    0.31
  -9   4   9    0.83    0.28
  -8   4   9    0.08    0.21
   7  -4  -9   -0.10    0.17
  -7   4   9   -0.04    0.17
   6  -4  -9   10.17    0.85
   6  -4  -9    9.09    0.84
  -6   4   9   10.55    0.86
   5  -4  -9    0.09    0.11
   5  -4  -9    0.10    0.11
  -5   4   9    0.17    0.14
   4  -4  -9   13.17    1.17
   4  -4  -9   13.93    1.18
  -4   4   9   15.65    1.19
   3  -4  -9    0.23    0.10
   3  -4  -9    0.15    0.09
  -3   4   9    0.27    0.10
   2  -4  -9    8.37    0.73
  -2   4   9    8.48    0.73
  -2   4   9    9.04    0.73
   1  -4  -9    1.86    0.17
  -1   4   9    1.33    0.16
  -1   4   9    1.54    0.17
   0  -4  -9    3.58    0.32
   0   4   9    3.56    0.32
   0   4   9    3.55    0.31
  -1  -4  -9    1.39    0.15
   1   4   9    1.55    0.17
   1   4   9    1.30    0.14
  -2  -4  -9   15.83    1.42
   2   4   9   18.16    1.41
   2   4   9   16.47    1.43
  -3  -4  -9    0.42    0.12
   3   4   9    0.56    0.13
  -4  -4  -9    0.12    0.09
   4   4   9   -0.17    0.12
  -5  -4  -9    3.16    0.31
   5   4   9    2.81    0.31
  -6  -4  -9    1.65    0.22
   6   4   9    1.17    0.21
  -7  -4  -9    0.68    0.19
   7   4   9    0.35    0.17
  -8  -4  -9    0.96    0.22
   8   4   9    0.55    0.21
  -9  -4  -9    0.12    0.24
   9   4   9   -0.02    0.21
 -10  -4  -9    0.25    0.30
  10   4   9    0.04    0.26
 -10   5   9    0.14    0.32
  -9   5   9   -0.01    0.26
  -8   5   9    0.41    0.18
  -7   5   9    4.37    0.46
   6  -5  -9    0.22    0.15
  -6   5   9    0.19    0.17
   5  -5  -9   -0.09    0.11
   5  -5  -9   -0.07    0.12
  -5   5   9   -0.16    0.13
   4  -5  -9    1.17    0.18
   4  -5  -9    1.73    0.19
  -4   5   9    1.88    0.21
   3  -5  -9   55.20    4.68
   3  -5  -9   58.08    4.68
  -3   5   9   58.20    4.69
   2  -5  -9    3.73    0.35
  -2   5   9    4.38    0.36
  -2   5   9    3.65    0.35
   1  -5  -9    2.16    0.23
  -1   5   9    2.35    0.23
  -1   5   9    2.52    0.24
   0  -5  -9    0.07    0.09
   0   5   9    0.19    0.09
   0   5   9    0.11    0.08
  -1  -5  -9    0.63    0.12
   1   5   9    0.63    0.09
   1   5   9    0.67    0.12
  -2  -5  -9    0.80    0.13
   2   5   9    0.74    0.14
   2   5   9    0.86    0.09
  -3  -5  -9    3.16    0.29
   3   5   9    2.64    0.29
  -4  -5  -9   -0.17    0.12
   4   5   9    0.06    0.12
  -5  -5  -9    2.68    0.29
   5   5   9    2.45    0.28
  -6  -5  -9    0.65    0.18
   6   5   9    0.57    0.14
  -7  -5  -9    0.35    0.21
   7   5   9    0.16    0.18
  -8  -5  -9   -0.05    0.20
   8   5   9    0.10    0.21
  -9  -5  -9   -0.05    0.24
   9   5   9   -0.05    0.23
 -10  -5  -9    0.39    0.32
 -10   6   9   -0.03    0.35
  -9   6   9    0.75    0.29
  -8   6   9    0.51    0.24
  -7   6   9    0.81    0.23
   6  -6  -9    0.13    0.14
  -6   6   9    0.39    0.15
   5  -6  -9    0.93    0.17
  -5   6   9    0.88    0.16
   4  -6  -9    0.50    0.13
   4  -6  -9    0.66    0.13
  -4   6   9    0.54    0.16
   3  -6  -9    1.84    0.19
   3  -6  -9    1.43    0.19
  -3   6   9    1.74    0.21
   2  -6  -9   24.36    2.13
  -2   6   9   26.00    2.13
  -2   6   9   27.13    2.14
   1  -6  -9    5.15    0.44
  -1   6   9    4.86    0.43
  -1   6   9    4.90    0.44
   0  -6  -9    0.47    0.12
   0   6   9    0.78    0.12
   0   6   9    0.80    0.13
  -1  -6  -9   -0.04    0.09
   1   6   9    0.02    0.08
   1   6   9    0.06    0.11
  -2  -6  -9    9.51    0.81
   2   6   9    8.35    0.81
   2   6   9   10.14    0.79
  -3  -6  -9   -0.08    0.11
   3   6   9    0.04    0.12
  -4  -6  -9    2.84    0.30
   4   6   9    3.05    0.31
  -5  -6  -9    1.05    0.19
   5   6   9    1.14    0.19
  -6  -6  -9    0.34    0.17
   6   6   9    0.45    0.15
  -7  -6  -9    0.07    0.18
   7   6   9   -0.04    0.18
  -8  -6  -9    0.04    0.21
   8   6   9    0.23    0.22
  -9  -6  -9    0.30    0.26
   9   6   9    0.05    0.26
 -10  -6  -9   -0.16    0.31
 -10   7   9    0.12    0.36
  -9   7   9    0.44    0.30
  -8   7   9    0.67    0.27
   7  -7  -9    0.15    0.20
  -7   7   9    0.48    0.21
   6  -7  -9    0.56    0.18
  -6   7   9    0.20    0.19
   5  -7  -9    1.42    0.21
  -5   7   9    1.79    0.23
   4  -7  -9    0.47    0.13
  -4   7   9    0.06    0.17
   3  -7  -9    0.05    0.10
   3  -7  -9    0.19    0.11
  -3   7   9    0.07    0.13
   2  -7  -9    2.90    0.28
  -2   7   9    3.45    0.30
  -2   7   9    2.34    0.27
   1  -7  -9    0.41    0.12
  -1   7   9    0.45    0.13
  -1   7   9    0.49    0.11
   0  -7  -9    1.15    0.18
   0   7   9    1.53    0.19
   0   7   9    1.42    0.17
  -1  -7  -9   -0.15    0.10
   1   7   9   -0.02    0.11
   1   7   9    0.02    0.11
  -2  -7  -9    4.73    0.42
   2   7   9    4.35    0.41
  -3  -7  -9    1.38    0.20
   3   7   9    1.53    0.20
  -4  -7  -9   13.97    1.16
   4   7   9   13.45    1.16
  -5  -7  -9    3.89    0.36
   5   7   9    2.88    0.34
  -6  -7  -9    0.10    0.17
   6   7   9    0.00    0.17
  -7  -7  -9    0.79    0.21
   7   7   9    0.51    0.22
  -8  -7  -9    1.12    0.28
   8   7   9    0.49    0.24
  -9  -7  -9   -0.04    0.31
   9   7   9    0.05    0.27
  -9   8   9   -0.20    0.32
  -8   8   9    0.13    0.26
   7  -8  -9    0.39    0.19
  -7   8   9    0.22    0.21
   6  -8  -9    1.32    0.24
  -6   8   9    1.49    0.27
   5  -8  -9    0.03    0.14
  -5   8   9    0.28    0.19
   4  -8  -9    0.33    0.15
  -4   8   9    0.84    0.20
   3  -8  -9    1.79    0.22
   2  -8  -9    3.79    0.35
  -2   8   9    3.25    0.37
   1  -8  -9    0.34    0.13
  -1   8   9    0.28    0.16
  -1   8   9    0.35    0.11
   0  -8  -9   -0.01    0.09
   0   8   9    0.10    0.11
   0   8   9   -0.07    0.13
  -1  -8  -9    4.96    0.42
   1   8   9    4.14    0.40
   1   8   9    4.39    0.44
  -2  -8  -9    0.28    0.13
   2   8   9    0.38    0.14
  -3  -8  -9   -0.07    0.13
   3   8   9    0.19    0.13
  -4  -8  -9    0.26    0.15
   4   8   9    0.06    0.14
  -5  -8  -9    2.45    0.29
   5   8   9    2.27    0.28
  -6  -8  -9    0.07    0.18
   6   8   9    0.27    0.19
  -7  -8  -9    0.40    0.22
   7   8   9    0.35    0.22
  -8  -8  -9    0.03    0.23
   8   8   9    0.08    0.24
  -9  -8  -9    0.64    0.31
   9   8   9    0.42    0.35
  -9   9   9    0.46    0.36
  -8   9   9   -0.16    0.27
   7  -9  -9   -0.13    0.22
  -7   9   9    0.12    0.24
   6  -9  -9    0.30    0.18
  -6   9   9    0.55    0.19
   5  -9  -9    0.29    0.18
  -5   9   9    0.32    0.21
   4  -9  -9    1.52    0.22
  -4   9   9    1.86    0.26
   3  -9  -9   17.96    1.58
  -3   9   9   20.19    1.60
   2  -9  -9    0.13    0.14
  -2   9   9    0.18    0.17
  -1   9   9    1.94    0.33
   0  -9  -9    0.26    0.14
   0   9   9    0.33    0.13
   0   9   9    1.54    0.26
  -1  -9  -9    1.26    0.19
   1   9   9    1.55    0.24
   1   9   9    1.05    0.18
  -2  -9  -9    0.45    0.15
   2   9   9    0.69    0.17
  -3  -9  -9    4.13    0.42
   3   9   9    4.42    0.43
  -4  -9  -9    0.17    0.16
   4   9   9    0.10    0.17
  -5  -9  -9    5.43    0.44
   5   9   9    3.27    0.41
  -6  -9  -9   -0.04    0.18
   6   9   9   -0.05    0.18
  -7  -9  -9    1.47    0.28
   7   9   9    2.02    0.31
  -8  -9  -9    0.31    0.30
   8   9   9    0.28    0.28
  -9  -9  -9    0.01    0.31
   8 -10  -9    0.13    0.26
  -8  10   9   -0.16    0.30
   7 -10  -9   -0.21    0.23
  -7  10   9   -0.07    0.27
   6 -10  -9   -0.04    0.21
  -6  10   9    0.26    0.24
   5 -10  -9    0.61    0.18
  -5  10   9    0.14    0.23
   4 -10  -9   -0.05    0.18
  -4  10   9   -0.18    0.20
   3 -10  -9    0.18    0.16
  -3  10   9    0.26    0.21
   2 -10  -9    0.89    0.18
  -2  10   9    0.93    0.24
   1 -10  -9    1.17    0.18
  -1  10   9    0.74    0.26
   0 -10  -9    1.17    0.19
   0  10   9    0.78    0.25
  -1 -10  -9    1.24    0.18
   1  10   9    1.56    0.27
   1  10   9    1.38    0.19
  -2 -10  -9    0.25    0.16
   2  10   9   -0.01    0.14
  -3 -10  -9    0.46    0.18
   3  10   9    0.10    0.15
  -4 -10  -9    7.03    0.62
   4  10   9    6.35    0.61
  -5 -10  -9    0.25    0.19
   5  10   9    0.11    0.16
  -6 -10  -9   -0.02    0.20
   6  10   9    0.18    0.19
  -7 -10  -9   -0.09    0.23
   7  10   9    0.00    0.24
  -8 -10  -9    0.00    0.32
   8  10   9    0.08    0.30
   8 -11  -9   -0.05    0.28
  -8  11   9   -0.14    0.33
   7 -11  -9   -0.09    0.23
  -7  11   9   -0.10    0.29
   6 -11  -9    2.38    0.33
  -6  11   9    3.08    0.40
   5 -11  -9    0.00    0.17
  -5  11   9    0.29    0.24
   4 -11  -9    0.29    0.18
  -4  11   9   -0.04    0.22
   3 -11  -9    1.10    0.20
  -3  11   9    0.92    0.27
   2 -11  -9    4.78    0.45
  -2  11   9    4.17    0.51
   1 -11  -9    0.49    0.17
  -1  11   9    0.34    0.23
   0 -11  -9    0.46    0.17
   0  11   9    0.04    0.22
  -1 -11  -9    6.15    0.55
   1  11   9    5.36    0.60
  -2 -11  -9   -0.08    0.17
   2  11   9    0.29    0.15
  -3 -11  -9    1.13    0.21
   3  11   9    1.15    0.21
  -4 -11  -9    1.83    0.28
   4  11   9    2.41    0.30
  -5 -11  -9    0.30    0.21
   5  11   9    0.46    0.20
  -6 -11  -9    0.30    0.24
   6  11   9    0.97    0.24
  -7 -11  -9    0.31    0.27
   7  11   9    0.26    0.25
  -8 -11  -9   -0.12    0.31
   8  11   9    0.26    0.35
   8 -12  -9    0.20    0.35
   7 -12  -9   -0.01    0.25
  -7  12   9   -0.45    0.32
   6 -12  -9    0.19    0.22
  -6  12   9    0.04    0.29
   5 -12  -9    0.50    0.21
  -5  12   9    0.59    0.29
   4 -12  -9    0.16    0.19
  -4  12   9    0.27    0.26
   3 -12  -9    1.56    0.24
  -3  12   9    1.54    0.32
   2 -12  -9    1.09    0.21
  -2  12   9    1.07    0.29
   1 -12  -9    2.35    0.29
  -1  12   9    2.13    0.37
   0 -12  -9    0.20    0.17
   0  12   9    0.53    0.26
  -1 -12  -9    0.43    0.19
  -2 -12  -9    1.53    0.24
  -3 -12  -9    0.16    0.18
   3  12   9    0.00    0.17
  -4 -12  -9    2.48    0.32
   4  12   9    2.46    0.31
  -5 -12  -9    0.78    0.25
   5  12   9    0.75    0.22
  -6 -12  -9    0.14    0.26
   6  12   9    0.20    0.23
  -7 -12  -9    0.14    0.33
   7  12   9    0.38    0.32
   7 -13  -9    1.86    0.34
  -7  13   9    1.00    0.39
   6 -13  -9    0.96    0.28
  -6  13   9    1.52    0.37
   5 -13  -9    0.26    0.22
  -5  13   9    0.30    0.30
   4 -13  -9   -0.25    0.20
  -4  13   9    0.50    0.31
   3 -13  -9    2.07    0.30
  -3  13   9    2.19    0.38
   2 -13  -9   -0.11    0.18
  -2  13   9    0.16    0.29
   1 -13  -9    0.02    0.18
  -1  13   9    0.03    0.32
   0 -13  -9    0.50    0.19
   0  13   9    0.67    0.29
  -1 -13  -9    0.06    0.18
  -2 -13  -9    0.07    0.20
  -3 -13  -9    0.05    0.20
  -4 -13  -9    0.27    0.23
  -5 -13  -9    0.23    0.25
   5  13   9    0.17    0.25
  -6 -13  -9    0.18    0.29
   6  13   9    0.37    0.26
  -7 -13  -9    0.06    0.32
   7  13   9    0.00    0.30
   7 -14  -9    0.05    0.32
   6 -14  -9    0.76    0.29
  -6  14   9   -0.02    0.36
   5 -14  -9   -0.06    0.24
  -5  14   9    0.22    0.34
   4 -14  -9    0.05    0.23
  -4  14   9    0.12    0.32
   3 -14  -9   -0.21    0.21
  -3  14   9    0.81    0.34
   2 -14  -9    1.22    0.26
  -2  14   9    1.75    0.38
   1 -14  -9    3.40    0.39
  -1  14   9    3.32    0.48
   0 -14  -9    0.09    0.21
   0  14   9    0.54    0.36
  -1 -14  -9    2.90    0.36
  -2 -14  -9    1.39    0.27
  -3 -14  -9    0.10    0.22
  -4 -14  -9    0.00    0.24
  -5 -14  -9    0.08    0.28
  -6 -14  -9    0.21    0.32
   6  14   9    0.06    0.38
   5 -15  -9    0.22    0.29
  -5  15   9   -0.23    0.37
   4 -15  -9    0.52    0.28
  -4  15   9    0.91    0.41
   3 -15  -9   -0.15    0.23
  -3  15   9   -0.12    0.41
   2 -15  -9    0.63    0.24
  -2  15   9    1.09    0.38
   1 -15  -9    4.33    0.51
  -1  15   9    6.11    0.65
   0 -15  -9   -0.10    0.23
  -1 -15  -9    4.04    0.46
  -2 -15  -9    0.81    0.26
  -3 -15  -9   -0.25    0.25
  -4 -15  -9    0.20    0.29
  -5 -15  -9    0.56    0.32
   4 -16  -9   -0.06    0.28
  -4  16   9    0.35    0.44
   3 -16  -9    0.23    0.27
  -3  16   9    0.38    0.44
   2 -16  -9    0.34    0.27
  -2  16   9    1.17    0.45
   1 -16  -9   -0.01    0.25
  -1  16   9    1.36    0.45
   0 -16  -9   -0.01    0.26
  -1 -16  -9    1.27    0.31
  -2 -16  -9    1.04    0.31
  -3 -16  -9    0.47    0.34
  -4 -16  -9    0.04    0.35
  -3  17   9    0.48    0.56
  -2  17   9    0.13    0.48
   1 -17  -9    0.43    0.29
   0 -17  -9    0.56    0.30
  -1 -17  -9   -0.07    0.30
   0  17 -10    0.06    0.40
  -3 -16  10    1.78    0.41
  -2 -16  10    0.12    0.32
  -1 -16  10    1.05    0.33
   0  16 -10    0.55    0.31
  -1  16 -10   -0.34    0.30
  -2  16 -10    0.20    0.32
  -3  16 -10    0.31    0.35
   3 -16  10    0.22    0.28
  -4  16 -10    0.73    0.38
   4 -16  10    0.64    0.33
  -5 -15  10    1.37    0.44
  -4 -15  10    1.09    0.36
  -3 -15  10   -0.09    0.29
  -2 -15  10    0.83    0.31
  -1 -15  10   -0.28    0.26
   0  15 -10    2.81    0.42
  -1  15 -10    0.41    0.28
  -2  15 -10   -0.19    0.27
   2 -15  10    0.08    0.25
  -3  15 -10    3.68    0.50
   3 -15  10    4.59    0.47
  -4  15 -10   -0.02    0.30
   4 -15  10    0.55    0.31
  -5  15 -10    0.97    0.37
   5 -15  10    0.82    0.37
   6  14 -10   -0.60    0.35
  -6 -14  10    0.39    0.35
   5  14 -10    0.28    0.30
  -5 -14  10    0.45    0.32
  -4 -14  10    0.51    0.29
  -3 -14  10   -0.04    0.26
  -2 -14  10    0.29    0.25
  -1 -14  10    0.32    0.24
   0 -14  10    0.30    0.23
  -1  14 -10    0.39    0.24
  -2  14 -10    0.72    0.26
   2 -14  10    0.74    0.22
  -3  14 -10    1.55    0.31
   3 -14  10    1.23    0.27
  -4  14 -10   -0.07    0.27
   4 -14  10    0.02    0.24
  -5  14 -10    0.21    0.30
   5 -14  10    0.14    0.27
  -6  14 -10    0.18    0.44
   6 -14  10    0.61    0.33
   7  13 -10    0.19    0.37
  -7 -13  10   -0.09    0.35
   6  13 -10    0.10    0.31
  -6 -13  10   -0.12    0.29
   5  13 -10    0.50    0.31
  -5 -13  10    1.01    0.31
   4  13 -10    0.31    0.23
  -4 -13  10    0.34    0.25
   3  13 -10    0.01    0.22
  -3 -13  10   -0.06    0.22
  -2 -13  10    0.73    0.24
  -1 -13  10    0.61    0.23
   0 -13  10    2.67    0.35
  -1  13 -10    1.18    0.26
   1 -13  10    0.72    0.23
  -2  13 -10    2.32    0.35
   2 -13  10    2.82    0.33
  -3  13 -10    0.08    0.23
   3 -13  10    0.53    0.21
  -4  13 -10    0.39    0.25
   4 -13  10    0.36    0.22
  -5  13 -10    0.36    0.27
   5 -13  10   -0.13    0.23
  -6  13 -10   -0.06    0.32
   6 -13  10    0.00    0.27
   7  12 -10   -0.27    0.32
  -7 -12  10    0.07    0.35
   6  12 -10   -0.19    0.31
  -6 -12  10   -0.17    0.27
   5  12 -10   -0.13    0.23
  -5 -12  10   -0.03    0.24
   4  12 -10    3.32    0.38
  -4 -12  10    2.73    0.38
   3  12 -10    0.58    0.21
  -3 -12  10    0.53    0.22
   2  12 -10    2.51    0.30
  -2 -12  10    2.20    0.32
  -1 -12  10    1.23    0.24
   0 -12  10   10.51    0.94
   1 -12  10   -0.06    0.17
   1 -12  10    0.13    0.18
  -2  12 -10    2.88    0.36
   2 -12  10    3.03    0.34
  -3  12 -10    1.54    0.29
   3 -12  10    2.63    0.30
  -4  12 -10    0.25    0.22
   4 -12  10   -0.21    0.21
  -5  12 -10    0.75    0.25
   5 -12  10    0.33    0.26
  -6  12 -10    0.14    0.33
   6 -12  10   -0.06    0.24
   7 -12  10    0.27    0.30
   8  11 -10    0.26    0.36
  -8 -11  10    0.20    0.38
   7  11 -10    1.22    0.33
  -7 -11  10    1.36    0.33
   6  11 -10    0.27    0.26
  -6 -11  10    0.41    0.25
   5  11 -10    1.20    0.27
  -5 -11  10    1.36    0.27
   4  11 -10    1.51    0.27
  -4 -11  10    1.62    0.27
   3  11 -10    0.34    0.21
  -3 -11  10    0.50    0.20
   2  11 -10    0.79    0.21
  -2 -11  10    0.60    0.20
   1  11 -10    0.68    0.19
  -1 -11  10    0.91    0.21
   0 -11  10    0.19    0.14
   1 -11  10    7.22    0.66
   1 -11  10    7.75    0.69
  -2  11 -10   -0.02    0.18
   2 -11  10    0.05    0.15
  -3  11 -10    6.31    0.60
   3 -11  10    6.21    0.58
  -4  11 -10   -0.04    0.20
   4 -11  10    0.18    0.18
  -5  11 -10   -0.13    0.21
   5 -11  10   -0.02    0.20
  -6  11 -10    0.41    0.31
   6 -11  10    0.40    0.24
   7 -11  10    1.23    0.30
   8 -11  10   -0.31    0.35
   8  10 -10   -0.08    0.33
  -8 -10  10    0.23    0.30
   7  10 -10    1.01    0.31
  -7 -10  10    1.27    0.29
   6  10 -10   -0.11    0.22
  -6 -10  10    0.12    0.22
   5  10 -10    2.24    0.31
  -5 -10  10    1.14    0.26
   4  10 -10    2.27    0.29
  -4 -10  10    2.12    0.30
   3  10 -10    0.13    0.16
  -3 -10  10   -0.09    0.17
   2  10 -10    2.09    0.25
  -2 -10  10    1.62    0.26
   1  10 -10    6.34    0.60
  -1 -10  10    7.28    0.62
   0  10 -10   21.06    1.84
   0 -10  10   22.67    1.85
   0 -10  10   22.63    1.83
  -1  10 -10    7.33    0.69
   1 -10  10    7.32    0.66
   1 -10  10    8.04    0.69
  -2  10 -10    3.99    0.41
   2 -10  10    3.89    0.39
  -3  10 -10    5.83    0.52
   3 -10  10    4.88    0.50
  -4  10 -10    4.09    0.44
   4 -10  10    4.41    0.44
  -5  10 -10    0.02    0.19
   5 -10  10   -0.14    0.21
  -6  10 -10   -0.06    0.25
   6 -10  10    0.29    0.21
   7 -10  10    0.20    0.25
   8 -10  10    0.39    0.30
  -9  -9  10    0.66    0.35
   8   9 -10   -0.09    0.30
  -8  -9  10   -0.24    0.26
   7   9 -10    0.05    0.24
  -7  -9  10   -0.10    0.23
   6   9 -10   -0.17    0.22
  -6  -9  10    0.17    0.20
   5   9 -10    0.06    0.20
  -5  -9  10    0.02    0.19
   4   9 -10    7.57    0.72
  -4  -9  10    8.49    0.73
   3   9 -10    1.57    0.22
  -3  -9  10    1.31    0.23
   2   9 -10    2.37    0.26
  -2  -9  10    1.81    0.26
   1   9 -10   14.88    1.22
  -1  -9  10   14.03    1.23
   0   9 -10    0.13    0.14
   0  -9  10    0.28    0.12
   0  -9  10    0.36    0.15
  -1   9 -10    6.09    0.56
   1  -9  10    6.14    0.58
   1  -9  10    6.89    0.56
  -2   9 -10    8.12    0.73
   2  -9  10    8.41    0.75
   2  -9  10    9.01    0.74
  -3   9 -10    0.40    0.17
   3  -9  10    0.18    0.15
  -4   9 -10    5.71    0.57
   4  -9  10    6.72    0.57
  -5   9 -10   -0.09    0.18
   5  -9  10   -0.13    0.17
   6  -9  10    1.51    0.26
   7  -9  10    3.26    0.40
   8  -9  10    0.15    0.26
   9   8 -10   -0.27    0.33
  -9  -8  10    0.25    0.30
   8   8 -10    1.14    0.32
  -8  -8  10    1.41    0.30
   7   8 -10   -0.13    0.21
  -7  -8  10   -0.18    0.21
   6   8 -10    1.01    0.23
  -6  -8  10    0.83    0.23
   5   8 -10    1.98    0.27
  -5  -8  10    1.65    0.26
   4   8 -10   13.01    1.16
  -4  -8  10   14.22    1.17
   3   8 -10    5.08    0.50
  -3  -8  10    5.73    0.51
   2   8 -10    2.22    0.26
  -2  -8  10    2.19    0.25
   1   8 -10   -0.04    0.12
  -1  -8  10   -0.06    0.13
   0   8 -10    0.23    0.14
   0  -8  10    0.28    0.14
   0  -8  10    0.41    0.11
  -1   8 -10    1.61    0.21
   1  -8  10    1.57    0.23
   1  -8  10    2.09    0.21
  -2   8 -10    1.83    0.23
   2  -8  10    2.43    0.25
   2  -8  10    1.99    0.23
  -3   8 -10    5.54    0.53
   3  -8  10    5.54    0.51
   3  -8  10    6.25    0.52
  -4   8 -10    1.72    0.25
   4  -8  10    1.64    0.24
  -5   8 -10    0.33    0.20
   5  -8  10    0.55    0.18
   6  -8  10    2.48    0.31
   7  -8  10    0.12    0.21
   8  -8  10    0.28    0.25
   9  -8  10    0.21    0.31
 -10  -7  10    0.05    0.40
   9   7 -10   -0.15    0.31
  -9  -7  10    0.31    0.28
   8   7 -10   -0.02    0.25
  -8  -7  10   -0.03    0.22
   7   7 -10   -0.16    0.21
  -7  -7  10   -0.03    0.19
   6   7 -10    0.77    0.21
  -6  -7  10    0.32    0.18
   5   7 -10    7.05    0.64
  -5  -7  10    6.91    0.64
   4   7 -10    2.25    0.26
  -4  -7  10    1.76    0.25
   3   7 -10    9.30    0.85
  -3  -7  10   10.59    0.86
   2   7 -10    1.42    0.19
  -2  -7  10    1.43    0.20
   1   7 -10    0.10    0.11
  -1  -7  10    0.33    0.09
  -1  -7  10    0.14    0.13
   0   7 -10   35.55    2.90
   0  -7  10   34.28    2.90
   0  -7  10   35.62    2.89
  -1   7 -10    0.90    0.15
   1  -7  10    0.74    0.16
   2  -7  10    0.24    0.11
   2  -7  10    0.15    0.14
   2  -7  10    0.18    0.12
  -3   7 -10    0.04    0.15
   3  -7  10    0.28    0.14
   3  -7  10    0.14    0.13
  -4   7 -10   24.28    2.09
   4  -7  10   26.19    2.09
   4  -7  10   25.26    2.10
  -5   7 -10    0.59    0.18
   5  -7  10    0.61    0.18
   6  -7  10    1.47    0.23
   7  -7  10    2.95    0.36
   8  -7  10    0.15    0.26
   9  -7  10   -0.04    0.29
 -10  -6  10    0.87    0.35
   9   6 -10    0.07    0.29
  -9  -6  10   -0.13    0.25
   8   6 -10    0.28    0.25
  -8  -6  10    0.36    0.22
   7   6 -10    0.05    0.20
  -7  -6  10    0.00    0.19
   6   6 -10    0.10    0.18
  -6  -6  10    0.13    0.17
   5   6 -10    0.25    0.16
  -5  -6  10    0.78    0.17
   4   6 -10   14.11    1.16
  -4  -6  10   13.24    1.16
   3   6 -10    5.90    0.56
  -3  -6  10    6.57    0.56
   2   6 -10   19.18    1.72
  -2  -6  10   22.28    1.72
   1   6 -10    9.31    0.81
  -1  -6  10    9.18    0.81
  -1  -6  10    9.79    0.79
   0   6 -10   28.52    2.41
   0  -6  10   28.61    2.42
   0  -6  10   30.43    2.41
   1  -6  10    0.31    0.11
   1  -6  10    0.42    0.10
   1  -6  10    0.33    0.11
   2  -6  10   22.93    1.98
   2  -6  10   25.13    1.98
   2  -6  10   23.79    1.98
  -3   6 -10   -0.02    0.13
   3  -6  10    0.01    0.11
   3  -6  10    0.06    0.13
  -4   6 -10    8.70    0.85
   4  -6  10   10.49    0.84
   4  -6  10   10.41    0.85
  -5   6 -10   -0.04    0.15
   5  -6  10   -0.01    0.15
   5  -6  10   -0.14    0.14
   6  -6  10    2.22    0.27
   6  -6  10    1.40    0.30
   7  -6  10    3.35    0.38
   8  -6  10   -0.01    0.22
  -9   6 -10   -0.16    0.28
  10   5 -10    0.55    0.34
 -10  -5  10    0.13    0.32
   9   5 -10    0.00    0.26
  -9  -5  10   -0.09    0.25
   8   5 -10    0.04    0.22
  -8  -5  10    0.01    0.21
   7   5 -10    0.84    0.24
  -7  -5  10    1.20    0.23
   6   5 -10    1.17    0.22
  -6  -5  10    1.34    0.22
   5   5 -10    5.22    0.52
  -5  -5  10    6.01    0.52
   4   5 -10   18.50    1.58
  -4  -5  10   19.37    1.59
   3   5 -10   41.02    3.29
  -3  -5  10   38.88    3.29
   2   5 -10    3.03    0.33
  -2  -5  10    4.10    0.34
   1   5 -10   18.55    1.63
  -1  -5  10   19.69    1.63
  -1  -5  10   20.36    1.62
   0   5 -10    0.74    0.14
   0  -5  10    1.04    0.12
   0  -5  10    0.84    0.14
   1  -5  10    0.56    0.11
   1  -5  10    0.55    0.12
   1  -5  10    0.82    0.13
   2  -5  10   16.88    1.34
   2  -5  10   16.17    1.34
   2  -5  10   15.34    1.34
  -3   5 -10    2.02    0.23
   3  -5  10    2.19    0.23
   3  -5  10    1.77    0.22
  -4   5 -10    0.78    0.16
   4  -5  10    0.98    0.16
   4  -5  10    0.82    0.16
   5  -5  10    9.94    0.84
   5  -5  10    9.58    0.84
   6  -5  10    4.36    0.43
   6  -5  10    4.69    0.45
   7  -5  10    3.61    0.40
   7  -5  10    3.84    0.39
  -8   5 -10    0.18    0.22
  -9   5 -10    0.85    0.28
  10   4 -10    0.43    0.33
 -10  -4  10    0.18    0.30
   9   4 -10    0.03    0.25
  -9  -4  10    0.05    0.23
   8   4 -10    0.10    0.21
  -8  -4  10   -0.10    0.19
   7   4 -10   -0.22    0.18
  -7  -4  10    0.19    0.17
   6   4 -10    2.82    0.36
  -6  -4  10    3.77    0.36
   5   4 -10    0.61    0.17
  -5  -4  10    0.42    0.13
   4   4 -10    0.17    0.13
  -4  -4  10    0.05    0.09
   3   4 -10    1.40    0.18
  -3  -4  10    1.21    0.17
   2   4 -10    2.99    0.32
  -2  -4  10    3.71    0.32
   1   4 -10    6.40    0.63
   1   4 -10    7.61    0.61
  -1  -4  10    7.70    0.63
   0  -4  10   26.54    2.24
   0  -4  10   26.91    2.23
   0  -4  10   28.06    2.24
   1  -4  10   14.25    1.14
   1  -4  10   12.80    1.15
   1  -4  10   14.09    1.15
   2  -4  10   21.95    1.81
   2  -4  10   22.39    1.81
   2  -4  10   21.16    1.80
  -3   4 -10   21.16    1.77
   3  -4  10   22.03    1.78
   3  -4  10   21.17    1.78
  -4   4 -10    0.84    0.14
   4  -4  10    0.80    0.15
   4  -4  10    0.57    0.14
   5  -4  10    3.03    0.32
   5  -4  10    3.18    0.33
  -6   4 -10    0.13    0.16
   6  -4  10    0.70    0.16
  -7   4 -10    0.10    0.18
   7  -4  10    0.20    0.19
  -8   4 -10    1.09    0.24
   8  -4  10    0.61    0.21
  -9   4 -10    0.32    0.26
 -10   4 -10    0.42    0.32
  10   3 -10    1.36    0.36
 -10  -3  10    1.01    0.35
   9   3 -10    0.84    0.27
  -9  -3  10    0.75    0.26
   8   3 -10    1.32    0.26
  -8  -3  10    1.08    0.24
   7   3 -10    0.30    0.18
  -7  -3  10    0.03    0.13
   6   3 -10   -0.10    0.15
  -6  -3  10    0.05    0.15
   5   3 -10    1.94    0.23
  -5  -3  10    1.76    0.23
   4   3 -10    7.79    0.63
  -4  -3  10    6.81    0.62
   3   3 -10    1.74    0.21
  -3  -3  10    1.98    0.21
   2   3 -10    4.08    0.46
   2   3 -10    5.38    0.43
  -2  -3  10    5.45    0.46
   1   3 -10   21.82    1.90
   1   3 -10   23.05    1.88
  -1  -3  10   23.84    1.90
   0   3 -10   26.41    2.17
   0  -3  10   26.14    2.18
   0  -3  10   26.79    2.18
  -1   3 -10    0.19    0.07
   1  -3  10    0.14    0.08
   1  -3  10    0.26    0.10
  -2   3 -10   24.61    2.09
   2  -3  10   26.05    2.10
   2  -3  10   25.48    2.09
  -3   3 -10    0.59    0.13
  -3   3 -10    0.73    0.12
   3  -3  10    0.76    0.13
  -4   3 -10    0.74    0.12
  -4   3 -10    0.68    0.14
   4  -3  10    0.63    0.14
  -5   3 -10    2.21    0.25
   5  -3  10    2.05    0.26
  -6   3 -10    1.50    0.23
   6  -3  10    1.90    0.24
  -7   3 -10    2.13    0.29
   7  -3  10    2.97    0.31
  -8   3 -10    0.53    0.21
   8  -3  10    0.40    0.20
  -9   3 -10    0.16    0.25
   9  -3  10    0.31    0.25
 -10   3 -10    0.21    0.30
  10   2 -10   -0.10    0.30
 -10  -2  10    0.18    0.28
   9   2 -10    1.13    0.31
  -9  -2  10    1.55    0.29
   8   2 -10    1.68    0.28
  -8  -2  10    1.33    0.25
   7   2 -10    1.42    0.25
  -7  -2  10    1.58    0.24
   6   2 -10    0.07    0.15
  -6  -2  10    0.08    0.14
   5   2 -10    0.27    0.13
  -5  -2  10    0.06    0.12
   4   2 -10   12.58    1.08
  -4  -2  10   13.01    1.08
   3   2 -10    0.67    0.13
  -3  -2  10    0.68    0.12
   2   2 -10    1.33    0.13
   2   2 -10    1.25    0.16
  -2  -2  10    1.33    0.16
   1   2 -10    7.57    0.62
   1   2 -10    7.39    0.64
  -1  -2  10    7.35    0.64
   0   2 -10    5.08    0.43
   0  -2  10    5.10    0.44
   0  -2  10    5.12    0.45
  -1   2 -10   24.88    2.01
   1  -2  10   23.65    2.01
   1  -2  10   24.83    2.02
  -2   2 -10   28.38    2.30
   2  -2  10   28.46    2.30
   2  -2  10   26.83    2.31
  -3   2 -10   10.52    0.84
  -3   2 -10    9.06    0.84
   3  -2  10   10.29    0.85
  -4   2 -10    0.17    0.12
   4  -2  10    0.11    0.13
  -5   2 -10    4.10    0.38
   5  -2  10    3.84    0.39
  -6   2 -10    0.85    0.19
   6  -2  10    1.04    0.19
  -7   2 -10    0.04    0.17
   7  -2  10    0.37    0.17
  -8   2 -10    0.36    0.22
   8  -2  10    0.17    0.21
  -9   2 -10    1.51    0.30
   9  -2  10    1.66    0.28
 -10   2 -10    0.02    0.29
  10  -2  10    0.33    0.27
  11   1 -10   -0.36    0.38
  10   1 -10    0.06    0.29
 -10  -1  10    0.15    0.28
   9   1 -10   -0.12    0.23
  -9  -1  10   -0.02    0.23
   8   1 -10    1.74    0.29
  -8  -1  10    2.13    0.29
   7   1 -10   11.87    0.98
  -7  -1  10   10.73    0.96
   6   1 -10    2.41    0.27
  -6  -1  10    1.66    0.24
   5   1 -10    8.88    0.77
  -5  -1  10    9.03    0.78
   4   1 -10    1.63    0.21
  -4  -1  10    2.01    0.22
   3   1 -10   14.92    1.16
   3   1 -10   13.20    1.18
  -3  -1  10   13.57    1.18
   2   1 -10    4.46    0.39
   2   1 -10    4.47    0.37
  -2  -1  10    4.01    0.39
   1   1 -10   95.82    7.83
  -1  -1  10   93.65    7.84
  -1  -1  10   97.81    7.84
   0   1 -10    6.39    0.57
   0  -1  10    7.24    0.58
  -1   1 -10    1.05    0.13
  -2   1 -10    1.11    0.15
   2  -1  10    1.14    0.16
   2  -1  10    1.33    0.13
  -3   1 -10   32.09    2.78
  -3   1 -10   35.54    2.77
   3  -1  10   33.12    2.79
  -4   1 -10    4.60    0.42
   4  -1  10    4.55    0.42
  -5   1 -10    0.22    0.13
   5  -1  10    0.10    0.13
  -6   1 -10    2.14    0.24
   6  -1  10    1.42    0.23
  -7   1 -10    5.05    0.47
   7  -1  10    4.58    0.47
  -8   1 -10    0.39    0.21
   8  -1  10    0.54    0.20
  -9   1 -10    1.40    0.27
   9  -1  10    0.86    0.24
 -10   1 -10    0.05    0.30
  10  -1  10    0.22    0.26
 -11   0  10   -0.24    0.35
  10   0 -10    0.28    0.30
 -10   0  10    0.10    0.32
   9   0 -10    1.25    0.27
  -9   0  10    0.89    0.26
   8   0 -10    5.21    0.49
  -8   0  10    4.31    0.48
   7   0 -10   -0.05    0.17
  -7   0  10   -0.07    0.17
   6   0 -10    0.08    0.14
  -6   0  10    0.08    0.15
   5   0 -10    4.46    0.44
  -5   0  10    5.09    0.45
   4   0 -10    6.38    0.57
  -4   0  10    6.75    0.58
   3   0 -10   13.64    1.11
   3   0 -10   13.04    1.13
  -3   0  10   13.53    1.13
   2   0 -10    7.76    0.63
   2   0 -10    7.11    0.61
  -2   0  10    7.27    0.62
   1   0 -10   18.82    1.57
  -1   0  10   19.72    1.58
  -1   0  10   18.72    1.58
   0   0 -10   72.81    6.15
   0   0  10   73.74    6.16
   0   0  10   78.84    6.16
  -1   0 -10    0.20    0.08
   1   0  10    0.28    0.09
   1   0  10    0.22    0.07
  -2   0 -10   39.18    3.24
   2   0  10   40.37    3.23
   2   0  10   38.52    3.25
  -3   0 -10    5.54    0.51
  -3   0 -10    5.93    0.49
   3   0  10    6.02    0.52
  -4   0 -10    0.00    0.11
   4   0  10    0.04    0.12
  -5   0 -10    1.15    0.17
   5   0  10    0.99    0.18
  -6   0 -10    9.80    0.87
   6   0  10   10.44    0.88
  -7   0 -10    0.42    0.18
   7   0  10    0.62    0.18
  -8   0 -10    0.29    0.20
   8   0  10    0.09    0.18
  -9   0 -10    0.42    0.25
   9   0  10    0.57    0.23
 -10   0 -10    0.47    0.30
  10   0  10    0.44    0.30
 -11   1  10   -0.27    0.37
  10  -1 -10    0.73    0.31
 -10   1  10    0.22    0.29
   9  -1 -10    0.76    0.25
  -9   1  10    1.21    0.27
   8  -1 -10    3.83    0.39
  -8   1  10    2.89    0.38
   7  -1 -10    2.43    0.28
  -7   1  10    2.09    0.28
   6  -1 -10   -0.07    0.13
  -6   1  10   -0.13    0.14
   5  -1 -10    0.58    0.16
  -5   1  10    0.58    0.15
   4  -1 -10    4.46    0.39
   4  -1 -10    4.07    0.37
  -4   1  10    4.18    0.39
   3  -1 -10    2.32    0.21
   3  -1 -10    1.96    0.18
  -3   1  10    1.35    0.19
   2  -1 -10    6.11    0.50
   2  -1 -10    5.67    0.51
  -2   1  10    5.95    0.51
   1  -1 -10    0.29    0.07
  -1   1  10    0.43    0.08
  -1   1  10    0.24    0.09
   0  -1 -10   44.95    3.67
   0   1  10   45.08    3.67
   0   1  10   44.15    3.68
  -1  -1 -10    7.77    0.64
   1   1  10    6.31    0.64
   1   1  10    8.08    0.63
  -2  -1 -10   14.96    1.43
   2   1  10   17.23    1.43
   2   1  10   18.58    1.42
  -3  -1 -10    5.27    0.48
   3   1  10    5.71    0.49
  -4  -1 -10    0.93    0.15
   4   1  10    0.69    0.15
  -5  -1 -10    3.40    0.34
   5   1  10    3.37    0.34
  -6  -1 -10    0.48    0.16
   6   1  10    0.29    0.15
  -7  -1 -10    6.01    0.52
   7   1  10    4.71    0.50
  -8  -1 -10    1.33    0.24
   8   1  10    0.85    0.22
  -9  -1 -10    1.82    0.31
   9   1  10    1.75    0.31
 -10  -1 -10    0.73    0.31
  10   1  10    0.36    0.31
 -10   2  10    0.26    0.30
   9  -2 -10    0.04    0.22
  -9   2  10   -0.05    0.24
   8  -2 -10    0.15    0.22
  -8   2  10   -0.16    0.19
   7  -2 -10    3.22    0.32
  -7   2  10    2.31    0.32
   6  -2 -10    3.58    0.37
  -6   2  10    3.56    0.37
   5  -2 -10    2.10    0.24
  -5   2  10    2.20    0.25
   4  -2 -10    1.99    0.21
   4  -2 -10    1.83    0.19
  -4   2  10    1.84    0.21
   3  -2 -10   30.41    2.48
   3  -2 -10   30.61    2.48
  -3   2  10   29.34    2.49
   2  -2 -10    0.07    0.07
  -2   2  10    0.16    0.09
  -2   2  10    0.19    0.09
   1  -2 -10   61.97    5.25
  -1   2  10   64.26    5.26
  -1   2  10   66.33    5.26
   0  -2 -10    1.08    0.14
   0   2  10    1.14    0.15
   0   2  10    1.17    0.13
  -1  -2 -10    9.23    0.87
   1   2  10   10.30    0.88
   1   2  10   11.23    0.86
  -2  -2 -10    3.30    0.32
   2   2  10    3.30    0.32
   2   2  10    3.49    0.29
  -3  -2 -10   48.61    3.95
   3   2  10   47.64    3.96
  -4  -2 -10    0.93    0.16
   4   2  10    1.22    0.16
  -5  -2 -10    0.25    0.14
   5   2  10   -0.03    0.13
  -6  -2 -10    8.19    0.72
   6   2  10    8.21    0.72
  -7  -2 -10    0.86    0.21
   7   2  10    1.37    0.22
  -8  -2 -10    0.03    0.19
   8   2  10    0.60    0.20
  -9  -2 -10    1.02    0.26
   9   2  10    0.73    0.25
 -10  -2 -10   -0.21    0.28
  10   2  10    0.28    0.28
 -10   3  10   -0.30    0.29
  -9   3  10    0.89    0.27
   8  -3 -10    0.83    0.21
  -8   3  10    0.60    0.23
   7  -3 -10    1.08    0.22
  -7   3  10    1.31    0.24
   6  -3 -10    0.24    0.16
  -6   3  10    0.32    0.16
   5  -3 -10    9.09    0.81
   5  -3 -10    9.43    0.81
  -5   3  10   10.37    0.83
   4  -3 -10    6.87    0.62
   4  -3 -10    7.11    0.61
  -4   3  10    7.54    0.62
   3  -3 -10   13.37    1.14
   3  -3 -10   14.61    1.15
  -3   3  10   13.51    1.15
   2  -3 -10    5.30    0.47
  -2   3  10    5.60    0.48
  -2   3  10    5.46    0.47
   1  -3 -10   36.54    3.03
  -1   3  10   36.70    3.03
  -1   3  10   37.66    3.04
   0  -3 -10    1.32    0.17
   0   3  10    1.70    0.19
   0   3  10    2.01    0.18
  -1  -3 -10   13.93    1.16
   1   3  10   14.47    1.15
   1   3  10   12.96    1.16
  -2  -3 -10   10.37    0.90
   2   3  10   10.37    0.90
   2   3  10   10.99    0.88
  -3  -3 -10    8.33    0.71
   3   3  10    8.25    0.72
  -4  -3 -10    1.95    0.20
   4   3  10    1.18    0.20
  -5  -3 -10    1.16    0.18
   5   3  10    0.87    0.18
  -6  -3 -10    1.87    0.22
   6   3  10    1.53    0.23
  -7  -3 -10    1.86    0.25
   7   3  10    1.29    0.21
  -8  -3 -10    0.08    0.20
   8   3  10    0.11    0.18
  -9  -3 -10    0.20    0.23
   9   3  10    0.05    0.22
 -10  -3 -10    0.02    0.30
  10   3  10    0.72    0.28
 -10   4  10    0.22    0.33
  -9   4  10    0.18    0.26
  -8   4  10    3.06    0.38
   7  -4 -10   -0.02    0.16
  -7   4  10   -0.11    0.18
   6  -4 -10    1.37    0.20
  -6   4  10    1.29    0.22
   5  -4 -10    1.16    0.16
   5  -4 -10    0.74    0.16
  -5   4  10    1.06    0.18
   4  -4 -10   23.30    1.94
   4  -4 -10   22.63    1.94
  -4   4  10   24.71    1.95
   3  -4 -10   11.48    0.90
   3  -4 -10   10.25    0.89
  -3   4  10   10.15    0.90
   2  -4 -10   16.57    1.38
  -2   4  10   17.26    1.38
  -2   4  10   16.04    1.38
   1  -4 -10    0.34    0.10
  -1   4  10    0.49    0.09
  -1   4  10    0.34    0.10
   0  -4 -10    8.42    0.72
   0   4  10    8.20    0.73
   0   4  10    8.89    0.72
  -1  -4 -10    0.29    0.10
   1   4  10    0.29    0.11
   1   4  10    0.37    0.07
  -2  -4 -10    2.44    0.26
   2   4  10    2.78    0.23
   2   4  10    2.46    0.27
  -3  -4 -10   23.49    1.95
   3   4  10   23.58    1.95
  -4  -4 -10    2.72    0.30
   4   4  10    3.02    0.30
  -5  -4 -10    0.23    0.14
   5   4  10   -0.01    0.13
  -6  -4 -10    0.07    0.15
   6   4  10    0.01    0.15
  -7  -4 -10    0.10    0.18
   7   4  10   -0.06    0.16
  -8  -4 -10    0.04    0.20
   8   4  10    0.13    0.19
  -9  -4 -10   -0.12    0.24
   9   4  10   -0.07    0.22
 -10  -4 -10    0.09    0.31
  10   4  10    0.35    0.31
 -10   5  10    0.23    0.35
  -9   5  10    0.04    0.27
  -8   5  10    0.57    0.24
  -7   5  10    2.53    0.33
   6  -5 -10    0.12    0.15
  -6   5  10   -0.27    0.16
   5  -5 -10   13.77    1.21
   5  -5 -10   14.31    1.21
  -5   5  10   15.33    1.23
   4  -5 -10   22.79    1.93
   4  -5 -10   23.26    1.93
  -4   5  10   24.17    1.94
   3  -5 -10    3.75    0.35
   3  -5 -10    3.81    0.36
  -3   5  10    3.86    0.36
   2  -5 -10    5.79    0.54
  -2   5  10    6.34    0.55
  -2   5  10    6.76    0.55
   1  -5 -10   28.16    2.32
  -1   5  10   27.67    2.32
  -1   5  10   28.67    2.32
   0  -5 -10   16.97    1.43
   0   5  10   16.54    1.43
   0   5  10   17.91    1.42
  -1  -5 -10   16.53    1.44
   1   5  10   17.65    1.43
   1   5  10   17.76    1.45
  -2  -5 -10    6.62    0.58
   2   5  10    6.69    0.58
  -3  -5 -10   15.82    1.25
   3   5  10   14.07    1.25
  -4  -5 -10   24.69    2.00
   4   5  10   23.48    2.00
  -5  -5 -10    1.26    0.19
   5   5  10    0.84    0.16
  -6  -5 -10    0.60    0.18
   6   5  10    0.45    0.17
  -7  -5 -10    1.14    0.22
   7   5  10    0.60    0.20
  -8  -5 -10   -0.01    0.21
   8   5  10   -0.03    0.19
  -9  -5 -10   -0.13    0.25
   9   5  10    0.03    0.23
 -10  -5 -10    0.62    0.33
 -10   6  10    0.44    0.37
  -9   6  10    0.14    0.29
  -8   6  10   -0.09    0.23
  -7   6  10    1.60    0.28
   6  -6 -10    1.52    0.20
  -6   6  10    0.95    0.23
   5  -6 -10    8.70    0.69
  -5   6  10    7.16    0.69
   4  -6 -10   18.57    1.53
   4  -6 -10   18.10    1.52
  -4   6  10   18.27    1.54
   3  -6 -10    0.12    0.10
   3  -6 -10    0.17    0.13
  -3   6  10   -0.02    0.12
   2  -6 -10   -0.12    0.11
  -2   6  10   -0.13    0.11
  -2   6  10   -0.04    0.09
   1  -6 -10    7.39    0.58
  -1   6  10    7.03    0.57
  -1   6  10    5.74    0.57
   0  -6 -10   28.16    2.44
   0   6  10   30.27    2.44
   0   6  10   30.15    2.44
  -1  -6 -10    1.58    0.19
   1   6  10    1.60    0.19
   1   6  10    1.71    0.17
  -2  -6 -10    5.85    0.45
   2   6  10    4.23    0.45
  -3  -6 -10    0.81    0.15
   3   6  10    0.46    0.14
  -4  -6 -10   27.97    2.39
   4   6  10   29.71    2.39
  -5  -6 -10    1.02    0.19
   5   6  10    0.71    0.17
  -6  -6 -10   11.26    0.94
   6   6  10   10.25    0.93
  -7  -6 -10    0.96    0.22
   7   6  10    0.90    0.21
  -8  -6 -10    0.24    0.23
   8   6  10    0.13    0.20
  -9  -6 -10   -0.10    0.30
   9   6  10    0.14    0.26
  -9   7  10    0.12    0.24
  -8   7  10    1.87    0.33
  -7   7  10    0.56    0.23
   6  -7 -10    0.25    0.18
  -6   7  10   -0.23    0.18
   5  -7 -10    1.22    0.21
  -5   7  10    1.53    0.24
   4  -7 -10    1.38    0.19
  -4   7  10    1.29    0.22
   3  -7 -10    0.50    0.14
   3  -7 -10    0.78    0.13
  -3   7  10    0.77    0.17
   2  -7 -10    0.03    0.11
  -2   7  10    0.07    0.11
  -2   7  10    0.31    0.14
   1  -7 -10    1.38    0.18
  -1   7  10    1.35    0.19
  -1   7  10    1.48    0.18
   0  -7 -10    7.35    0.61
   0   7  10    7.06    0.61
   0   7  10    6.56    0.60
  -1  -7 -10    0.28    0.13
   1   7  10    0.65    0.12
   1   7  10    0.45    0.14
  -2  -7 -10    3.78    0.35
   2   7  10    3.40    0.35
  -3  -7 -10    8.78    0.80
   3   7  10    9.83    0.81
  -4  -7 -10   -0.11    0.14
   4   7  10   -0.04    0.14
  -5  -7 -10    0.70    0.18
   5   7  10    0.61    0.17
  -6  -7 -10    2.63    0.28
   6   7  10    1.27    0.24
  -7  -7 -10    0.21    0.20
   7   7  10   -0.18    0.17
  -8  -7 -10    0.18    0.24
   8   7  10    0.18    0.22
  -9  -7 -10    0.26    0.29
   9   7  10    0.14    0.26
  -9   8  10   -0.03    0.33
  -8   8  10    0.48    0.28
   7  -8 -10    0.91    0.25
  -7   8  10    1.14    0.26
   6  -8 -10    0.11    0.17
  -6   8  10    0.40    0.20
   5  -8 -10    6.13    0.53
  -5   8  10    5.36    0.57
   4  -8 -10    1.96    0.26
  -4   8  10    2.70    0.30
   3  -8 -10   13.05    1.13
  -3   8  10   13.69    1.14
   2  -8 -10    0.30    0.14
  -2   8  10    0.67    0.21
   1  -8 -10    2.52    0.25
  -1   8  10    1.94    0.24
  -1   8  10    2.42    0.27
   0  -8 -10    0.03    0.12
   0   8  10   -0.08    0.14
   0   8  10    0.04    0.11
  -1  -8 -10    0.05    0.13
   1   8  10    0.15    0.14
   1   8  10    0.01    0.11
  -2  -8 -10    2.16    0.27
   2   8  10    2.51    0.26
  -3  -8 -10    0.14    0.14
   3   8  10    0.42    0.17
  -4  -8 -10    6.16    0.54
   4   8  10    5.45    0.53
  -5  -8 -10    0.15    0.17
   5   8  10    0.07    0.16
  -6  -8 -10   -0.02    0.18
   6   8  10   -0.05    0.17
  -7  -8 -10    0.17    0.21
   7   8  10    0.26    0.20
  -8  -8 -10   -0.01    0.25
   8   8  10   -0.11    0.24
  -9  -8 -10    0.24    0.35
  -9   9  10    0.46    0.36
  -8   9  10   -0.11    0.29
   7  -9 -10    0.90    0.23
  -7   9  10    0.71    0.27
   6  -9 -10    0.36    0.19
  -6   9  10    0.31    0.22
   5  -9 -10    0.71    0.19
  -5   9  10    0.68    0.23
   4  -9 -10    0.23    0.16
  -4   9  10    0.18    0.21
   3  -9 -10    2.82    0.30
  -3   9  10    2.52    0.31
   2  -9 -10    0.48    0.15
  -2   9  10    0.41    0.17
   1  -9 -10    4.65    0.45
  -1   9  10    4.83    0.46
   0  -9 -10    4.18    0.43
   0   9  10    4.19    0.45
   0   9  10    5.05    0.42
  -1  -9 -10    0.18    0.14
   1   9  10    0.16    0.17
   1   9  10    0.03    0.14
  -2  -9 -10    4.29    0.40
   2   9  10    4.24    0.42
  -3  -9 -10    3.20    0.33
   3   9  10    3.12    0.34
  -4  -9 -10    1.38    0.23
   4   9  10    1.27    0.22
  -5  -9 -10   -0.01    0.17
   5   9  10    0.20    0.20
  -6  -9 -10    0.34    0.20
   6   9  10    0.31    0.19
  -7  -9 -10    0.10    0.23
   7   9  10    0.20    0.22
  -8  -9 -10    0.02    0.27
   8   9  10    0.22    0.26
  -8  10  10    2.11    0.40
   7 -10 -10    0.24    0.21
  -7  10  10   -0.05    0.26
   6 -10 -10    0.10    0.19
  -6  10  10   -0.16    0.23
   5 -10 -10   -0.16    0.17
  -5  10  10    0.03    0.21
   4 -10 -10    0.04    0.17
  -4  10  10    0.18    0.22
   3 -10 -10    1.47    0.22
  -3  10  10    1.15    0.27
   2 -10 -10    0.10    0.16
  -2  10  10   -0.06    0.18
   1 -10 -10    2.16    0.27
  -1  10  10    2.47    0.32
   0 -10 -10   11.13    0.91
   0  10  10    9.93    0.92
  -1 -10 -10    2.02    0.25
   1  10  10    1.82    0.23
  -2 -10 -10   13.23    1.12
   2  10  10   12.89    1.11
  -3 -10 -10    4.29    0.44
   3  10  10    4.22    0.42
  -4 -10 -10    0.04    0.18
   4  10  10    0.26    0.18
  -5 -10 -10    0.30    0.20
   5  10  10    0.24    0.19
  -6 -10 -10    0.22    0.23
   6  10  10    0.60    0.22
  -7 -10 -10    0.18    0.26
   7  10  10    0.01    0.26
  -8 -10 -10   -0.29    0.29
   8  10  10    0.08    0.28
  -8  11  10    0.36    0.35
   7 -11 -10    0.07    0.24
  -7  11  10   -0.16    0.30
   6 -11 -10    0.09    0.24
  -6  11  10    0.04    0.26
   5 -11 -10    0.49    0.20
  -5  11  10    0.29    0.25
   4 -11 -10    0.69    0.20
  -4  11  10    0.99    0.26
   3 -11 -10    0.01    0.17
  -3  11  10   -0.09    0.22
   2 -11 -10   -0.08    0.16
  -2  11  10   -0.03    0.25
   1 -11 -10    1.33    0.22
  -1  11  10    1.33    0.28
   0 -11 -10    0.88    0.20
   0  11  10    0.74    0.28
  -1 -11 -10    0.27    0.17
  -2 -11 -10    0.67    0.20
   2  11  10    1.03    0.20
  -3 -11 -10    1.64    0.27
   3  11  10    2.36    0.28
  -4 -11 -10    0.16    0.19
   4  11  10    0.00    0.18
  -5 -11 -10    0.73    0.24
   5  11  10    0.67    0.22
  -6 -11 -10    0.35    0.24
   6  11  10    0.02    0.22
  -7 -11 -10    0.08    0.31
   7  11  10    0.09    0.29
  -8 -11 -10    0.18    0.32
   8 -12 -10    0.14    0.39
   7 -12 -10    0.35    0.30
  -7  12  10   -0.30    0.35
   6 -12 -10    0.08    0.26
  -6  12  10    0.54    0.30
   5 -12 -10    1.03    0.24
  -5  12  10    1.17    0.26
   4 -12 -10    0.02    0.19
  -4  12  10   -0.13    0.24
   3 -12 -10    0.10    0.17
  -3  12  10    0.26    0.25
   2 -12 -10    0.42    0.19
  -2  12  10    0.03    0.25
   1 -12 -10    1.51    0.25
  -1  12  10    1.71    0.32
   0 -12 -10    5.22    0.55
   0  12  10    6.75    0.61
  -1 -12 -10    0.00    0.18
  -2 -12 -10    0.26    0.19
  -3 -12 -10    0.61    0.22
   3  12  10    0.71    0.24
  -4 -12 -10    0.12    0.21
   4  12  10    0.07    0.23
  -5 -12 -10   -0.03    0.23
   5  12  10   -0.08    0.21
  -6 -12 -10    0.99    0.30
   6  12  10    0.59    0.26
  -7 -12 -10    0.17    0.32
   7  12  10    0.41    0.30
   7 -13 -10    0.14    0.30
  -7  13  10    0.12    0.43
   6 -13 -10   -0.07    0.26
  -6  13  10    0.59    0.34
   5 -13 -10    2.11    0.32
  -5  13  10    1.86    0.37
   4 -13 -10    1.13    0.26
  -4  13  10    1.46    0.33
   3 -13 -10    0.68    0.22
  -3  13  10    0.56    0.30
   2 -13 -10    0.19    0.19
  -2  13  10   -0.26    0.27
   1 -13 -10    0.33    0.20
  -1  13  10    0.14    0.28
   0 -13 -10    0.53    0.20
  -1 -13 -10   -0.09    0.19
  -2 -13 -10    0.43    0.22
  -3 -13 -10   -0.18    0.21
  -4 -13 -10    0.05    0.24
  -5 -13 -10    1.09    0.29
   5  13  10    0.76    0.30
  -6 -13 -10   -0.30    0.30
   6  13  10    0.22    0.32
   6 -14 -10    0.62    0.32
  -6  14  10    0.78    0.38
   5 -14 -10    0.31    0.26
  -5  14  10    0.78    0.36
   4 -14 -10    2.79    0.37
  -4  14  10    2.38    0.43
   3 -14 -10    0.08    0.22
  -3  14  10    0.13    0.36
   2 -14 -10    0.08    0.22
  -2  14  10    0.30    0.32
   1 -14 -10    1.58    0.29
  -1  14  10    2.01    0.39
   0 -14 -10    5.80    0.58
  -1 -14 -10    0.06    0.21
  -2 -14 -10    0.99    0.27
  -3 -14 -10    0.76    0.27
  -4 -14 -10   -0.05    0.26
  -5 -14 -10   -0.24    0.29
   5 -15 -10    0.69    0.31
  -5  15  10    0.31    0.38
   4 -15 -10    0.05    0.28
  -4  15  10    0.50    0.40
   3 -15 -10    0.95    0.28
  -3  15  10    1.99    0.44
   2 -15 -10    0.04    0.23
  -2  15  10    0.39    0.37
   1 -15 -10    0.72    0.27
  -1  15  10    1.56    0.39
   0 -15 -10    1.53    0.30
  -1 -15 -10    0.01    0.23
  -2 -15 -10   -0.02    0.26
  -3 -15 -10    1.09    0.31
  -4 -15 -10    0.04    0.29
  -4  16  10    0.76    0.44
   3 -16 -10    0.03    0.32
  -3  16  10    0.95    0.48
   2 -16 -10    0.26    0.28
  -2  16  10    0.09    0.49
   1 -16 -10   -0.16    0.27
   0 -16 -10   -0.06    0.27
  -1 -16 -10   -0.11    0.32
  -2 -16 -10    0.18    0.27
  -3 -16 -10   -0.08    0.31
  -3  17  10    0.91    0.54
  -2  17  10    0.18    0.47
  -3 -16  11   -0.09    0.39
  -2 -16  11    0.83    0.36
  -1 -16  11    0.32    0.30
   0  16 -11    0.20    0.34
  -1  16 -11   -0.15    0.33
  -2  16 -11    0.59    0.35
  -3  16 -11    0.04    0.35
   4 -16  11    2.11    0.40
  -4 -15  11   -0.08    0.33
  -3 -15  11    0.40    0.31
  -2 -15  11   -0.10    0.27
  -1 -15  11    0.33    0.28
   0 -15  11    0.31    0.27
  -1  15 -11    2.01    0.37
  -2  15 -11    0.99    0.32
  -3  15 -11    0.07    0.31
   3 -15  11    0.09    0.28
  -4  15 -11   -0.06    0.32
   4 -15  11   -0.25    0.28
  -5  15 -11    1.57    0.43
   5 -15  11    2.68    0.44
   6  14 -11    0.51    0.38
  -6 -14  11    0.53    0.38
   5  14 -11    1.90    0.40
  -5 -14  11    2.44    0.41
  -4 -14  11   -0.11    0.29
  -3 -14  11    1.61    0.33
  -2 -14  11   -0.02    0.25
  -1 -14  11    0.13    0.26
   0 -14  11    0.01    0.24
  -1  14 -11    0.70    0.26
  -2  14 -11   -0.10    0.25
  -3  14 -11    0.13    0.27
   3 -14  11    0.67    0.24
  -4  14 -11    0.25    0.29
   4 -14  11    0.10    0.26
  -5  14 -11    0.71    0.33
   5 -14  11    0.97    0.31
  -6  14 -11    0.25    0.40
   6 -14  11    0.47    0.37
  -7 -13  11    0.14    0.41
   6  13 -11    0.26    0.37
  -6 -13  11    0.48    0.34
   5  13 -11    1.27    0.34
  -5 -13  11    0.74    0.31
   4  13 -11    0.37    0.29
  -4 -13  11    0.45    0.28
   3  13 -11    0.27    0.26
  -3 -13  11    0.18    0.25
  -2 -13  11    1.22    0.28
  -1 -13  11    0.14    0.22
   0 -13  11    1.59    0.29
   1 -13  11    0.49    0.23
  -2  13 -11    3.03    0.38
   2 -13  11    2.74    0.35
  -3  13 -11   -0.12    0.23
   3 -13  11   -0.12    0.23
  -4  13 -11    0.20    0.26
   4 -13  11    0.41    0.23
  -5  13 -11    0.01    0.31
   5 -13  11    0.10    0.29
  -6  13 -11    0.19    0.34
   6 -13  11    0.26    0.30
   7  12 -11   -0.19    0.34
  -7 -12  11   -0.22    0.38
   6  12 -11    1.20    0.32
  -6 -12  11    0.73    0.31
   5  12 -11    0.80    0.27
  -5 -12  11    0.42    0.26
   4  12 -11   -0.09    0.22
  -4 -12  11    0.09    0.24
   3  12 -11   -0.09    0.23
  -3 -12  11   -0.04    0.21
   2  12 -11    6.87    0.64
  -2 -12  11    6.47    0.64
  -1 -12  11    0.20    0.21
   0 -12  11    0.77    0.23
   1 -12  11    2.72    0.35
  -2  12 -11    6.29    0.58
   2 -12  11    5.34    0.56
  -3  12 -11    0.63    0.23
   3 -12  11    0.32    0.19
  -4  12 -11   -0.11    0.22
   4 -12  11    0.25    0.20
  -5  12 -11    0.42    0.25
   5 -12  11    0.89    0.25
   6 -12  11   -0.08    0.29
   7 -12  11    0.65    0.32
  -8 -11  11    0.13    0.35
   7  11 -11    0.35    0.32
  -7 -11  11    0.47    0.31
   6  11 -11   -0.14    0.25
  -6 -11  11    0.07    0.25
   5  11 -11    3.80    0.42
  -5 -11  11    3.16    0.41
   4  11 -11   -0.02    0.21
  -4 -11  11   -0.01    0.21
   3  11 -11    0.75    0.21
  -3 -11  11    0.87    0.23
   2  11 -11   -0.12    0.17
  -2 -11  11   -0.22    0.18
   1  11 -11    2.39    0.30
  -1 -11  11    2.83    0.32
   0 -11  11    0.19    0.18
   1 -11  11    2.17    0.26
   1 -11  11    2.01    0.29
  -2  11 -11    0.00    0.19
   2 -11  11   -0.01    0.18
  -3  11 -11    0.04    0.20
   3 -11  11    0.25    0.17
  -4  11 -11   -0.07    0.20
   4 -11  11    0.18    0.20
  -5  11 -11    0.50    0.24
   5 -11  11    0.16    0.24
   6 -11  11    0.04    0.24
   7 -11  11    0.30    0.29
   8  10 -11    0.60    0.40
  -8 -10  11    0.66    0.33
   7  10 -11   -0.14    0.26
  -7 -10  11   -0.01    0.25
   6  10 -11    1.01    0.28
  -6 -10  11    1.13    0.28
   5  10 -11    1.09    0.28
  -5 -10  11    1.23    0.22
   4  10 -11    0.05    0.19
  -4 -10  11   -0.04    0.15
   3  10 -11    6.59    0.63
  -3 -10  11    7.08    0.64
   2  10 -11    4.25    0.44
  -2 -10  11    4.27    0.45
   1  10 -11    4.72    0.48
  -1 -10  11    5.29    0.50
   0  10 -11   15.64    1.26
   0 -10  11   14.16    1.28
  -1  10 -11    0.14    0.17
   1 -10  11    0.29    0.14
   1 -10  11    0.12    0.17
   2 -10  11    1.71    0.25
   2 -10  11    1.74    0.24
  -3  10 -11    1.15    0.23
   3 -10  11    1.20    0.22
  -4  10 -11   -0.14    0.18
   4 -10  11    0.11    0.20
  -5  10 -11    0.09    0.24
   5 -10  11    0.20    0.20
   6 -10  11    0.79    0.25
   7 -10  11   -0.26    0.25
   8 -10  11    2.10    0.39
  -9  -9  11    0.24    0.34
   8   9 -11   -0.06    0.31
  -8  -9  11    0.42    0.33
   7   9 -11   -0.26    0.25
  -7  -9  11   -0.11    0.24
   6   9 -11    1.81    0.31
  -6  -9  11    1.90    0.30
   5   9 -11    0.06    0.20
  -5  -9  11   -0.05    0.15
   4   9 -11    2.73    0.34
  -4  -9  11    3.13    0.33
   3   9 -11    3.80    0.39
  -3  -9  11    3.70    0.40
   2   9 -11    1.10    0.19
  -2  -9  11    1.00    0.20
   1   9 -11   10.26    0.88
  -1  -9  11   10.12    0.89
   0   9 -11    0.83    0.17
   0  -9  11    0.59    0.14
   0  -9  11    0.49    0.17
  -1   9 -11   15.80    1.34
   1  -9  11   16.47    1.35
   1  -9  11   15.75    1.34
  -2   9 -11    6.59    0.63
   2  -9  11    8.41    0.65
   2  -9  11    7.09    0.65
  -3   9 -11    2.30    0.25
   3  -9  11    1.08    0.21
  -4   9 -11    4.12    0.41
   4  -9  11    3.46    0.39
  -5   9 -11    0.14    0.22
   5  -9  11   -0.17    0.18
   6  -9  11    0.13    0.21
   7  -9  11    0.31    0.24
   8  -9  11    0.16    0.28
   9   8 -11   -0.05    0.34
  -9  -8  11   -0.14    0.32
   8   8 -11    0.08    0.32
  -8  -8  11   -0.07    0.26
   7   8 -11   -0.26    0.23
  -7  -8  11    0.31    0.23
   6   8 -11    0.32    0.21
  -6  -8  11    0.56    0.22
   5   8 -11    0.40    0.19
  -5  -8  11    0.03    0.18
   4   8 -11   -0.07    0.16
  -4  -8  11   -0.08    0.16
   3   8 -11    0.87    0.21
  -3  -8  11    1.16    0.20
   2   8 -11    4.70    0.48
  -2  -8  11    5.89    0.50
   1   8 -11    5.25    0.47
  -1  -8  11    4.97    0.48
   0   8 -11    0.18    0.13
   0  -8  11    0.04    0.11
   0  -8  11    0.17    0.15
  -1   8 -11    9.88    0.86
   1  -8  11    9.47    0.86
   1  -8  11   10.43    0.84
  -2   8 -11    0.10    0.15
   2  -8  11    0.26    0.14
   2  -8  11    0.25    0.15
  -3   8 -11    0.82    0.18
   3  -8  11    1.04    0.18
   3  -8  11    0.85    0.16
  -4   8 -11    0.74    0.18
   4  -8  11    0.42    0.17
  -5   8 -11    0.44    0.19
   5  -8  11    0.49    0.19
   6  -8  11    0.25    0.18
   7  -8  11    0.35    0.24
   8  -8  11    0.99    0.29
   9   7 -11   -0.01    0.31
  -9  -7  11   -0.25    0.28
   8   7 -11    0.58    0.27
  -8  -7  11    0.17    0.24
   7   7 -11   -0.12    0.21
  -7  -7  11    0.08    0.20
   6   7 -11    2.34    0.32
  -6  -7  11    2.42    0.31
   5   7 -11    1.23    0.22
  -5  -7  11    0.84    0.18
   4   7 -11    6.10    0.59
  -4  -7  11    6.92    0.60
   3   7 -11    1.79    0.22
  -3  -7  11    1.23    0.21
   2   7 -11    2.10    0.25
  -2  -7  11    2.20    0.26
   1   7 -11    6.54    0.59
  -1  -7  11    6.96    0.60
   0   7 -11    1.55    0.23
   0  -7  11    2.37    0.22
   0  -7  11    2.21    0.25
  -1   7 -11    0.73    0.14
   1  -7  11    0.98    0.16
   1  -7  11    0.54    0.12
   2  -7  11   27.22    2.24
   2  -7  11   28.73    2.24
   2  -7  11   25.41    2.24
  -3   7 -11    9.85    0.83
   3  -7  11    8.90    0.82
   3  -7  11   10.06    0.83
  -4   7 -11    2.18    0.27
   4  -7  11    2.33    0.27
   4  -7  11    2.33    0.26
   5  -7  11    0.10    0.16
   6  -7  11    0.88    0.21
   7  -7  11    0.21    0.21
   8  -7  11    0.11    0.24
  -9   7 -11   -0.22    0.30
 -10  -6  11    0.45    0.36
   9   6 -11   -0.16    0.30
  -9  -6  11    0.08    0.27
   8   6 -11    0.19    0.24
  -8  -6  11    0.14    0.25
   7   6 -11    6.36    0.58
  -7  -6  11    5.41    0.57
   6   6 -11    7.01    0.63
  -6  -6  11    6.45    0.60
   5   6 -11   -0.08    0.16
  -5  -6  11    0.32    0.13
   4   6 -11    1.92    0.23
  -4  -6  11    1.28    0.22
   3   6 -11    7.16    0.61
  -3  -6  11    6.57    0.61
   2   6 -11    6.89    0.55
  -2  -6  11    5.41    0.55
   1   6 -11    1.84    0.24
  -1  -6  11    2.20    0.21
  -1  -6  11    2.48    0.25
   0   6 -11    9.04    0.79
   0  -6  11    9.34    0.79
   0  -6  11    9.19    0.77
   1  -6  11    5.24    0.48
   1  -6  11    5.58    0.49
   1  -6  11    5.75    0.50
   2  -6  11    0.00    0.11
   2  -6  11    0.10    0.12
   2  -6  11   -0.04    0.11
  -3   6 -11    0.09    0.12
   3  -6  11    0.02    0.11
   3  -6  11    0.06    0.13
  -4   6 -11    3.80    0.39
   4  -6  11    4.12    0.40
   4  -6  11    4.25    0.39
   5  -6  11    0.17    0.16
   5  -6  11   -0.03    0.15
   6  -6  11   -0.10    0.17
   6  -6  11    0.03    0.18
   7  -6  11    0.22    0.21
  -8   6 -11    3.13    0.40
  -9   6 -11   -0.20    0.27
  10   5 -11    0.29    0.40
 -10  -5  11    0.32    0.33
   9   5 -11    0.79    0.31
  -9  -5  11    0.57    0.27
   8   5 -11    0.78    0.26
  -8  -5  11    0.42    0.23
   7   5 -11    1.82    0.30
  -7  -5  11    2.28    0.30
   6   5 -11    3.81    0.43
  -6  -5  11    4.31    0.40
   5   5 -11    1.40    0.23
  -5  -5  11    2.00    0.24
   4   5 -11    0.10    0.13
  -4  -5  11    0.04    0.10
   3   5 -11    5.18    0.47
  -3  -5  11    5.03    0.47
   2   5 -11    1.78    0.22
  -2  -5  11    2.13    0.23
   1   5 -11   13.91    1.20
   1   5 -11   14.29    1.18
  -1  -5  11   14.57    1.20
   0   5 -11    2.47    0.27
   0  -5  11    3.05    0.26
   0  -5  11    2.65    0.28
   1  -5  11   70.33    5.79
   1  -5  11   70.26    5.80
   1  -5  11   71.53    5.80
   2  -5  11   12.53    1.09
   2  -5  11   13.49    1.09
   2  -5  11   12.93    1.09
  -3   5 -11    7.48    0.66
   3  -5  11    7.87    0.67
   3  -5  11    7.84    0.67
  -4   5 -11    0.00    0.13
   4  -5  11    0.05    0.14
   4  -5  11    0.08    0.13
   5  -5  11    0.23    0.16
   5  -5  11    0.18    0.14
   6  -5  11    0.04    0.17
   6  -5  11   -0.01    0.16
  -7   5 -11    0.03    0.20
   7  -5  11    0.07    0.18
  -8   5 -11    0.42    0.23
  -9   5 -11    0.63    0.30
  10   4 -11    0.16    0.34
 -10  -4  11   -0.32    0.31
   9   4 -11    1.25    0.31
  -9  -4  11    1.27    0.33
   8   4 -11    0.02    0.22
  -8  -4  11   -0.03    0.20
   7   4 -11    0.27    0.20
  -7  -4  11    0.16    0.18
   6   4 -11    0.02    0.17
  -6  -4  11   -0.06    0.15
   5   4 -11    1.10    0.17
  -5  -4  11    1.07    0.17
   4   4 -11    0.01    0.13
  -4  -4  11    0.01    0.12
   3   4 -11   -0.07    0.11
  -3  -4  11   -0.06    0.08
   2   4 -11   11.70    1.00
  -2  -4  11   11.88    1.00
   1   4 -11    6.44    0.58
   1   4 -11    6.64    0.56
  -1  -4  11    6.93    0.58
   0   4 -11    6.37    0.56
   0  -4  11    6.53    0.58
   0  -4  11    7.07    0.58
  -1   4 -11   17.98    1.53
   1  -4  11   19.29    1.54
   1  -4  11   18.39    1.54
   2  -4  11   21.61    1.80
   2  -4  11   20.95    1.80
   2  -4  11   22.67    1.80
   3  -4  11   13.95    1.13
   3  -4  11   12.86    1.12
   3  -4  11   13.74    1.13
  -4   4 -11    0.87    0.15
   4  -4  11    1.03    0.17
   4  -4  11    0.78    0.16
  -5   4 -11    8.41    0.71
   5  -4  11    7.73    0.71
  -6   4 -11    5.32    0.52
   6  -4  11    5.51    0.51
  -7   4 -11    0.13    0.18
   7  -4  11    0.08    0.17
  -8   4 -11    3.26    0.37
   8  -4  11    2.55    0.36
  -9   4 -11    0.20    0.26
  10   3 -11   -0.08    0.37
 -10  -3  11    0.23    0.29
   9   3 -11    0.05    0.25
  -9  -3  11    0.30    0.25
   8   3 -11   -0.01    0.23
  -8  -3  11    0.65    0.22
   7   3 -11    1.09    0.23
  -7  -3  11    0.57    0.20
   6   3 -11   -0.09    0.16
  -6  -3  11    0.07    0.15
   5   3 -11    3.81    0.40
  -5  -3  11    4.43    0.41
   4   3 -11   11.20    0.86
  -4  -3  11    9.10    0.86
   3   3 -11    0.40    0.11
  -3  -3  11    0.11    0.09
   2   3 -11   18.65    1.61
  -2  -3  11   19.93    1.61
   1   3 -11    6.35    0.52
   1   3 -11    6.41    0.54
  -1  -3  11    5.93    0.54
   0   3 -11    1.15    0.13
   0  -3  11    1.24    0.15
   0  -3  11    1.01    0.16
  -1   3 -11    2.29    0.24
   1  -3  11    2.62    0.25
   1  -3  11    2.91    0.26
  -2   3 -11    2.77    0.28
   2  -3  11    3.23    0.29
   2  -3  11    2.89    0.27
  -3   3 -11    1.15    0.19
   3  -3  11    1.71    0.20
   3  -3  11    2.04    0.19
  -4   3 -11   11.29    0.97
   4  -3  11   11.57    0.97
  -5   3 -11    6.53    0.62
   5  -3  11    7.46    0.63
  -6   3 -11    0.57    0.17
   6  -3  11    0.56    0.17
  -7   3 -11    5.10    0.50
   7  -3  11    5.02    0.51
  -8   3 -11    6.09    0.59
   8  -3  11    5.75    0.59
  -9   3 -11    0.58    0.28
   9  -3  11    0.65    0.25
 -10   3 -11    0.24    0.35
  10   2 -11    0.75    0.34
 -10  -2  11    0.43    0.31
   9   2 -11    2.49    0.34
  -9  -2  11    1.45    0.31
   8   2 -11    0.48    0.23
  -8  -2  11    0.20    0.21
   7   2 -11    0.17    0.19
  -7  -2  11    0.06    0.17
   6   2 -11   10.88    0.91
  -6  -2  11   10.08    0.90
   5   2 -11    3.86    0.41
  -5  -2  11    4.55    0.41
   4   2 -11    0.57    0.14
  -4  -2  11    0.43    0.13
   3   2 -11   20.19    1.54
  -3  -2  11   17.09    1.54
   2   2 -11   36.22    3.09
   2   2 -11   38.03    3.07
  -2  -2  11   37.95    3.09
   1   2 -11    3.53    0.31
  -1  -2  11    3.84    0.33
  -1  -2  11    3.50    0.33
   0   2 -11    0.05    0.07
   0  -2  11    0.05    0.08
   0  -2  11    0.00    0.09
  -1   2 -11   30.63    2.62
   1  -2  11   31.58    2.62
   1  -2  11   33.89    2.63
  -2   2 -11    0.78    0.15
   2  -2  11    1.67    0.16
   2  -2  11    1.39    0.17
  -3   2 -11    2.20    0.26
   3  -2  11    2.50    0.28
   3  -2  11    3.04    0.26
  -4   2 -11    0.65    0.14
   4  -2  11    0.32    0.14
  -5   2 -11    0.09    0.14
   5  -2  11    0.24    0.14
  -6   2 -11    0.15    0.16
   6  -2  11    0.23    0.15
  -7   2 -11    0.03    0.18
   7  -2  11    0.24    0.18
  -8   2 -11    0.56    0.22
   8  -2  11    0.22    0.20
  -9   2 -11    0.71    0.27
   9  -2  11    0.68    0.25
 -10   2 -11    1.52    0.35
  10  -2  11    0.85    0.32
  10   1 -11    0.03    0.31
 -10  -1  11   -0.14    0.29
   9   1 -11    1.68    0.31
  -9  -1  11    1.51    0.29
   8   1 -11    0.33    0.22
  -8  -1  11    0.33    0.21
   7   1 -11    0.29    0.21
  -7  -1  11    0.10    0.17
   6   1 -11    0.06    0.15
  -6  -1  11    0.02    0.11
   5   1 -11    7.41    0.68
  -5  -1  11    8.05    0.68
   4   1 -11    0.32    0.12
  -4  -1  11    0.32    0.10
   3   1 -11   29.09    2.30
  -3  -1  11   26.80    2.30
   2   1 -11   10.19    0.85
   2   1 -11    9.94    0.83
  -2  -1  11    9.88    0.84
   1   1 -11    0.08    0.06
  -1  -1  11    0.18    0.10
  -1  -1  11    0.14    0.08
   0   1 -11    4.85    0.42
   0  -1  11    5.05    0.44
   0  -1  11    4.85    0.43
  -1   1 -11    9.50    0.85
   1  -1  11   10.17    0.86
   1  -1  11   10.75    0.85
  -2   1 -11    0.78    0.13
   2  -1  11    0.94    0.11
   2  -1  11    0.61    0.14
  -3   1 -11    0.27    0.11
   3  -1  11    0.50    0.09
   3  -1  11    0.32    0.13
  -4   1 -11    0.41    0.13
   4  -1  11    0.35    0.14
  -5   1 -11   12.80    1.01
   5  -1  11   10.90    1.00
  -6   1 -11    1.50    0.23
   6  -1  11    1.74    0.24
  -7   1 -11    1.52    0.23
   7  -1  11    0.94    0.22
  -8   1 -11    0.24    0.21
   8  -1  11    0.36    0.20
  -9   1 -11   -0.12    0.24
   9  -1  11   -0.04    0.23
 -10   1 -11    0.65    0.32
  10  -1  11    0.04    0.28
  10   0 -11    0.52    0.32
 -10   0  11    1.73    0.35
   9   0 -11    1.15    0.28
  -9   0  11    1.38    0.29
   8   0 -11    1.22    0.26
  -8   0  11    1.74    0.27
   7   0 -11    3.46    0.40
  -7   0  11    3.74    0.39
   6   0 -11   12.35    1.11
  -6   0  11   13.71    1.11
   5   0 -11    0.12    0.14
  -5   0  11    0.39    0.14
   4   0 -11    5.67    0.49
  -4   0  11    5.34    0.49
   3   0 -11    1.36    0.14
   3   0 -11    1.00    0.17
  -3   0  11    1.63    0.18
   2   0 -11   49.66    4.04
   2   0 -11   49.17    4.02
  -2   0  11   48.63    4.03
   1   0 -11   32.58    2.75
  -1   0  11   33.91    2.75
  -1   0  11   34.23    2.76
   0   0 -11    1.13    0.13
   0   0  11    0.99    0.13
   0   0  11    1.08    0.15
  -1   0 -11   13.38    1.21
   1   0  11   14.36    1.22
   1   0  11   15.73    1.21
  -2   0 -11    9.11    0.87
   2   0  11   10.52    0.88
   2   0  11   11.13    0.86
  -3   0 -11    2.23    0.24
   3   0  11    2.34    0.26
  -4   0 -11   16.02    1.26
   4   0  11   14.14    1.26
  -5   0 -11    0.00    0.13
   5   0  11    0.22    0.14
  -6   0 -11    1.79    0.24
   6   0  11    1.67    0.24
  -7   0 -11    1.42    0.24
   7   0  11    1.72    0.25
  -8   0 -11    1.20    0.24
   8   0  11    0.46    0.21
  -9   0 -11    0.42    0.26
   9   0  11    0.65    0.25
 -10   0 -11    0.29    0.31
  10   0  11    0.13    0.32
 -10   1  11    0.05    0.34
   9  -1 -11    0.04    0.26
  -9   1  11    0.12    0.24
   8  -1 -11    0.13    0.21
  -8   1  11    0.21    0.20
   7  -1 -11    0.35    0.18
  -7   1  11    0.31    0.18
   6  -1 -11    0.95    0.19
  -6   1  11    1.40    0.21
   5  -1 -11    7.83    0.67
  -5   1  11    7.52    0.68
   4  -1 -11    0.06    0.11
  -4   1  11    0.11    0.12
   3  -1 -11   16.54    1.37
   3  -1 -11   16.82    1.36
  -3   1  11   15.88    1.37
   2  -1 -11   27.03    2.31
   2  -1 -11   28.13    2.30
  -2   1  11   28.78    2.31
   1  -1 -11    0.45    0.09
  -1   1  11    0.58    0.12
  -1   1  11    0.64    0.10
   0  -1 -11    3.33    0.30
   0   1  11    3.35    0.29
   0   1  11    3.00    0.31
  -1  -1 -11    1.71    0.18
   1   1  11    1.31    0.18
   1   1  11    1.50    0.16
  -2  -1 -11    0.75    0.12
   2   1  11    0.67    0.12
   2   1  11    0.75    0.09
  -3  -1 -11    7.96    0.70
   3   1  11    8.42    0.71
  -4  -1 -11    0.30    0.13
   4   1  11    0.23    0.11
  -5  -1 -11   17.50    1.43
   5   1  11   16.57    1.43
  -6  -1 -11    3.97    0.41
   6   1  11    4.18    0.41
  -7  -1 -11    8.43    0.78
   7   1  11    9.15    0.78
  -8  -1 -11    0.35    0.22
   8   1  11    0.12    0.19
  -9  -1 -11    0.02    0.25
   9   1  11   -0.02    0.23
 -10  -1 -11    0.21    0.30
  10   1  11    0.21    0.28
 -10   2  11    0.20    0.31
   9  -2 -11    1.74    0.35
  -9   2  11    2.07    0.33
   8  -2 -11    3.02    0.36
  -8   2  11    2.97    0.37
   7  -2 -11    2.97    0.34
  -7   2  11    3.21    0.35
   6  -2 -11    0.37    0.18
  -6   2  11    0.67    0.18
   5  -2 -11    2.51    0.28
  -5   2  11    2.93    0.30
   4  -2 -11    0.15    0.11
   4  -2 -11    0.22    0.10
  -4   2  11    0.05    0.12
   3  -2 -11    9.68    0.78
   3  -2 -11   10.09    0.79
  -3   2  11    8.25    0.79
   2  -2 -11    3.05    0.26
  -2   2  11    2.64    0.27
  -2   2  11    2.53    0.27
   1  -2 -11    5.23    0.43
  -1   2  11    4.92    0.43
  -1   2  11    4.54    0.44
   0  -2 -11    0.52    0.10
   0   2  11    0.54    0.11
   0   2  11    0.64    0.10
  -1  -2 -11   52.84    4.40
   1   2  11   55.42    4.39
   1   2  11   52.20    4.41
  -2  -2 -11    0.08    0.10
   2   2  11    0.05    0.06
   2   2  11    0.11    0.11
  -3  -2 -11    1.82    0.21
   3   2  11    1.92    0.22
  -4  -2 -11    3.93    0.38
   4   2  11    4.05    0.39
  -5  -2 -11   19.70    1.57
   5   2  11   17.84    1.57
  -6  -2 -11   -0.10    0.15
   6   2  11    0.03    0.15
  -7  -2 -11    0.33    0.19
   7   2  11    0.16    0.18
  -8  -2 -11    0.82    0.24
   8   2  11    1.10    0.23
  -9  -2 -11    0.18    0.25
   9   2  11    0.08    0.23
 -10  -2 -11    0.18    0.31
  10   2  11    0.47    0.30
 -10   3  11    0.11    0.33
  -9   3  11    0.42    0.27
   8  -3 -11    0.23    0.22
  -8   3  11    0.10    0.22
   7  -3 -11    6.85    0.64
  -7   3  11    7.06    0.65
   6  -3 -11    5.31    0.48
  -6   3  11    4.81    0.47
   5  -3 -11    0.27    0.13
  -5   3  11    0.24    0.12
   4  -3 -11    4.43    0.40
   4  -3 -11    4.32    0.39
  -4   3  11    4.20    0.41
   3  -3 -11   15.56    1.30
   3  -3 -11   16.80    1.31
  -3   3  11   14.97    1.31
   2  -3 -11   29.50    2.44
  -2   3  11   28.68    2.44
  -2   3  11   30.69    2.44
   1  -3 -11   12.41    1.00
  -1   3  11   11.44    1.01
  -1   3  11   11.96    1.00
   0  -3 -11   10.33    0.88
   0   3  11   10.72    0.89
   0   3  11   10.43    0.87
  -1  -3 -11   17.51    1.58
   1   3  11   19.09    1.57
   1   3  11   20.74    1.58
  -2  -3 -11   10.76    0.94
   2   3  11   11.59    0.95
  -3  -3 -11    0.16    0.12
   3   3  11    0.10    0.12
  -4  -3 -11   11.08    0.91
   4   3  11   10.31    0.92
  -5  -3 -11    0.28    0.15
   5   3  11    0.39    0.13
  -6  -3 -11    0.70    0.18
   6   3  11    0.62    0.18
  -7  -3 -11    0.05    0.18
   7   3  11    0.13    0.17
  -8  -3 -11    0.15    0.21
   8   3  11    0.15    0.20
  -9  -3 -11   -0.09    0.27
   9   3  11   -0.33    0.23
 -10  -3 -11    0.25    0.31
 -10   4  11    0.07    0.33
  -9   4  11    0.04    0.28
  -8   4  11    0.22    0.23
  -7   4  11    0.91    0.22
   6  -4 -11   10.19    0.87
  -6   4  11    9.93    0.88
   5  -4 -11    3.49    0.33
   5  -4 -11    2.92    0.33
  -5   4  11    3.35    0.33
   4  -4 -11   -0.02    0.11
   4  -4 -11    0.03    0.13
  -4   4  11   -0.08    0.09
   3  -4 -11    0.46    0.12
   3  -4 -11    0.58    0.12
  -3   4  11    0.44    0.13
   2  -4 -11   19.04    1.61
  -2   4  11   17.75    1.61
  -2   4  11   22.12    1.62
   1  -4 -11   13.80    1.17
  -1   4  11   13.87    1.17
  -1   4  11   14.41    1.17
   0  -4 -11    0.06    0.09
   0   4  11    0.03    0.07
   0   4  11   -0.04    0.09
  -1  -4 -11   17.36    1.53
   1   4  11   19.00    1.54
   1   4  11   18.91    1.52
  -2  -4 -11   15.55    1.24
   2   4  11   14.07    1.24
  -3  -4 -11    0.11    0.12
   3   4  11    0.22    0.13
  -4  -4 -11    2.40    0.23
   4   4  11    1.57    0.23
  -5  -4 -11    7.96    0.65
   5   4  11    6.49    0.64
  -6  -4 -11    1.19    0.21
   6   4  11    0.89    0.20
  -7  -4 -11    0.17    0.19
   7   4  11    0.03    0.18
  -8  -4 -11    0.06    0.21
   8   4  11   -0.14    0.20
  -9  -4 -11    0.52    0.26
   9   4  11    0.01    0.27
 -10   5  11    0.07    0.37
  -9   5  11    0.07    0.27
  -8   5  11    0.23    0.24
  -7   5  11    0.53    0.22
  -6   5  11    4.55    0.46
   5  -5 -11   10.55    0.85
   5  -5 -11    9.25    0.85
  -5   5  11   10.11    0.87
   4  -5 -11    1.03    0.17
   4  -5 -11    1.01    0.17
  -4   5  11    1.26    0.18
   3  -5 -11    9.93    0.86
   3  -5 -11   10.02    0.86
  -3   5  11   10.78    0.87
   2  -5 -11    0.65    0.14
  -2   5  11    1.16    0.15
  -2   5  11    1.18    0.16
   1  -5 -11   17.35    1.47
  -1   5  11   17.95    1.47
  -1   5  11   17.79    1.47
   0  -5 -11   -0.10    0.10
   0   5  11    0.06    0.08
   0   5  11    0.04    0.10
  -1  -5 -11   43.80    3.61
   1   5  11   43.26    3.59
   1   5  11   44.65    3.61
  -2  -5 -11    4.15    0.36
   2   5  11    3.36    0.36
  -3  -5 -11    2.00    0.26
   3   5  11    2.69    0.27
  -4  -5 -11    4.14    0.38
   4   5  11    3.38    0.37
  -5  -5 -11    8.33    0.72
   5   5  11    7.94    0.72
  -6  -5 -11    0.51    0.19
   6   5  11    0.21    0.17
  -7  -5 -11    0.51    0.21
   7   5  11    0.47    0.20
  -8  -5 -11    0.32    0.22
   8   5  11    0.01    0.22
  -9  -5 -11    0.28    0.28
   9   5  11    0.60    0.27
  -9   6  11    0.79    0.32
  -8   6  11   -0.08    0.24
  -7   6  11    0.06    0.21
  -6   6  11    0.84    0.22
   5  -6 -11    0.11    0.15
  -5   6  11    0.12    0.13
   4  -6 -11    2.19    0.28
   4  -6 -11    2.92    0.28
  -4   6  11    2.81    0.30
   3  -6 -11    0.48    0.14
   3  -6 -11    0.50    0.13
  -3   6  11    0.03    0.13
   2  -6 -11   19.39    1.64
  -2   6  11   20.27    1.65
  -2   6  11   19.70    1.64
   1  -6 -11    0.93    0.15
  -1   6  11    1.11    0.14
  -1   6  11    0.89    0.15
   0  -6 -11   12.35    1.00
   0   6  11   11.54    0.99
   0   6  11   11.60    0.98
  -1  -6 -11    1.54    0.19
   1   6  11    1.33    0.16
   1   6  11    1.44    0.20
  -2  -6 -11    6.06    0.53
   2   6  11    5.67    0.52
  -3  -6 -11    0.34    0.14
   3   6  11    0.37    0.15
  -4  -6 -11    2.84    0.30
   4   6  11    2.53    0.30
  -5  -6 -11    0.69    0.18
   5   6  11    0.17    0.17
  -6  -6 -11    0.11    0.18
   6   6  11    0.17    0.18
  -7  -6 -11    0.24    0.21
   7   6  11    0.53    0.21
  -8  -6 -11    0.41    0.24
   8   6  11    0.22    0.23
  -9  -6 -11    0.22    0.33
   9   6  11    0.06    0.26
  -9   7  11   -0.14    0.32
  -8   7  11   -0.02    0.26
  -7   7  11    0.35    0.24
   6  -7 -11    2.71    0.31
  -6   7  11    2.36    0.32
   5  -7 -11    1.19    0.19
  -5   7  11    0.78    0.22
   4  -7 -11    0.06    0.14
  -4   7  11    0.16    0.17
   3  -7 -11    1.52    0.18
   3  -7 -11    1.03    0.17
  -3   7  11    1.08    0.19
   2  -7 -11    1.18    0.18
  -2   7  11    1.15    0.19
  -2   7  11    1.51    0.18
   1  -7 -11    0.12    0.12
  -1   7  11    0.09    0.11
  -1   7  11    0.24    0.11
   0  -7 -11    3.37    0.29
   0   7  11    2.60    0.27
   0   7  11    2.29    0.27
  -1  -7 -11    1.23    0.20
   1   7  11    1.59    0.21
   1   7  11    1.84    0.19
  -2  -7 -11    0.62    0.15
   2   7  11    0.15    0.14
  -3  -7 -11    0.33    0.15
   3   7  11    0.22    0.15
  -4  -7 -11    0.08    0.15
   4   7  11   -0.06    0.15
  -5  -7 -11    1.34    0.22
   5   7  11    1.31    0.23
  -6  -7 -11    0.13    0.18
   6   7  11    0.10    0.18
  -7  -7 -11    0.61    0.23
   7   7  11    0.10    0.20
  -8  -7 -11    0.04    0.25
   8   7  11   -0.07    0.23
  -9  -7 -11    0.17    0.30
  -9   8  11   -0.12    0.33
  -8   8  11   -0.12    0.27
  -7   8  11   -0.16    0.23
   6  -8 -11    0.81    0.23
  -6   8  11    1.04    0.25
   5  -8 -11    5.19    0.47
  -5   8  11    4.17    0.48
   4  -8 -11    4.10    0.44
  -4   8  11    4.64    0.45
   3  -8 -11   11.51    0.96
  -3   8  11   10.88    0.97
   2  -8 -11    1.42    0.21
  -2   8  11    1.32    0.21
   1  -8 -11   -0.13    0.12
  -1   8  11    0.01    0.13
  -1   8  11   -0.04    0.12
   0  -8 -11   -0.07    0.13
   0   8  11    0.12    0.13
   0   8  11   -0.35    0.13
  -1  -8 -11    6.78    0.56
   1   8  11    5.56    0.56
  -2  -8 -11    7.28    0.65
   2   8  11    7.33    0.65
  -3  -8 -11    5.49    0.53
   3   8  11    5.99    0.53
  -4  -8 -11    4.49    0.39
   4   8  11    2.89    0.37
  -5  -8 -11    3.38    0.38
   5   8  11    3.74    0.39
  -6  -8 -11    0.54    0.23
   6   8  11    0.50    0.20
  -7  -8 -11    0.49    0.24
   7   8  11    0.64    0.23
  -8  -8 -11    1.39    0.34
   8   8  11    1.08    0.32
  -9  -8 -11   -0.18    0.35
  -8   9  11   -0.02    0.30
  -7   9  11   -0.03    0.25
   6  -9 -11    0.43    0.20
  -6   9  11    0.65    0.25
   5  -9 -11    0.27    0.17
  -5   9  11    0.14    0.22
   4  -9 -11    1.29    0.24
  -4   9  11    1.48    0.25
   3  -9 -11    0.10    0.15
  -3   9  11   -0.12    0.17
   2  -9 -11   12.49    1.10
  -2   9  11   13.50    1.11
   1  -9 -11    2.80    0.29
  -1   9  11    2.44    0.30
   0  -9 -11    2.92    0.34
   0   9  11    3.55    0.35
   0   9  11    3.55    0.35
  -1  -9 -11    2.70    0.32
   1   9  11    3.38    0.32
  -2  -9 -11    5.65    0.54
   2   9  11    5.95    0.54
  -3  -9 -11   -0.08    0.16
   3   9  11   -0.01    0.16
  -4  -9 -11    1.30    0.24
   4   9  11    1.56    0.24
  -5  -9 -11    0.13    0.18
   5   9  11    0.17    0.18
  -6  -9 -11    0.34    0.21
   6   9  11    0.37    0.21
  -7  -9 -11    0.07    0.27
   7   9  11    0.10    0.22
  -8  -9 -11    2.00    0.36
   8   9  11    1.51    0.34
  -8  10  11   -0.11    0.34
   7 -10 -11    0.23    0.26
  -7  10  11   -0.17    0.27
   6 -10 -11    1.51    0.26
  -6  10  11    1.34    0.30
   5 -10 -11    0.25    0.19
  -5  10  11    0.03    0.22
   4 -10 -11    0.06    0.17
  -4  10  11   -0.10    0.20
   3 -10 -11    0.23    0.17
  -3  10  11    0.11    0.20
   2 -10 -11    0.93    0.20
  -2  10  11    0.76    0.23
   1 -10 -11    0.82    0.19
  -1  10  11    1.15    0.23
   0 -10 -11    2.43    0.28
   0  10  11    2.21    0.28
  -1 -10 -11    2.53    0.30
   1  10  11    2.49    0.28
  -2 -10 -11    2.36    0.28
   2  10  11    1.86    0.27
  -3 -10 -11    0.52    0.20
   3  10  11    1.38    0.23
  -4 -10 -11    1.69    0.25
   4  10  11    1.11    0.23
  -5 -10 -11    0.21    0.21
   5  10  11    0.02    0.19
  -6 -10 -11    0.30    0.24
   6  10  11    0.33    0.23
  -7 -10 -11    0.32    0.27
   7  10  11   -0.15    0.25
  -8 -10 -11   -0.11    0.31
   7 -11 -11    0.52    0.26
  -7  11  11    0.11    0.32
   6 -11 -11    0.33    0.25
  -6  11  11    0.13    0.28
   5 -11 -11    0.43    0.21
  -5  11  11    0.63    0.26
   4 -11 -11    0.33    0.19
  -4  11  11    0.77    0.24
   3 -11 -11    0.52    0.19
  -3  11  11    0.88    0.24
   2 -11 -11    0.19    0.17
  -2  11  11    0.23    0.21
   1 -11 -11    0.65    0.19
  -1  11  11    1.09    0.25
   0 -11 -11    0.23    0.18
   0  11  11    0.62    0.24
  -1 -11 -11    2.76    0.32
  -2 -11 -11    3.42    0.37
   2  11  11    3.11    0.36
  -3 -11 -11    1.21    0.23
   3  11  11    0.95    0.25
  -4 -11 -11    0.03    0.21
   4  11  11    0.16    0.19
  -5 -11 -11   -0.09    0.22
   5  11  11    0.23    0.21
  -6 -11 -11   -0.18    0.24
   6  11  11    0.24    0.25
  -7 -11 -11    0.06    0.29
   7  11  11    0.23    0.29
   7 -12 -11    0.56    0.32
  -7  12  11    0.41    0.34
   6 -12 -11   -0.09    0.24
  -6  12  11   -0.22    0.31
   5 -12 -11   -0.10    0.21
  -5  12  11    0.09    0.26
   4 -12 -11    0.91    0.23
  -4  12  11    1.04    0.29
   3 -12 -11    2.12    0.28
  -3  12  11    1.72    0.32
   2 -12 -11   -0.07    0.18
  -2  12  11   -0.07    0.22
   1 -12 -11    2.28    0.30
  -1  12  11    2.25    0.34
   0 -12 -11    0.59    0.20
  -1 -12 -11    1.03    0.23
  -2 -12 -11   -0.01    0.19
  -3 -12 -11    0.06    0.21
  -4 -12 -11    2.49    0.35
   4  12  11    2.56    0.35
  -5 -12 -11    0.02    0.25
   5  12  11    0.37    0.27
  -6 -12 -11    0.46    0.33
   6  12  11    0.05    0.26
  -7 -12 -11   -0.32    0.41
   7  12  11    0.05    0.31
   7 -13 -11   -0.05    0.35
   6 -13 -11    0.40    0.28
  -6  13  11   -0.14    0.36
   5 -13 -11   -0.01    0.24
  -5  13  11    0.20    0.31
   4 -13 -11    0.16    0.23
  -4  13  11   -0.08    0.28
   3 -13 -11    0.15    0.21
  -3  13  11    0.13    0.31
   2 -13 -11    2.81    0.38
  -2  13  11    4.04    0.44
   1 -13 -11    0.46    0.22
  -1  13  11    0.75    0.32
   0 -13 -11    1.93    0.29
  -1 -13 -11    1.13    0.24
  -2 -13 -11    0.90    0.25
  -3 -13 -11    0.10    0.24
  -4 -13 -11    1.95    0.36
  -5 -13 -11    0.39    0.32
   5  13  11    0.32    0.30
  -6 -13 -11   -0.08    0.36
   6  13  11    0.05    0.30
   6 -14 -11    0.25    0.32
  -6  14  11   -0.06    0.43
   5 -14 -11    0.03    0.30
  -5  14  11   -0.18    0.35
   4 -14 -11    0.05    0.25
  -4  14  11    0.24    0.34
   3 -14 -11    1.06    0.27
  -3  14  11    0.72    0.33
   2 -14 -11    1.76    0.30
  -2  14  11    1.57    0.35
   1 -14 -11    0.05    0.23
  -1  14  11   -0.24    0.30
   0 -14 -11    0.27    0.22
  -1 -14 -11    2.13    0.33
  -2 -14 -11    0.12    0.24
  -3 -14 -11    0.50    0.28
  -4 -14 -11    0.09    0.29
  -5 -14 -11    0.50    0.31
   5 -15 -11   -0.09    0.30
  -5  15  11   -0.16    0.45
   4 -15 -11   -0.03    0.28
  -4  15  11    0.09    0.36
   3 -15 -11    0.12    0.27
  -3  15  11    0.43    0.37
   2 -15 -11    0.26    0.26
  -2  15  11    1.41    0.47
   1 -15 -11    1.04    0.29
   0 -15 -11    0.06    0.26
  -1 -15 -11    1.58    0.32
  -2 -15 -11    0.12    0.31
  -3 -15 -11   -0.10    0.29
  -4 -15 -11    0.48    0.32
  -4  16  11   -0.24    0.45
   3 -16 -11    0.48    0.34
  -3  16  11   -0.33    0.39
   2 -16 -11    0.68    0.29
  -2  16  11    0.30    0.41
   1 -16 -11   -0.06    0.28
   0 -16 -11    0.06    0.29
  -1 -16 -11    0.38    0.30
  -2 -16 -11    0.19    0.32
  -1 -16  12   -0.14    0.32
   0  16 -12    0.65    0.36
  -1  16 -12   -0.17    0.33
  -2  16 -12   -0.01    0.34
  -4 -15  12    0.07    0.36
  -3 -15  12    0.72    0.35
  -2 -15  12   -0.14    0.30
  -1 -15  12    1.86    0.37
   0 -15  12    0.01    0.27
  -1  15 -12    0.18    0.30
  -2  15 -12    0.17    0.31
  -3  15 -12    0.88    0.34
  -4  15 -12   -0.02    0.35
   4 -15  12   -0.07    0.33
   5  14 -12    2.14    0.43
  -5 -14  12    1.64    0.40
  -4 -14  12    0.20    0.31
  -3 -14  12   -0.20    0.28
  -2 -14  12    0.01    0.26
  -1 -14  12    0.19    0.20
   0 -14  12    0.30    0.26
  -1  14 -12    0.82    0.30
  -2  14 -12   -0.06    0.27
  -3  14 -12    0.43    0.28
   3 -14  12    0.26    0.24
  -4  14 -12    0.33    0.30
   4 -14  12    0.14    0.27
  -5  14 -12    0.10    0.37
   5 -14  12    0.67    0.31
   6  13 -12    0.25    0.35
  -6 -13  12   -0.20    0.33
   5  13 -12    0.29    0.31
  -5 -13  12    0.14    0.30
   4  13 -12    1.50    0.33
  -4 -13  12    2.14    0.36
   3  13 -12    0.32    0.27
  -3 -13  12    0.08    0.26
  -2 -13  12    0.04    0.24
  -1 -13  12    0.11    0.24
   0 -13  12    4.09    0.47
   1 -13  12   -0.25    0.21
  -2  13 -12    0.20    0.25
  -3  13 -12    0.41    0.25
   3 -13  12    0.14    0.21
  -4  13 -12    0.14    0.27
   4 -13  12   -0.13    0.27
  -5  13 -12    0.32    0.30
   5 -13  12    0.77    0.28
   6 -13  12    0.15    0.31
   7  12 -12    0.36    0.37
  -7 -12  12    1.06    0.37
   6  12 -12    0.04    0.34
  -6 -12  12    0.14    0.30
   5  12 -12    0.30    0.28
  -5 -12  12    0.10    0.26
   4  12 -12    1.34    0.28
  -4 -12  12    0.49    0.26
   3  12 -12    0.25    0.22
  -3 -12  12    0.35    0.23
   2  12 -12    0.61    0.21
  -2 -12  12    0.70    0.24
  -1 -12  12    0.98    0.25
   0 -12  12    1.79    0.29
   1 -12  12    0.35    0.22
  -2  12 -12    0.61    0.24
   2 -12  12    0.71    0.20
  -3  12 -12    1.30    0.27
   3 -12  12    0.96    0.23
  -4  12 -12    0.19    0.24
   4 -12  12   -0.17    0.21
  -5  12 -12    0.85    0.32
   5 -12  12    0.53    0.26
   6 -12  12   -0.10    0.27
   7 -12  12    0.61    0.38
   7  11 -12    1.63    0.39
  -7 -11  12    1.74    0.36
   6  11 -12    0.06    0.28
  -6 -11  12   -0.02    0.27
   5  11 -12    0.20    0.25
  -5 -11  12    0.46    0.25
   4  11 -12   -0.01    0.21
  -4 -11  12    0.18    0.23
   3  11 -12    4.73    0.44
  -3 -11  12    3.52    0.44
   2  11 -12    0.02    0.18
  -2 -11  12   -0.05    0.19
   1  11 -12   11.17    0.95
  -1 -11  12   10.63    0.97
   0 -11  12    0.41    0.20
   1 -11  12    1.28    0.25
  -2  11 -12    0.06    0.20
   2 -11  12   -0.19    0.15
  -3  11 -12    0.68    0.22
   3 -11  12    0.58    0.22
  -4  11 -12    0.00    0.22
   4 -11  12   -0.39    0.19
  -5  11 -12    0.00    0.26
   5 -11  12    0.17    0.22
   6 -11  12    0.53    0.27
   7 -11  12    0.76    0.30
   8  10 -12    1.10    0.39
  -8 -10  12    1.53    0.38
   7  10 -12    0.27    0.30
  -7 -10  12    0.15    0.28
   6  10 -12   -0.14    0.26
  -6 -10  12    0.19    0.24
   5  10 -12    0.00    0.23
  -5 -10  12    0.16    0.22
   4  10 -12    0.17    0.20
  -4 -10  12    0.02    0.20
   3  10 -12    0.86    0.21
  -3 -10  12    0.24    0.20
   2  10 -12    0.62    0.19
  -2 -10  12    0.69    0.18
   1  10 -12    1.21    0.21
  -1 -10  12    0.86    0.22
   0  10 -12   16.82    1.41
   0 -10  12   16.64    1.42
  -1  10 -12    1.31    0.21
   1 -10  12    0.60    0.21
   1 -10  12    0.93    0.17
   2 -10  12    0.70    0.19
   2 -10  12    0.98    0.21
  -3  10 -12    1.76    0.26
   3 -10  12    1.26    0.23
  -4  10 -12    0.67    0.22
   4 -10  12    0.34    0.22
  -5  10 -12   -0.12    0.25
   5 -10  12   -0.10    0.20
   6 -10  12    1.12    0.27
   7 -10  12    0.18    0.30
   8   9 -12    1.55    0.37
  -8  -9  12    0.95    0.32
   7   9 -12    0.06    0.27
  -7  -9  12   -0.14    0.24
   6   9 -12   -0.09    0.22
  -6  -9  12   -0.12    0.21
   5   9 -12    0.37    0.22
  -5  -9  12    0.68    0.22
   4   9 -12    0.52    0.20
  -4  -9  12    0.86    0.21
   3   9 -12    0.37    0.18
  -3  -9  12    0.81    0.20
   2   9 -12    0.86    0.18
  -2  -9  12    0.53    0.19
   1   9 -12    9.13    0.79
  -1  -9  12    9.03    0.81
   0   9 -12   21.37    1.76
   0  -9  12   20.64    1.76
  -1   9 -12    8.72    0.73
   1  -9  12    7.50    0.73
   1  -9  12    8.45    0.72
  -2   9 -12    6.91    0.62
   2  -9  12    6.90    0.63
   2  -9  12    6.90    0.62
  -3   9 -12    0.28    0.20
   3  -9  12    0.06    0.15
  -4   9 -12    1.04    0.25
   4  -9  12    1.33    0.22
   5  -9  12    0.42    0.20
   6  -9  12    0.44    0.23
   7  -9  12    1.20    0.29
   8  -9  12    0.44    0.29
  -9  -8  12    1.57    0.39
   8   8 -12    0.14    0.29
  -8  -8  12    0.30    0.28
   7   8 -12   -0.05    0.24
  -7  -8  12    0.00    0.27
   6   8 -12    0.35    0.22
  -6  -8  12    0.06    0.20
   5   8 -12    0.88    0.21
  -5  -8  12    0.30    0.20
   4   8 -12    5.07    0.47
  -4  -8  12    4.34    0.47
   3   8 -12    4.47    0.44
  -3  -8  12    4.34    0.44
   2   8 -12    0.01    0.15
  -2  -8  12    0.00    0.12
   1   8 -12   24.71    2.05
  -1  -8  12   24.50    2.05
   0   8 -12    0.14    0.16
   0  -8  12    0.11    0.15
  -1   8 -12    0.17    0.15
   1  -8  12    0.13    0.13
   1  -8  12    0.14    0.14
  -2   8 -12    1.41    0.23
   2  -8  12    1.95    0.23
   2  -8  12    1.96    0.24
  -3   8 -12    0.24    0.18
   3  -8  12    0.14    0.16
   3  -8  12    0.20    0.15
  -4   8 -12    0.09    0.19
   4  -8  12    0.09    0.17
   5  -8  12    0.23    0.18
   6  -8  12    0.18    0.20
   7  -8  12    0.92    0.26
   8  -8  12    0.46    0.28
   9   7 -12    0.33    0.33
  -9  -7  12    0.44    0.31
   8   7 -12    0.35    0.27
  -8  -7  12    0.52    0.27
   7   7 -12    0.31    0.25
  -7  -7  12    0.13    0.17
   6   7 -12    0.08    0.20
  -6  -7  12   -0.13    0.18
   5   7 -12    0.21    0.18
  -5  -7  12    0.73    0.20
   4   7 -12    4.38    0.42
  -4  -7  12    3.83    0.42
   3   7 -12    0.50    0.17
  -3  -7  12    0.77    0.18
   2   7 -12   16.03    1.26
  -2  -7  12   13.81    1.26
   1   7 -12   17.02    1.43
  -1  -7  12   17.03    1.43
   0   7 -12    4.46    0.43
   0  -7  12    4.51    0.44
   0  -7  12    4.94    0.42
  -1   7 -12    0.84    0.17
   1  -7  12    1.52    0.19
   1  -7  12    0.99    0.16
   2  -7  12    9.58    0.91
   2  -7  12   11.49    0.92
   2  -7  12   10.87    0.91
  -3   7 -12    0.45    0.16
   3  -7  12    0.43    0.16
   3  -7  12    0.72    0.16
  -4   7 -12    1.58    0.24
   4  -7  12    1.81    0.23
   4  -7  12    1.49    0.24
   5  -7  12    0.46    0.19
   6  -7  12    3.60    0.39
   7  -7  12    0.29    0.22
  -8   7 -12    0.19    0.28
   9   6 -12   -0.05    0.31
  -9  -6  12   -0.04    0.28
   8   6 -12    1.51    0.34
  -8  -6  12    1.98    0.32
   7   6 -12   -0.05    0.22
  -7  -6  12    0.00    0.19
   6   6 -12    0.89    0.22
  -6  -6  12    0.85    0.21
   5   6 -12    0.34    0.18
  -5  -6  12    0.12    0.17
   4   6 -12    9.70    0.83
  -4  -6  12    9.35    0.82
   3   6 -12   11.25    0.94
  -3  -6  12   10.72    0.95
   2   6 -12    5.21    0.44
  -2  -6  12    4.32    0.43
   1   6 -12    2.14    0.26
  -1  -6  12    2.51    0.27
   0   6 -12   10.58    0.91
   0  -6  12   10.90    0.91
   0  -6  12   10.64    0.89
   1  -6  12    4.94    0.45
   1  -6  12    5.80    0.48
   1  -6  12    4.85    0.47
   2  -6  12    1.43    0.19
   2  -6  12    1.11    0.18
   2  -6  12    1.39    0.19
   3  -6  12   22.58    1.89
   3  -6  12   22.97    1.89
  -4   6 -12    2.24    0.28
   4  -6  12    3.29    0.30
   4  -6  12    2.23    0.28
   5  -6  12   -0.13    0.17
   5  -6  12    0.17    0.16
   6  -6  12    4.76    0.50
   6  -6  12    5.21    0.50
  -7   6 -12    0.54    0.23
  -8   6 -12   -0.09    0.25
  -9   6 -12   -0.13    0.30
 -10  -5  12    0.32    0.35
   9   5 -12   -0.04    0.29
  -9  -5  12    0.25    0.28
   8   5 -12    1.53    0.32
  -8  -5  12    1.50    0.29
   7   5 -12   -0.04    0.21
  -7  -5  12   -0.04    0.19
   6   5 -12    0.74    0.22
  -6  -5  12    0.49    0.19
   5   5 -12    1.46    0.23
  -5  -5  12    1.54    0.24
   4   5 -12    3.00    0.32
  -4  -5  12    2.83    0.31
   3   5 -12    1.31    0.22
  -3  -5  12    2.08    0.21
   2   5 -12    2.98    0.30
  -2  -5  12    2.55    0.29
   1   5 -12   12.03    1.02
  -1  -5  12   11.94    1.01
   0   5 -12   -0.08    0.11
   0   5 -12    0.02    0.09
   0  -5  12    0.08    0.11
   1  -5  12    0.65    0.13
   1  -5  12    0.42    0.12
   1  -5  12    0.84    0.15
   2  -5  12    1.26    0.16
   2  -5  12    1.14    0.17
   2  -5  12    0.31    0.13
   3  -5  12    3.36    0.33
   3  -5  12    2.64    0.31
   3  -5  12    3.57    0.34
   4  -5  12    1.55    0.23
   4  -5  12    1.53    0.21
   5  -5  12    0.76    0.18
   5  -5  12    0.26    0.18
  -6   5 -12    2.35    0.30
   6  -5  12    2.11    0.28
  -7   5 -12    2.09    0.30
   7  -5  12    2.18    0.29
  -8   5 -12   -0.36    0.23
  -9   5 -12    0.34    0.29
  10   4 -12   -0.01    0.36
 -10  -4  12   -0.29    0.33
   9   4 -12   -0.09    0.28
  -9  -4  12    0.17    0.26
   8   4 -12    0.12    0.25
  -8  -4  12   -0.10    0.22
   7   4 -12    0.19    0.21
  -7  -4  12    0.26    0.19
   6   4 -12    1.13    0.22
  -6  -4  12    0.71    0.17
   5   4 -12    7.41    0.65
  -5  -4  12    7.02    0.65
   4   4 -12    2.94    0.29
  -4  -4  12    2.26    0.27
   3   4 -12    5.87    0.52
  -3  -4  12    5.62    0.51
   2   4 -12    8.16    0.69
  -2  -4  12    7.70    0.69
   1   4 -12   33.75    2.85
   1   4 -12   35.08    2.83
  -1  -4  12   34.49    2.85
   0   4 -12    0.15    0.08
   0  -4  12    0.21    0.12
   0  -4  12    0.14    0.11
  -1   4 -12    4.02    0.41
   1  -4  12    5.37    0.43
   1  -4  12    4.90    0.43
  -2   4 -12    3.38    0.36
   2  -4  12    4.67    0.37
   2  -4  12    3.61    0.36
  -3   4 -12   16.83    1.39
   3  -4  12   16.84    1.39
   3  -4  12   16.14    1.39
  -4   4 -12   15.96    1.37
   4  -4  12   16.60    1.37
  -5   4 -12    4.64    0.43
   5  -4  12    4.07    0.42
  -6   4 -12   11.36    0.96
   6  -4  12   10.62    0.96
  -7   4 -12    0.11    0.20
   7  -4  12    0.35    0.20
  -8   4 -12    0.03    0.22
   8  -4  12   -0.03    0.23
  -9   4 -12   -0.53    0.27
  10   3 -12   -0.12    0.34
 -10  -3  12    0.43    0.37
   9   3 -12   -0.12    0.27
  -9  -3  12    0.04    0.26
   8   3 -12    6.93    0.65
  -8  -3  12    6.40    0.64
   7   3 -12    0.20    0.21
  -7  -3  12    0.31    0.19
   6   3 -12    0.12    0.17
  -6  -3  12    0.38    0.17
   5   3 -12   14.57    1.20
  -5  -3  12   13.67    1.19
   4   3 -12    2.06    0.25
  -4  -3  12    1.92    0.24
   3   3 -12    1.96    0.22
  -3  -3  12    1.74    0.22
   2   3 -12    0.97    0.17
  -2  -3  12    1.39    0.17
   1   3 -12    1.08    0.12
   1   3 -12    0.94    0.16
  -1  -3  12    1.02    0.15
   0   3 -12   11.04    0.96
   0  -3  12   11.78    0.97
   0  -3  12   12.25    0.98
  -1   3 -12    0.37    0.11
   1  -3  12    0.82    0.14
   1  -3  12    0.50    0.12
  -2   3 -12    0.11    0.12
   2  -3  12    0.41    0.13
   2  -3  12    0.37    0.11
  -3   3 -12   19.94    1.76
   3  -3  12   21.42    1.76
   3  -3  12   22.62    1.77
  -4   3 -12    5.20    0.44
   4  -3  12    4.17    0.44
  -5   3 -12    1.88    0.23
   5  -3  12    1.27    0.22
  -6   3 -12    3.08    0.35
   6  -3  12    3.36    0.36
  -7   3 -12    0.02    0.19
   7  -3  12    0.05    0.18
  -8   3 -12    0.27    0.23
   8  -3  12   -0.09    0.20
  -9   3 -12   -0.24    0.27
   9  -3  12    0.18    0.24
  10   2 -12    0.52    0.38
 -10  -2  12    0.25    0.31
   9   2 -12    0.19    0.27
  -9  -2  12   -0.22    0.23
   8   2 -12    3.89    0.43
  -8  -2  12    3.60    0.42
   7   2 -12    2.17    0.29
  -7  -2  12    1.74    0.27
   6   2 -12    0.62    0.19
  -6  -2  12    0.57    0.18
   5   2 -12    0.19    0.15
  -5  -2  12    0.11    0.14
   4   2 -12    4.65    0.42
  -4  -2  12    4.27    0.40
   3   2 -12    0.91    0.16
  -3  -2  12    0.69    0.14
   2   2 -12    2.91    0.28
  -2  -2  12    2.55    0.27
   1   2 -12   22.12    1.77
  -1  -2  12   20.89    1.78
  -1  -2  12   21.15    1.78
   0   2 -12    0.94    0.12
   0  -2  12    0.82    0.13
   0  -2  12    0.79    0.13
  -1   2 -12    7.73    0.71
   1  -2  12    8.85    0.72
   1  -2  12    8.82    0.73
  -2   2 -12    2.28    0.26
   2  -2  12    2.70    0.25
   2  -2  12    2.83    0.28
  -3   2 -12    0.54    0.14
   3  -2  12    0.86    0.15
   3  -2  12    0.66    0.12
  -4   2 -12    0.69    0.16
   4  -2  12    1.08    0.18
  -5   2 -12    0.89    0.18
   5  -2  12    0.86    0.18
  -6   2 -12   -0.04    0.16
   6  -2  12    0.25    0.17
  -7   2 -12    0.13    0.19
   7  -2  12   -0.05    0.20
  -8   2 -12    0.32    0.22
   8  -2  12    0.40    0.21
  -9   2 -12    0.20    0.26
   9  -2  12   -0.01    0.27
  10  -2  12    0.47    0.35
  10   1 -12   -0.07    0.36
 -10  -1  12    0.28    0.36
   9   1 -12   -0.05    0.28
  -9  -1  12   -0.02    0.24
   8   1 -12    1.51    0.28
  -8  -1  12    1.06    0.26
   7   1 -12    1.57    0.26
  -7  -1  12    1.79    0.26
   6   1 -12    0.74    0.19
  -6  -1  12    0.80    0.19
   5   1 -12    1.04    0.19
  -5  -1  12    1.06    0.18
   4   1 -12    4.91    0.46
  -4  -1  12    5.12    0.46
   3   1 -12   -0.06    0.11
  -3  -1  12    0.10    0.11
   2   1 -12    0.09    0.11
   2   1 -12    0.01    0.07
  -2  -1  12    0.16    0.10
   1   1 -12    3.35    0.30
  -1  -1  12    3.51    0.31
  -1  -1  12    3.22    0.32
   0   1 -12   36.90    2.95
   0  -1  12   34.58    2.96
   0  -1  12   36.18    2.96
  -1   1 -12    1.38    0.16
   1  -1  12    1.44    0.18
   1  -1  12    1.56    0.17
  -2   1 -12    0.17    0.11
   2  -1  12    0.01    0.08
   2  -1  12    0.01    0.08
  -3   1 -12    2.71    0.29
   3  -1  12    3.22    0.31
  -4   1 -12    6.48    0.57
   4  -1  12    6.23    0.57
  -5   1 -12    3.93    0.41
   5  -1  12    4.63    0.42
  -6   1 -12    0.05    0.16
   6  -1  12   -0.17    0.15
  -7   1 -12    0.35    0.18
   7  -1  12    0.36    0.19
  -8   1 -12    0.89    0.25
   8  -1  12    1.37    0.25
  -9   1 -12    0.11    0.26
   9  -1  12   -0.10    0.24
  10  -1  12    0.34    0.31
  10   0 -12    0.07    0.36
 -10   0  12    0.00    0.33
   9   0 -12    0.28    0.25
  -9   0  12    0.58    0.27
   8   0 -12    0.09    0.21
  -8   0  12    0.02    0.21
   7   0 -12    0.20    0.21
  -7   0  12    0.04    0.18
   6   0 -12    4.01    0.39
  -6   0  12    3.55    0.39
   5   0 -12    0.15    0.14
  -5   0  12    0.19    0.14
   4   0 -12    6.37    0.55
  -4   0  12    5.81    0.54
   3   0 -12    2.00    0.22
  -3   0  12    1.78    0.21
   2   0 -12    1.62    0.15
   2   0 -12    1.17    0.18
  -2   0  12    1.20    0.17
   1   0 -12   10.07    0.82
  -1   0  12    9.27    0.83
  -1   0  12    9.81    0.82
   0   0 -12    0.17    0.08
   0   0  12    0.19    0.11
   0   0  12    0.36    0.09
  -1   0 -12    2.21    0.25
   1   0  12    2.95    0.25
   1   0  12    2.84    0.28
  -2   0 -12    7.21    0.71
   2   0  12    8.69    0.72
   2   0  12    8.81    0.70
  -3   0 -12    1.74    0.21
   3   0  12    1.72    0.21
  -4   0 -12    2.50    0.27
   4   0  12    2.60    0.29
  -5   0 -12    0.36    0.15
   5   0  12    0.10    0.15
  -6   0 -12   10.07    0.88
   6   0  12   10.14    0.88
  -7   0 -12    0.60    0.20
   7   0  12    0.13    0.21
  -8   0 -12    0.37    0.22
   8   0  12    0.45    0.21
  -9   0 -12    0.27    0.26
   9   0  12    0.24    0.28
  10   0  12    0.63    0.32
 -10   1  12   -0.01    0.31
   9  -1 -12    0.13    0.27
  -9   1  12    0.17    0.25
   8  -1 -12    0.17    0.21
  -8   1  12    0.07    0.21
   7  -1 -12    2.69    0.32
  -7   1  12    2.60    0.32
   6  -1 -12    0.29    0.16
  -6   1  12    0.60    0.17
   5  -1 -12    2.50    0.25
  -5   1  12    1.65    0.24
   4  -1 -12    5.52    0.49
  -4   1  12    5.21    0.49
   3  -1 -12    2.10    0.19
   3  -1 -12    1.75    0.22
  -3   1  12    1.81    0.22
   2  -1 -12   -0.02    0.08
   2  -1 -12    0.00    0.11
  -2   1  12   -0.01    0.09
   1  -1 -12    0.56    0.10
  -1   1  12    0.30    0.10
  -1   1  12    0.66    0.11
   0  -1 -12    0.72    0.12
   0   1  12    0.67    0.11
   0   1  12    0.43    0.13
  -1  -1 -12    1.46    0.18
   1   1  12    1.45    0.20
   1   1  12    1.76    0.17
  -2  -1 -12    2.85    0.29
   2   1  12    2.90    0.30
   2   1  12    3.00    0.26
  -3  -1 -12   11.44    0.96
   3   1  12   11.15    0.96
  -4  -1 -12    0.93    0.17
   4   1  12    0.95    0.18
  -5  -1 -12    1.47    0.21
   5   1  12    1.26    0.21
  -6  -1 -12   -0.05    0.16
   6   1  12    0.33    0.17
  -7  -1 -12    0.19    0.19
   7   1  12    0.24    0.19
  -8  -1 -12    1.27    0.27
   8   1  12    1.24    0.26
  -9  -1 -12    0.17    0.26
   9   1  12    0.03    0.24
  10   1  12   -0.22    0.29
 -10   2  12    0.02    0.32
  -9   2  12    0.30    0.28
   8  -2 -12    0.76    0.26
  -8   2  12    0.44    0.23
   7  -2 -12    1.06    0.24
  -7   2  12    1.10    0.20
   6  -2 -12    3.42    0.37
  -6   2  12    3.83    0.39
   5  -2 -12    9.34    0.80
  -5   2  12    9.22    0.81
   4  -2 -12    3.09    0.29
  -4   2  12    2.41    0.29
   3  -2 -12    3.61    0.35
   3  -2 -12    3.87    0.33
  -3   2  12    3.36    0.34
  -2   2  12    4.23    0.41
  -2   2  12    4.79    0.41
   1  -2 -12    5.04    0.44
  -1   2  12    5.32    0.44
  -1   2  12    4.56    0.45
   0  -2 -12   -0.02    0.08
   0   2  12   -0.06    0.10
   0   2  12   -0.11    0.08
  -1  -2 -12    6.67    0.56
   1   2  12    6.60    0.54
   1   2  12    5.76    0.56
  -2  -2 -12    0.43    0.12
   2   2  12    0.28    0.13
  -3  -2 -12   20.73    1.78
   3   2  12   22.19    1.79
  -4  -2 -12    0.30    0.13
   4   2  12    0.10    0.13
  -5  -2 -12    2.08    0.26
   5   2  12    2.40    0.28
  -6  -2 -12    2.92    0.30
   6   2  12    2.53    0.32
  -7  -2 -12   -0.03    0.18
   7   2  12   -0.02    0.19
  -8  -2 -12    0.09    0.22
   8   2  12   -0.03    0.20
  -9  -2 -12   -0.18    0.29
   9   2  12    0.96    0.26
 -10   3  12    0.54    0.34
  -9   3  12   -0.07    0.26
  -8   3  12    1.11    0.26
   7  -3 -12    2.03    0.29
  -7   3  12    2.65    0.30
   6  -3 -12    0.12    0.15
  -6   3  12   -0.05    0.17
   5  -3 -12   17.37    1.46
  -5   3  12   17.45    1.47
   4  -3 -12   18.95    1.57
   4  -3 -12   19.53    1.58
  -4   3  12   18.47    1.59
   3  -3 -12    6.96    0.66
   3  -3 -12    8.13    0.67
  -3   3  12    8.13    0.67
   2  -3 -12   -0.02    0.09
  -2   3  12   -0.03    0.11
  -2   3  12    0.04    0.10
   1  -3 -12    0.03    0.09
  -1   3  12   -0.02    0.08
  -1   3  12    0.16    0.10
   0  -3 -12    1.01    0.14
   0   3  12    1.18    0.14
   0   3  12    0.94    0.15
  -1  -3 -12    3.90    0.42
   1   3  12    4.76    0.43
   1   3  12    5.13    0.41
  -2  -3 -12   13.68    1.21
   2   3  12   15.24    1.21
  -3  -3 -12    7.50    0.66
   3   3  12    7.69    0.67
  -4  -3 -12    2.62    0.29
   4   3  12    2.69    0.30
  -5  -3 -12    0.13    0.15
   5   3  12    0.37    0.17
  -6  -3 -12    3.00    0.31
   6   3  12    2.30    0.31
  -7  -3 -12   -0.22    0.18
   7   3  12    0.16    0.18
  -8  -3 -12    0.02    0.22
   8   3  12    0.13    0.22
  -9  -3 -12    0.01    0.25
   9   3  12    0.03    0.28
 -10   4  12    0.15    0.35
  -9   4  12    0.25    0.29
  -8   4  12    0.30    0.25
  -7   4  12   -0.03    0.20
   6  -4 -12    0.22    0.15
  -6   4  12    0.38    0.19
   5  -4 -12    3.46    0.32
  -5   4  12    2.58    0.33
   4  -4 -12   34.54    2.91
   4  -4 -12   34.95    2.92
  -4   4  12   36.89    2.93
   3  -4 -12    3.72    0.33
   3  -4 -12    3.47    0.33
  -3   4  12    3.03    0.33
   2  -4 -12    0.14    0.11
  -2   4  12    0.00    0.10
  -2   4  12    0.10    0.10
   1  -4 -12    5.67    0.49
  -1   4  12    5.46    0.48
  -1   4  12    5.26    0.49
   0  -4 -12   24.45    2.10
   0   4  12   25.06    2.10
   0   4  12   27.27    2.11
  -1  -4 -12    0.53    0.13
   1   4  12    0.35    0.13
   1   4  12    0.64    0.10
  -2  -4 -12    3.88    0.38
   2   4  12    4.36    0.39
  -3  -4 -12    8.05    0.72
   3   4  12    8.46    0.72
  -4  -4 -12    5.02    0.45
   4   4  12    4.47    0.45
  -5  -4 -12    0.66    0.17
   5   4  12    0.46    0.18
  -6  -4 -12   -0.03    0.17
   6   4  12    0.06    0.17
  -7  -4 -12    0.75    0.23
   7   4  12    1.31    0.24
  -8  -4 -12   -0.12    0.22
   8   4  12    0.10    0.22
  -9  -4 -12    0.85    0.29
   9   4  12    0.58    0.28
  -9   5  12    0.07    0.29
  -8   5  12    0.21    0.24
  -7   5  12    0.61    0.22
  -6   5  12    0.04    0.18
   5  -5 -12    5.52    0.54
  -5   5  12    6.52    0.56
   4  -5 -12    2.31    0.25
   4  -5 -12    1.96    0.24
  -4   5  12    2.53    0.27
   3  -5 -12    8.37    0.72
   3  -5 -12    8.57    0.72
  -3   5  12    8.36    0.73
   2  -5 -12    0.18    0.12
  -2   5  12    0.29    0.11
  -2   5  12    0.04    0.11
   1  -5 -12   15.71    1.30
  -1   5  12   15.99    1.30
  -1   5  12   14.94    1.30
   0  -5 -12    8.16    0.70
   0   5  12    8.48    0.69
   0   5  12    7.48    0.70
  -1  -5 -12    0.80    0.15
   1   5  12    0.81    0.11
   1   5  12    0.58    0.14
  -2  -5 -12    0.34    0.13
   2   5  12    0.45    0.14
  -3  -5 -12   13.82    1.12
   3   5  12   12.69    1.12
  -4  -5 -12    0.93    0.18
   4   5  12    0.66    0.18
  -5  -5 -12    1.11    0.20
   5   5  12    1.04    0.21
  -6  -5 -12    2.17    0.29
   6   5  12    2.19    0.29
  -7  -5 -12    0.11    0.24
   7   5  12    0.46    0.20
  -8  -5 -12    0.10    0.24
   8   5  12    0.26    0.23
  -9  -5 -12    0.87    0.35
   9   5  12    0.21    0.26
  -9   6  12    0.41    0.32
  -8   6  12    0.34    0.27
  -7   6  12    0.47    0.23
  -6   6  12    0.94    0.23
   5  -6 -12    5.35    0.49
  -5   6  12    5.50    0.52
   4  -6 -12    4.40    0.42
   4  -6 -12    4.38    0.42
  -4   6  12    4.34    0.43
   3  -6 -12    0.28    0.13
   3  -6 -12    0.30    0.13
  -3   6  12   -0.01    0.13
   2  -6 -12    1.77    0.21
  -2   6  12    2.10    0.21
  -2   6  12    1.32    0.20
   1  -6 -12    3.17    0.31
  -1   6  12    3.18    0.31
  -1   6  12    3.08    0.31
   0  -6 -12   35.89    2.87
   0   6  12   33.86    2.86
   0   6  12   34.88    2.87
  -1  -6 -12    0.23    0.13
   1   6  12    0.12    0.13
  -2  -6 -12   12.69    1.07
   2   6  12   12.51    1.08
  -3  -6 -12   10.13    0.89
   3   6  12   10.49    0.89
  -4  -6 -12   -0.11    0.15
   4   6  12   -0.12    0.15
  -5  -6 -12   -0.07    0.16
   5   6  12    0.11    0.17
  -6  -6 -12    0.56    0.21
   6   6  12    1.05    0.22
  -7  -6 -12    0.02    0.21
   7   6  12    0.08    0.20
  -8  -6 -12    0.04    0.24
   8   6  12    0.24    0.24
  -9  -6 -12    0.06    0.34
  -9   7  12    0.00    0.34
  -8   7  12    0.10    0.27
  -7   7  12   -0.08    0.23
  -6   7  12    1.25    0.26
   5  -7 -12    0.17    0.17
  -5   7  12    0.06    0.18
   4  -7 -12   23.18    2.00
  -4   7  12   24.96    2.01
   3  -7 -12    1.06    0.17
   3  -7 -12    0.81    0.16
  -3   7  12    0.45    0.17
   2  -7 -12    5.78    0.52
  -2   7  12    6.47    0.54
  -2   7  12    5.32    0.52
   1  -7 -12    5.62    0.49
  -1   7  12    5.03    0.48
   0  -7 -12    0.12    0.15
   0   7  12   -0.05    0.13
   0   7  12   -0.50    0.10
  -1  -7 -12    2.20    0.26
   1   7  12    2.31    0.27
  -2  -7 -12   -0.06    0.14
   2   7  12    0.07    0.14
  -3  -7 -12    0.82    0.18
   3   7  12    0.85    0.20
  -4  -7 -12    9.50    0.82
   4   7  12    9.10    0.82
  -5  -7 -12    0.25    0.18
   5   7  12    0.34    0.18
  -6  -7 -12    0.81    0.22
   6   7  12    0.69    0.21
  -7  -7 -12    1.70    0.30
   7   7  12    1.91    0.30
  -8  -7 -12   -0.11    0.26
   8   7  12    0.18    0.26
  -8   8  12   -0.02    0.29
  -7   8  12    0.26    0.20
  -6   8  12    0.03    0.21
   5  -8 -12    0.65    0.20
  -5   8  12    0.67    0.18
   4  -8 -12    2.91    0.31
  -4   8  12    2.71    0.33
   3  -8 -12    9.10    0.79
  -3   8  12    9.02    0.80
   2  -8 -12    0.14    0.16
  -2   8  12    0.03    0.16
   1  -8 -12   25.86    2.07
  -1   8  12   24.15    2.06
  -1   8  12   24.73    2.06
   0  -8 -12    0.22    0.15
   0   8  12    0.15    0.14
   0   8  12    0.38    0.14
  -1  -8 -12    1.87    0.23
   1   8  12    2.31    0.27
  -2  -8 -12    1.15    0.20
   2   8  12    1.07    0.20
  -3  -8 -12    8.59    0.77
   3   8  12    8.92    0.77
  -4  -8 -12    4.93    0.48
   4   8  12    4.69    0.48
  -5  -8 -12    0.01    0.18
   5   8  12    0.15    0.18
  -6  -8 -12    0.26    0.22
   6   8  12    0.40    0.21
  -7  -8 -12    0.98    0.29
   7   8  12    0.55    0.26
  -8  -8 -12    0.42    0.29
   8   8  12    0.48    0.29
  -8   9  12    1.48    0.38
  -7   9  12    0.29    0.27
   6  -9 -12   -0.05    0.20
  -6   9  12    0.20    0.24
   5  -9 -12    2.98    0.31
  -5   9  12    2.03    0.33
   4  -9 -12   11.09    0.93
  -4   9  12   10.34    0.95
   3  -9 -12    0.00    0.17
  -3   9  12   -0.32    0.18
   2  -9 -12    4.23    0.41
  -2   9  12    3.88    0.41
   1  -9 -12    0.23    0.16
  -1   9  12    0.06    0.17
   0  -9 -12   16.70    1.35
   0   9  12   15.80    1.34
   0   9  12   15.49    1.34
  -1  -9 -12    0.06    0.16
   1   9  12   -0.10    0.14
  -2  -9 -12    0.10    0.17
   2   9  12    0.27    0.18
  -3  -9 -12    1.69    0.28
   3   9  12    2.94    0.31
  -4  -9 -12    1.21    0.24
   4   9  12    1.30    0.24
  -5  -9 -12    0.24    0.21
   5   9  12    0.01    0.19
  -6  -9 -12    0.89    0.25
   6   9  12    0.55    0.24
  -7  -9 -12    0.09    0.26
   7   9  12    0.45    0.26
  -8  -9 -12    0.17    0.30
   8   9  12   -0.22    0.33
  -8  10  12    0.48    0.36
  -7  10  12    0.28    0.30
   6 -10 -12   -0.04    0.21
  -6  10  12    0.00    0.24
   5 -10 -12   -0.03    0.21
  -5  10  12   -0.11    0.22
   4 -10 -12    0.38    0.21
  -4  10  12    0.30    0.22
   3 -10 -12    1.19    0.23
  -3  10  12    1.69    0.27
   2 -10 -12    0.14    0.17
  -2  10  12    0.15    0.19
   1 -10 -12    8.24    0.75
  -1  10  12    8.71    0.77
   0 -10 -12   -0.26    0.16
  -1 -10 -12    8.43    0.78
   1  10  12    9.02    0.77
  -2 -10 -12    5.86    0.56
   2  10  12    5.97    0.55
  -3 -10 -12    0.57    0.21
   3  10  12    1.14    0.22
  -4 -10 -12   -0.09    0.19
   4  10  12    0.17    0.22
  -5 -10 -12    0.19    0.22
   5  10  12   -0.09    0.20
  -6 -10 -12   -0.08    0.24
   6  10  12   -0.08    0.23
  -7 -10 -12    0.54    0.30
   7  10  12    0.72    0.33
  -7  11  12   -0.18    0.32
   6 -11 -12    1.26    0.26
  -6  11  12    0.50    0.29
   5 -11 -12    0.05    0.21
  -5  11  12    0.19    0.26
   4 -11 -12    0.39    0.20
  -4  11  12    0.09    0.23
   3 -11 -12    0.05    0.19
  -3  11  12    0.39    0.22
   2 -11 -12    0.01    0.18
  -2  11  12    0.35    0.20
   1 -11 -12    2.35    0.30
  -1  11  12    2.57    0.33
   0 -11 -12    5.37    0.52
  -1 -11 -12    0.09    0.18
  -2 -11 -12   -0.18    0.19
   2  11  12    0.11    0.20
  -3 -11 -12    2.88    0.35
   3  11  12    2.35    0.33
  -4 -11 -12    1.69    0.29
   4  11  12    2.10    0.29
  -5 -11 -12    0.24    0.25
   5  11  12    0.24    0.23
  -6 -11 -12    1.19    0.31
   6  11  12    1.17    0.33
  -7 -11 -12    1.73    0.36
   7  11  12    2.13    0.37
   7 -12 -12   -0.08    0.37
  -7  12  12   -0.33    0.34
   6 -12 -12    0.10    0.26
  -6  12  12   -0.01    0.32
   5 -12 -12    0.15    0.23
  -5  12  12    0.04    0.28
   4 -12 -12    0.10    0.21
  -4  12  12    0.16    0.25
   3 -12 -12    0.99    0.26
  -3  12  12    1.07    0.30
   2 -12 -12   -0.12    0.19
  -2  12  12    0.00    0.22
   1 -12 -12   -0.08    0.19
  -1  12  12    0.33    0.25
   0 -12 -12    0.40    0.20
  -1 -12 -12   -0.05    0.19
  -2 -12 -12    3.48    0.40
  -3 -12 -12    0.55    0.24
  -4 -12 -12    0.36    0.24
   4  12  12    0.20    0.25
  -5 -12 -12   -0.02    0.27
   5  12  12    0.59    0.26
  -6 -12 -12    3.04    0.42
   6  12  12    2.48    0.40
   7 -13 -12    0.15    0.33
   6 -13 -12    0.30    0.32
  -6  13  12    0.16    0.35
   5 -13 -12   -0.08    0.24
  -5  13  12   -0.40    0.32
   4 -13 -12    0.66    0.26
  -4  13  12    1.76    0.34
   3 -13 -12    0.04    0.21
  -3  13  12   -0.03    0.25
   2 -13 -12    0.25    0.22
  -2  13  12    0.37    0.27
   1 -13 -12    0.28    0.22
   0 -13 -12    0.25    0.21
  -1 -13 -12   -0.05    0.22
  -2 -13 -12    1.27    0.28
  -3 -13 -12    0.55    0.26
  -4 -13 -12   -0.02    0.27
  -5 -13 -12   -0.06    0.29
   5  13  12    0.04    0.29
   6  13  12    0.38    0.32
   6 -14 -12   -0.09    0.36
   5 -14 -12    0.62    0.30
  -5  14  12    0.39    0.36
   4 -14 -12    0.05    0.25
  -4  14  12   -0.13    0.33
   3 -14 -12    0.10    0.24
  -3  14  12    0.69    0.32
   2 -14 -12    0.46    0.25
  -2  14  12    0.32    0.33
   1 -14 -12    0.94    0.30
   0 -14 -12   -0.19    0.23
  -1 -14 -12   -0.15    0.27
  -2 -14 -12    0.09    0.26
  -3 -14 -12    0.83    0.30
  -4 -14 -12    0.06    0.29
   4 -15 -12    0.70    0.32
  -4  15  12    0.86    0.39
   3 -15 -12   -0.05    0.28
  -3  15  12   -0.45    0.39
   2 -15 -12   -0.15    0.27
  -2  15  12    0.64    0.41
   1 -15 -12    0.44    0.28
   0 -15 -12   -0.39    0.27
  -1 -15 -12    0.52    0.28
  -2 -15 -12    1.37    0.32
  -3 -15 -12    0.13    0.31
  -3  16  12    0.10    0.41
   1 -16 -12   -0.03    0.30
   0 -16 -12   -0.06    0.33
  -3 -15  13    0.65    0.37
  -2 -15  13   -0.11    0.32
  -1 -15  13    0.67    0.33
   0 -15  13    0.10    0.29
  -1  15 -13    1.03    0.36
  -2  15 -13    0.60    0.34
  -3  15 -13    0.04    0.34
  -4  15 -13   -0.04    0.36
   4 -15  13    0.04    0.48
   5  14 -13    0.29    0.35
  -4 -14  13    0.19    0.32
  -3 -14  13   -0.19    0.30
  -2 -14  13    1.26    0.33
  -1 -14  13    0.62    0.29
   0 -14  13    0.11    0.27
  -1  14 -13   -0.05    0.28
  -2  14 -13   -0.01    0.27
  -3  14 -13   -0.23    0.29
  -4  14 -13    0.47    0.33
   4 -14  13   -0.05    0.31
  -5  14 -13   -0.14    0.35
   5 -14  13    0.20    0.33
   6  13 -13    0.07    0.36
   5  13 -13    0.19    0.32
  -5 -13  13    0.12    0.33
   4  13 -13   -0.08    0.27
  -4 -13  13    0.05    0.29
   3  13 -13   -0.08    0.28
  -3 -13  13    0.07    0.27
  -2 -13  13    2.91    0.40
  -1 -13  13    0.08    0.25
   0 -13  13    0.42    0.25
   1 -13  13    0.02    0.23
  -2  13 -13    0.34    0.29
  -3  13 -13    0.50    0.28
   3 -13  13    0.20    0.23
  -4  13 -13    0.23    0.28
   4 -13  13    0.02    0.27
  -5  13 -13   -0.37    0.35
   5 -13  13    0.12    0.28
   6 -13  13    0.09    0.32
   6  12 -13    0.27    0.33
  -6 -12  13    0.47    0.32
   5  12 -13    0.77    0.33
  -5 -12  13   -0.01    0.28
   4  12 -13    0.38    0.29
  -4 -12  13    0.26    0.26
   3  12 -13    1.90    0.32
  -3 -12  13    2.91    0.36
   2  12 -13    0.75    0.26
  -2 -12  13    0.55    0.25
  -1 -12  13    1.54    0.29
   0 -12  13    0.14    0.22
   1 -12  13    1.50    0.28
  -2  12 -13    0.05    0.22
  -3  12 -13    0.20    0.24
   3 -12  13    0.06    0.20
  -4  12 -13    0.33    0.29
   4 -12  13    0.40    0.23
  -5  12 -13    0.69    0.31
   5 -12  13    0.82    0.27
   6 -12  13    0.16    0.30
   7  11 -13    0.36    0.35
  -7 -11  13    0.27    0.33
   6  11 -13    0.07    0.30
  -6 -11  13   -0.19    0.28
   5  11 -13    1.02    0.31
  -5 -11  13    0.40    0.27
   4  11 -13    0.06    0.22
  -4 -11  13    0.49    0.24
   3  11 -13    1.63    0.29
  -3 -11  13    2.50    0.32
   2  11 -13    0.25    0.22
  -2 -11  13   -0.01    0.16
   1  11 -13    0.24    0.20
  -1 -11  13    0.25    0.21
   0 -11  13    0.53    0.22
   1 -11  13    0.53    0.22
   2 -11  13    0.69    0.21
   2 -11  13    0.46    0.21
  -3  11 -13    0.13    0.22
   3 -11  13   -0.13    0.19
  -4  11 -13    0.41    0.27
   4 -11  13    0.36    0.21
   5 -11  13    1.68    0.30
   6 -11  13    0.48    0.28
   7 -11  13    0.01    0.31
  -8 -10  13   -0.05    0.45
   7  10 -13    0.04    0.32
  -7 -10  13    0.26    0.31
   6  10 -13    0.08    0.31
  -6 -10  13    0.01    0.26
   5  10 -13    0.06    0.23
  -5 -10  13   -0.03    0.17
   4  10 -13    0.25    0.21
  -4 -10  13   -0.13    0.20
   3  10 -13    0.45    0.20
  -3 -10  13    0.17    0.20
   2  10 -13   16.65    1.36
  -2 -10  13   15.18    1.36
   1  10 -13   -0.05    0.17
  -1 -10  13   -0.08    0.18
   0  10 -13    2.21    0.29
   0 -10  13    2.25    0.30
  -1  10 -13    0.47    0.20
   1 -10  13    0.63    0.20
   2 -10  13    2.71    0.34
   2 -10  13    2.98    0.32
  -3  10 -13    0.11    0.23
   3 -10  13    0.19    0.18
  -4  10 -13    0.51    0.26
   4 -10  13    1.53    0.26
   5 -10  13    0.09    0.22
   6 -10  13    0.46    0.25
   7 -10  13    0.16    0.29
   8   9 -13   -0.22    0.33
  -8  -9  13   -0.07    0.31
   7   9 -13    0.15    0.28
  -7  -9  13    0.12    0.26
   6   9 -13    0.54    0.26
  -6  -9  13    1.08    0.26
   5   9 -13    0.08    0.22
  -5  -9  13    0.09    0.22
   4   9 -13   -0.03    0.20
  -4  -9  13   -0.01    0.18
   3   9 -13    2.30    0.29
  -3  -9  13    2.05    0.30
   2   9 -13    7.33    0.63
  -2  -9  13    6.18    0.62
   1   9 -13    0.13    0.16
  -1  -9  13    0.09    0.18
   0   9 -13   11.92    1.08
   0  -9  13   13.67    1.10
  -1   9 -13    0.57    0.19
   1  -9  13    0.46    0.18
   1  -9  13    0.88    0.18
  -2   9 -13    1.79    0.25
   2  -9  13    1.90    0.28
   2  -9  13    1.77    0.24
  -3   9 -13    3.27    0.35
   3  -9  13    2.23    0.32
  -4   9 -13    0.19    0.19
   4  -9  13    0.13    0.18
   5  -9  13    4.92    0.50
   6  -9  13    1.16    0.27
   7  -9  13    0.00    0.29
   8  -9  13   -0.03    0.30
   8   8 -13    0.06    0.30
  -8  -8  13    0.35    0.30
   7   8 -13    1.81    0.33
  -7  -8  13    1.07    0.29
   6   8 -13    0.71    0.24
  -6  -8  13    0.42    0.23
   5   8 -13    1.64    0.26
  -5  -8  13    1.23    0.25
   4   8 -13    0.08    0.18
  -4  -8  13    0.43    0.19
   3   8 -13    0.91    0.21
  -3  -8  13    1.28    0.22
   2   8 -13    4.40    0.43
  -2  -8  13    4.23    0.44
   1   8 -13   18.71    1.47
  -1  -8  13   16.32    1.47
   0   8 -13   -0.12    0.16
   0  -8  13   -0.01    0.15
  -1   8 -13   17.83    1.40
   1  -8  13   16.02    1.39
   1  -8  13   16.16    1.40
  -2   8 -13    1.00    0.20
   2  -8  13    0.47    0.16
   2  -8  13    0.96    0.19
  -3   8 -13   -0.01    0.19
   3  -8  13   -0.18    0.14
   3  -8  13    0.12    0.15
  -4   8 -13    8.40    0.74
   4  -8  13    7.89    0.72
   5  -8  13    1.15    0.23
   6  -8  13   -0.01    0.21
   7  -8  13    0.08    0.23
  -8   8 -13    0.28    0.32
  -9  -7  13   -0.10    0.36
   8   7 -13   -0.08    0.28
  -8  -7  13   -0.03    0.26
   7   7 -13   -0.02    0.25
  -7  -7  13    0.15    0.23
   6   7 -13    4.43    0.45
  -6  -7  13    3.84    0.44
   5   7 -13   -0.23    0.18
  -5  -7  13   -0.21    0.19
   4   7 -13    0.05    0.18
  -4  -7  13    0.34    0.15
   3   7 -13    0.05    0.16
  -3  -7  13    0.12    0.16
   2   7 -13   36.27    3.06
  -2  -7  13   37.69    3.06
   1   7 -13    0.04    0.14
  -1  -7  13    0.08    0.15
   0   7 -13    3.59    0.35
   0  -7  13    3.22    0.35
  -1   7 -13    2.64    0.32
   1  -7  13    3.10    0.33
   1  -7  13    3.27    0.31
   2  -7  13    3.04    0.29
   2  -7  13    2.69    0.30
   2  -7  13    2.65    0.31
  -3   7 -13    0.12    0.15
   3  -7  13   -0.04    0.16
   3  -7  13    0.38    0.15
  -4   7 -13    1.81    0.29
   4  -7  13    1.68    0.23
   4  -7  13    1.53    0.23
   5  -7  13    1.08    0.21
   6  -7  13    1.96    0.29
  -7   7 -13   -0.02    0.24
  -8   7 -13    0.59    0.30
   9   6 -13    0.09    0.32
  -9  -6  13    0.28    0.31
   8   6 -13    1.24    0.32
  -8  -6  13    0.76    0.28
   7   6 -13    1.09    0.28
  -7  -6  13    1.03    0.26
   6   6 -13    6.93    0.66
  -6  -6  13    7.15    0.66
   5   6 -13    4.12    0.40
  -5  -6  13    3.18    0.36
   4   6 -13    0.07    0.16
  -4  -6  13    0.14    0.16
   3   6 -13    7.76    0.67
  -3  -6  13    7.13    0.67
   2   6 -13    5.00    0.49
  -2  -6  13    5.40    0.48
   1   6 -13   -0.03    0.13
  -1  -6  13   -0.05    0.13
   0   6 -13    0.01    0.14
   0   6 -13    0.15    0.13
   0  -6  13   -0.15    0.12
   1  -6  13    0.87    0.17
   1  -6  13    0.96    0.17
   1  -6  13    0.97    0.15
   2  -6  13   17.55    1.59
   2  -6  13   20.00    1.60
   2  -6  13   20.13    1.60
   3  -6  13    1.84    0.22
   3  -6  13    2.01    0.23
   3  -6  13    1.47    0.22
   4  -6  13    2.47    0.28
   4  -6  13    2.25    0.28
   5  -6  13    3.87    0.42
   5  -6  13    4.43    0.43
  -6   6 -13    0.63    0.22
   6  -6  13    0.68    0.23
  -7   6 -13   -0.21    0.22
  -8   6 -13    0.49    0.28
   9   5 -13   -0.05    0.31
  -9  -5  13    0.14    0.30
   8   5 -13   -0.27    0.26
  -8  -5  13    0.39    0.25
   7   5 -13    0.96    0.26
  -7  -5  13    1.09    0.25
   6   5 -13    2.08    0.28
  -6  -5  13    1.64    0.27
   5   5 -13    2.98    0.32
  -5  -5  13    2.15    0.30
   4   5 -13    1.90    0.25
  -4  -5  13    1.70    0.24
   3   5 -13   20.48    1.59
  -3  -5  13   17.69    1.59
   2   5 -13    1.44    0.22
  -2  -5  13    1.67    0.20
   1   5 -13    1.69    0.23
  -1  -5  13    2.17    0.24
   0   5 -13    0.29    0.11
   0   5 -13    0.32    0.14
   0  -5  13    0.51    0.14
  -1   5 -13    2.72    0.29
   1  -5  13    3.18    0.31
   1  -5  13    3.07    0.30
  -2   5 -13   -0.03    0.12
   2  -5  13    0.23    0.12
   2  -5  13    0.55    0.16
  -3   5 -13    4.13    0.41
   3  -5  13    4.62    0.44
   3  -5  13    4.40    0.42
  -4   5 -13   -0.22    0.17
   4  -5  13    0.05    0.15
  -5   5 -13    0.27    0.17
   5  -5  13    0.03    0.16
  -6   5 -13    0.19    0.19
   6  -5  13    0.31    0.21
  -7   5 -13   -0.20    0.21
   7  -5  13    0.10    0.20
  -8   5 -13    0.25    0.26
  -9   5 -13    0.05    0.32
   9   4 -13    0.44    0.30
  -9  -4  13    0.19    0.33
   8   4 -13   -0.09    0.25
  -8  -4  13    0.13    0.23
   7   4 -13    0.35    0.22
  -7  -4  13    0.14    0.20
   6   4 -13    0.85    0.22
  -6  -4  13    1.06    0.21
   5   4 -13    2.87    0.30
  -5  -4  13    1.88    0.28
   4   4 -13    2.38    0.25
  -4  -4  13    1.27    0.23
   3   4 -13    0.33    0.15
  -3  -4  13    0.62    0.16
   2   4 -13    0.14    0.14
  -2  -4  13    0.26    0.13
   1   4 -13    0.10    0.12
  -1  -4  13   -0.07    0.11
   0   4 -13    2.16    0.23
   0  -4  13    2.22    0.25
   0  -4  13    2.82    0.26
  -1   4 -13    6.67    0.62
   1  -4  13    6.99    0.64
   1  -4  13    8.14    0.64
  -2   4 -13    6.64    0.62
   2  -4  13    7.07    0.63
   2  -4  13    7.51    0.62
  -3   4 -13   -0.06    0.12
   3  -4  13    0.25    0.13
   3  -4  13    0.20    0.16
  -4   4 -13   27.40    2.35
   4  -4  13   29.49    2.36
  -5   4 -13    3.33    0.36
   5  -4  13    3.61    0.38
  -6   4 -13    0.03    0.18
   6  -4  13    0.21    0.20
  -7   4 -13    0.18    0.21
   7  -4  13   -0.11    0.20
  -8   4 -13   -0.06    0.25
   8  -4  13    0.15    0.26
  -9   4 -13    0.28    0.31
  10   3 -13   -0.17    0.36
 -10  -3  13    0.19    0.34
   9   3 -13    0.57    0.30
  -9  -3  13    0.51    0.28
   8   3 -13    0.10    0.25
  -8  -3  13    0.01    0.22
   7   3 -13    1.77    0.30
  -7  -3  13    1.69    0.27
   6   3 -13    7.08    0.63
  -6  -3  13    6.49    0.62
   5   3 -13    8.89    0.83
  -5  -3  13    9.91    0.83
   4   3 -13    0.07    0.14
  -4  -3  13    0.20    0.11
   3   3 -13   16.58    1.43
  -3  -3  13   17.48    1.43
   2   3 -13    6.38    0.57
  -2  -3  13    6.48    0.57
   1   3 -13    0.72    0.13
   1   3 -13    1.18    0.16
  -1  -3  13    0.85    0.15
   0   3 -13   -0.04    0.09
   0  -3  13   -0.06    0.11
   0  -3  13   -0.11    0.11
  -1   3 -13    0.01    0.10
   1  -3  13    0.02    0.10
   1  -3  13   -0.04    0.09
  -2   3 -13    8.14    0.69
   2  -3  13    7.81    0.70
   2  -3  13    8.10    0.69
  -3   3 -13   19.94    1.66
   3  -3  13   20.01    1.67
  -4   3 -13    0.25    0.15
   4  -3  13    0.37    0.15
  -5   3 -13   25.68    2.13
   5  -3  13   25.39    2.13
  -6   3 -13    0.78    0.20
   6  -3  13    0.55    0.20
  -7   3 -13    0.72    0.22
   7  -3  13    0.46    0.21
  -8   3 -13   -0.17    0.23
   8  -3  13   -0.17    0.22
  -9   3 -13   -0.11    0.28
   9  -3  13   -0.05    0.26
  10   2 -13   -0.20    0.39
 -10  -2  13    0.22    0.34
   9   2 -13   -0.19    0.29
  -9  -2  13    0.50    0.28
   8   2 -13    1.00    0.29
  -8  -2  13    0.18    0.22
   7   2 -13    0.05    0.21
  -7  -2  13    0.33    0.19
   6   2 -13    0.37    0.19
  -6  -2  13    0.15    0.17
   5   2 -13    1.22    0.20
  -5  -2  13    0.85    0.18
   4   2 -13    6.73    0.57
  -4  -2  13    5.82    0.56
   3   2 -13    8.26    0.68
  -3  -2  13    7.51    0.68
   2   2 -13    1.41    0.20
  -2  -2  13    1.73    0.20
   1   2 -13    0.24    0.08
  -1  -2  13    0.37    0.13
  -1  -2  13    0.15    0.10
   0   2 -13   -0.09    0.08
   0  -2  13    0.05    0.09
   0  -2  13   -0.09    0.11
  -1   2 -13    4.44    0.43
   1  -2  13    6.05    0.46
   1  -2  13    4.75    0.44
  -2   2 -13    0.46    0.13
   2  -2  13    0.50    0.14
   2  -2  13    0.22    0.10
  -3   2 -13   19.25    1.64
   3  -2  13   20.13    1.64
  -4   2 -13    0.66    0.16
   4  -2  13    0.72    0.17
  -5   2 -13    4.17    0.43
   5  -2  13    4.52    0.44
  -6   2 -13    0.04    0.17
   6  -2  13    0.35    0.18
  -7   2 -13    1.35    0.25
   7  -2  13    1.45    0.25
  -8   2 -13    0.01    0.22
   8  -2  13    0.01    0.22
  -9   2 -13    0.20    0.28
   9  -2  13    0.06    0.29
  10   1 -13    0.04    0.34
 -10  -1  13    0.35    0.33
   9   1 -13    0.03    0.28
  -9  -1  13    0.13    0.27
   8   1 -13    0.01    0.26
  -8  -1  13   -0.10    0.21
   7   1 -13   -0.09    0.19
  -7  -1  13   -0.11    0.18
   6   1 -13    0.68    0.20
  -6  -1  13    1.20    0.20
   5   1 -13    0.07    0.15
  -5  -1  13   -0.14    0.14
   4   1 -13   -0.13    0.13
  -4  -1  13    0.13    0.13
   3   1 -13    1.33    0.20
  -3  -1  13    1.41    0.19
   2   1 -13    3.64    0.33
  -2  -1  13    3.11    0.32
   1   1 -13    2.41    0.23
  -1  -1  13    2.65    0.26
  -1  -1  13    2.24    0.25
   0   1 -13    4.42    0.39
   0  -1  13    4.43    0.40
   0  -1  13    4.26    0.39
  -1   1 -13    0.05    0.09
   1  -1  13    0.11    0.09
   1  -1  13    0.02    0.12
  -2   1 -13    1.30    0.19
   2  -1  13    1.85    0.22
   2  -1  13    1.88    0.18
  -3   1 -13    0.05    0.14
   3  -1  13    0.11    0.13
  -4   1 -13    3.14    0.33
   4  -1  13    3.24    0.34
  -5   1 -13   -0.07    0.14
   5  -1  13   -0.07    0.15
  -6   1 -13    1.01    0.20
   6  -1  13    0.83    0.21
  -7   1 -13   -0.14    0.19
   7  -1  13   -0.04    0.19
  -8   1 -13   -0.10    0.23
   8  -1  13    0.02    0.24
  -9   1 -13   -0.02    0.27
   9  -1  13   -0.09    0.25
  10   0 -13    1.13    0.35
 -10   0  13    0.14    0.34
   9   0 -13   -0.03    0.28
  -9   0  13    0.22    0.27
   8   0 -13    0.10    0.22
  -8   0  13    0.24    0.21
   7   0 -13    0.57    0.21
  -7   0  13    0.66    0.20
   6   0 -13    1.96    0.24
  -6   0  13    1.09    0.22
   5   0 -13    0.96    0.19
  -5   0  13    1.02    0.19
   4   0 -13    0.28    0.14
  -4   0  13    0.04    0.13
   3   0 -13    5.31    0.47
  -3   0  13    4.99    0.47
   2   0 -13    0.03    0.08
   2   0 -13    0.16    0.12
  -2   0  13    0.11    0.10
   1   0 -13    0.07    0.08
  -1   0  13    0.15    0.11
  -1   0  13    0.08    0.10
   0   0 -13    2.14    0.23
   0   0  13    2.11    0.23
   0   0  13    2.71    0.25
  -1   0 -13   13.34    1.20
   1   0  13   14.19    1.21
   1   0  13   15.51    1.20
  -2   0 -13    0.64    0.13
   2   0  13    0.85    0.13
   2   0  13    0.29    0.14
  -3   0 -13    0.91    0.16
   3   0  13    0.96    0.17
  -4   0 -13   13.40    1.09
   4   0  13   12.31    1.10
  -5   0 -13    0.76    0.18
   5   0  13    0.94    0.19
  -6   0 -13    3.33    0.32
   6   0  13    1.97    0.30
  -7   0 -13    0.01    0.19
   7   0  13    0.01    0.19
  -8   0 -13    0.13    0.22
   8   0  13    0.28    0.23
  -9   0 -13   -0.11    0.28
   9   0  13   -0.02    0.26
 -10   1  13    1.05    0.41
   9  -1 -13    0.01    0.27
  -9   1  13    0.13    0.28
   8  -1 -13    0.31    0.26
  -8   1  13   -0.04    0.21
   7  -1 -13    1.70    0.28
  -7   1  13    2.29    0.29
   6  -1 -13    3.10    0.32
  -6   1  13    2.03    0.29
   5  -1 -13    2.40    0.26
  -5   1  13    1.91    0.26
   4  -1 -13    0.05    0.13
  -4   1  13    0.20    0.13
   3  -1 -13    2.86    0.32
  -3   1  13    3.52    0.32
   2  -1 -13    0.10    0.09
   2  -1 -13    0.00    0.11
  -2   1  13    0.29    0.11
   1  -1 -13    2.14    0.20
  -1   1  13    1.84    0.22
  -1   1  13    1.77    0.20
   0  -1 -13    1.71    0.18
   0   1  13    2.02    0.20
   0   1  13    1.29    0.17
  -1  -1 -13    0.92    0.14
   1   1  13    0.79    0.13
   1   1  13    1.09    0.17
  -2  -1 -13    1.61    0.20
   2   1  13    1.73    0.22
  -3  -1 -13    1.85    0.22
   3   1  13    1.77    0.24
  -4  -1 -13    1.04    0.18
   4   1  13    0.97    0.17
  -5  -1 -13    3.42    0.33
   5   1  13    2.57    0.32
  -6  -1 -13    5.16    0.48
   6   1  13    4.61    0.48
  -7  -1 -13    0.29    0.20
   7   1  13    0.36    0.20
  -8  -1 -13    1.97    0.30
   8   1  13    1.28    0.28
  -9  -1 -13    0.08    0.28
   9   1  13    0.39    0.30
 -10   2  13    0.50    0.46
  -9   2  13    0.24    0.27
   8  -2 -13    0.16    0.25
  -8   2  13   -0.06    0.22
   7  -2 -13    0.40    0.19
  -7   2  13    0.65    0.21
   6  -2 -13    0.06    0.19
  -6   2  13    0.01    0.17
   5  -2 -13   13.80    1.14
  -5   2  13   13.12    1.15
   4  -2 -13    0.01    0.13
  -4   2  13    0.03    0.13
   3  -2 -13   28.50    2.27
   3  -2 -13   28.39    2.28
  -3   2  13   25.77    2.28
   2  -2 -13    0.22    0.10
  -2   2  13    0.06    0.11
  -2   2  13    0.24    0.12
   1  -2 -13    5.92    0.48
  -1   2  13    5.40    0.48
  -1   2  13    5.20    0.49
   0  -2 -13    0.39    0.11
   0   2  13    0.51    0.14
   0   2  13    0.60    0.11
  -1  -2 -13    1.62    0.20
   1   2  13    1.81    0.19
   1   2  13    2.13    0.23
  -2  -2 -13    0.00    0.11
   2   2  13    0.00    0.12
  -3  -2 -13    7.64    0.67
   3   2  13    7.81    0.68
  -4  -2 -13    4.91    0.47
   4   2  13    5.21    0.48
  -5  -2 -13    4.22    0.42
   5   2  13    4.30    0.43
  -6  -2 -13    0.85    0.20
   6   2  13    0.58    0.20
  -7  -2 -13    2.69    0.32
   7   2  13    2.27    0.32
  -8  -2 -13    0.49    0.24
   8   2  13    0.36    0.24
  -9  -2 -13    0.60    0.29
   9   2  13    0.46    0.28
  -9   3  13    0.10    0.28
  -8   3  13   -0.13    0.22
   7  -3 -13    0.11    0.18
  -7   3  13   -0.17    0.19
   6  -3 -13    4.00    0.41
  -6   3  13    4.06    0.43
   5  -3 -13    9.40    0.80
  -5   3  13    8.99    0.81
   4  -3 -13   -0.09    0.13
  -4   3  13   -0.01    0.14
   3  -3 -13    2.33    0.26
   3  -3 -13    2.33    0.24
  -3   3  13    2.20    0.25
   2  -3 -13    5.75    0.50
  -2   3  13    6.07    0.52
  -2   3  13    5.46    0.51
   1  -3 -13    0.23    0.11
  -1   3  13    0.21    0.11
  -1   3  13    0.06    0.12
   0  -3 -13    0.07    0.11
   0   3  13    0.00    0.12
   0   3  13   -0.06    0.09
  -1  -3 -13    7.89    0.72
   1   3  13    8.96    0.73
   1   3  13    8.54    0.71
  -2  -3 -13    6.45    0.58
   2   3  13    6.62    0.58
  -3  -3 -13   13.31    1.10
   3   3  13   12.60    1.10
  -4  -3 -13    9.77    0.89
   4   3  13   10.85    0.89
  -5  -3 -13    0.93    0.19
   5   3  13    1.08    0.21
  -6  -3 -13    0.04    0.17
   6   3  13    0.05    0.18
  -7  -3 -13    0.21    0.21
   7   3  13    0.38    0.21
  -8  -3 -13    0.32    0.24
   8   3  13    0.84    0.25
  -9  -3 -13    0.50    0.29
   9   3  13    0.20    0.28
  -9   4  13    0.13    0.30
  -8   4  13   -0.09    0.24
  -7   4  13    0.00    0.20
   6  -4 -13    2.08    0.26
  -6   4  13    1.93    0.28
   5  -4 -13    3.81    0.38
  -5   4  13    3.77    0.37
   4  -4 -13    1.72    0.22
  -4   4  13    1.20    0.21
   3  -4 -13   14.85    1.21
   3  -4 -13   14.47    1.22
  -3   4  13   14.17    1.22
   2  -4 -13    8.10    0.70
  -2   4  13    7.92    0.71
  -2   4  13    8.51    0.71
   1  -4 -13    2.00    0.22
  -1   4  13    1.87    0.22
  -1   4  13    1.84    0.22
   0  -4 -13    0.20    0.11
   0   4  13    0.21    0.10
   0   4  13   -0.03    0.12
  -1  -4 -13    0.10    0.12
   1   4  13   -0.06    0.12
  -2  -4 -13   18.91    1.52
   2   4  13   17.45    1.52
  -3  -4 -13    0.38    0.12
   3   4  13    0.02    0.14
  -4  -4 -13    0.05    0.15
   4   4  13    0.03    0.15
  -5  -4 -13    1.79    0.26
   5   4  13    2.32    0.27
  -6  -4 -13    0.42    0.20
   6   4  13    0.30    0.20
  -7  -4 -13    0.41    0.21
   7   4  13    0.42    0.23
  -8  -4 -13    0.30    0.24
   8   4  13    0.08    0.23
  -9  -4 -13   -0.40    0.28
   9   4  13    0.18    0.28
  -9   5  13    1.15    0.35
  -8   5  13   -0.27    0.26
  -7   5  13    0.24    0.18
  -6   5  13    0.89    0.23
   5  -5 -13    2.20    0.25
  -5   5  13    1.72    0.27
   4  -5 -13    0.03    0.14
   4  -5 -13   -0.11    0.15
  -4   5  13   -0.04    0.15
   3  -5 -13   16.05    1.35
   3  -5 -13   16.20    1.35
  -3   5  13   16.03    1.35
   2  -5 -13   14.89    1.19
  -2   5  13   13.75    1.19
  -2   5  13   13.94    1.19
   1  -5 -13    4.06    0.39
  -1   5  13    4.72    0.39
  -1   5  13    3.55    0.39
   0  -5 -13    0.16    0.12
   0   5  13    0.11    0.10
   0   5  13    0.22    0.13
  -1  -5 -13   17.64    1.47
   1   5  13   17.50    1.47
  -2  -5 -13    1.01    0.19
   2   5  13    1.59    0.21
  -3  -5 -13   -0.01    0.14
   3   5  13    0.00    0.14
  -4  -5 -13    0.65    0.17
   4   5  13    0.76    0.18
  -5  -5 -13    1.01    0.21
   5   5  13    0.98    0.21
  -6  -5 -13    0.37    0.20
   6   5  13    0.17    0.18
  -7  -5 -13    0.23    0.23
   7   5  13    0.38    0.22
  -8  -5 -13    0.30    0.30
   8   5  13    0.72    0.26
  -9  -5 -13    0.72    0.33
  -9   6  13    0.32    0.34
  -8   6  13    0.58    0.30
  -7   6  13   -0.20    0.22
  -6   6  13    1.59    0.27
  -5   6  13    3.79    0.41
   4  -6 -13    1.24    0.19
   4  -6 -13    1.23    0.19
  -4   6  13    1.40    0.22
   3  -6 -13    3.39    0.32
   3  -6 -13    3.41    0.32
  -3   6  13    2.28    0.31
   2  -6 -13    4.34    0.40
  -2   6  13    3.92    0.40
  -2   6  13    4.26    0.40
   1  -6 -13   -0.01    0.12
  -1   6  13   -0.09    0.12
  -1   6  13    0.19    0.14
   0  -6 -13    3.30    0.30
   0   6  13    2.48    0.28
   0   6  13    2.91    0.30
  -1  -6 -13    2.42    0.28
   1   6  13    2.58    0.29
  -2  -6 -13    2.82    0.31
   2   6  13    3.08    0.33
  -3  -6 -13    2.02    0.24
   3   6  13    1.43    0.23
  -4  -6 -13    2.46    0.31
   4   6  13    2.84    0.32
  -5  -6 -13    1.06    0.22
   5   6  13    1.07    0.23
  -6  -6 -13   -0.04    0.19
   6   6  13    0.02    0.20
  -7  -6 -13    0.53    0.23
   7   6  13   -0.02    0.21
  -8  -6 -13    0.79    0.29
   8   6  13    1.62    0.32
  -9   7  13    0.49    0.43
  -8   7  13   -0.07    0.29
  -7   7  13   -0.19    0.24
  -6   7  13    3.38    0.40
   5  -7 -13    0.61    0.18
  -5   7  13    0.61    0.21
   4  -7 -13    1.45    0.23
  -4   7  13    1.60    0.25
   3  -7 -13    0.17    0.15
   3  -7 -13    0.15    0.14
  -3   7  13    0.10    0.15
   2  -7 -13   15.88    1.26
  -2   7  13   14.16    1.26
  -2   7  13   15.08    1.27
   1  -7 -13    2.33    0.25
  -1   7  13    1.95    0.23
  -1   7  13    2.19    0.25
   0  -7 -13    1.31    0.19
   0   7  13    0.99    0.16
   0   7  13    0.87    0.18
  -1  -7 -13   18.25    1.45
   1   7  13   16.36    1.45
  -2  -7 -13   12.47    1.02
   2   7  13   11.47    1.02
  -3  -7 -13    2.76    0.33
   3   7  13    3.30    0.34
  -4  -7 -13    1.18    0.21
   4   7  13    0.39    0.19
  -5  -7 -13    0.07    0.19
   5   7  13   -0.12    0.18
  -6  -7 -13    0.35    0.22
   6   7  13    0.44    0.22
  -7  -7 -13    0.21    0.25
   7   7  13    0.16    0.23
  -8  -7 -13    0.07    0.28
   8   7  13   -0.08    0.27
  -8   8  13    0.40    0.31
  -7   8  13    0.42    0.21
  -6   8  13    0.53    0.25
   5  -8 -13    2.33    0.29
  -5   8  13    1.82    0.27
   4  -8 -13    0.60    0.17
  -4   8  13    0.34    0.20
   3  -8 -13   12.85    1.10
  -3   8  13   12.86    1.11
   2  -8 -13    0.97    0.19
  -2   8  13    1.01    0.19
   1  -8 -13    1.54    0.22
  -1   8  13    1.34    0.21
  -1   8  13    1.59    0.21
   0  -8 -13    1.86    0.25
   0   8  13    1.97    0.24
  -1  -8 -13    8.46    0.74
   1   8  13    8.31    0.74
  -2  -8 -13    0.05    0.17
   2   8  13    0.21    0.17
  -3  -8 -13    0.13    0.17
   3   8  13    0.07    0.17
  -4  -8 -13   -0.16    0.17
   4   8  13   -0.10    0.18
  -5  -8 -13    1.07    0.24
   5   8  13    1.44    0.25
  -6  -8 -13    0.64    0.24
   6   8  13    0.32    0.23
  -7  -8 -13    0.05    0.25
   7   8  13    0.28    0.25
  -8  -8 -13    0.83    0.32
   8   8  13    1.11    0.37
  -8   9  13    0.78    0.35
  -7   9  13    0.22    0.22
  -6   9  13    1.87    0.32
   5  -9 -13    1.14    0.23
  -5   9  13    1.01    0.25
   4  -9 -13    2.23    0.29
  -4   9  13    2.00    0.29
   3  -9 -13    2.97    0.31
  -3   9  13    2.34    0.31
   2  -9 -13   33.32    2.71
  -2   9  13   32.16    2.72
   1  -9 -13   -0.04    0.16
  -1   9  13   -0.48    0.18
   0  -9 -13    0.59    0.18
   0   9  13    0.40    0.18
  -1  -9 -13    0.03    0.17
   1   9  13   -0.09    0.17
  -2  -9 -13   12.71    1.06
   2   9  13   11.73    1.06
  -3  -9 -13    0.22    0.19
   3   9  13    0.31    0.21
  -4  -9 -13    2.43    0.31
   4   9  13    2.35    0.32
  -5  -9 -13    0.56    0.24
   5   9  13    0.43    0.22
  -6  -9 -13    0.24    0.24
   6   9  13    0.23    0.24
  -7  -9 -13    0.25    0.31
   7   9  13   -0.20    0.26
  -7  10  13   -0.13    0.31
   6 -10 -13    0.73    0.33
  -6  10  13    0.27    0.27
   5 -10 -13   -0.06    0.22
  -5  10  13   -0.29    0.23
   4 -10 -13    0.32    0.19
  -4  10  13    0.52    0.23
   3 -10 -13    2.38    0.30
  -3  10  13    1.98    0.30
   2 -10 -13    2.47    0.29
  -2  10  13    1.89    0.28
   1 -10 -13    5.02    0.47
  -1  10  13    4.49    0.47
   0 -10 -13    0.29    0.18
  -1 -10 -13    4.17    0.45
   1  10  13    4.52    0.45
  -2 -10 -13    0.12    0.19
   2  10  13    0.04    0.20
  -3 -10 -13    1.69    0.26
   3  10  13    1.30    0.25
  -4 -10 -13    1.11    0.24
   4  10  13    0.60    0.22
  -5 -10 -13    0.29    0.24
   5  10  13    0.20    0.23
  -6 -10 -13    0.29    0.26
   6  10  13    0.31    0.26
  -7 -10 -13    0.27    0.30
   7  10  13   -0.01    0.29
  -7  11  13    0.34    0.33
   6 -11 -13    0.02    0.24
  -6  11  13   -0.31    0.29
   5 -11 -13    0.70    0.26
  -5  11  13    0.24    0.26
   4 -11 -13    0.12    0.20
  -4  11  13    0.02    0.23
   3 -11 -13    0.28    0.20
  -3  11  13    0.47    0.26
   2 -11 -13    0.04    0.19
  -2  11  13   -0.13    0.20
   1 -11 -13   -0.12    0.17
  -1  11  13   -0.05    0.21
   0 -11 -13    0.15    0.19
  -1 -11 -13    0.85    0.22
  -2 -11 -13    0.35    0.21
   2  11  13    0.16    0.23
  -3 -11 -13    0.92    0.25
   3  11  13    1.08    0.26
  -4 -11 -13    0.18    0.24
   4  11  13    0.19    0.22
  -5 -11 -13    2.79    0.37
   5  11  13    2.11    0.35
  -6 -11 -13   -0.18    0.28
   6  11  13    0.04    0.28
   6 -12 -13    1.38    0.34
  -6  12  13    0.57    0.34
   5 -12 -13    0.39    0.28
  -5  12  13   -0.43    0.29
   4 -12 -13   -0.04    0.25
  -4  12  13    0.13    0.26
   3 -12 -13   -0.02    0.21
  -3  12  13   -0.39    0.27
   2 -12 -13    0.87    0.24
  -2  12  13    0.95    0.26
   1 -12 -13    0.36    0.21
   0 -12 -13    0.98    0.24
  -1 -12 -13   -0.17    0.21
  -2 -12 -13    0.03    0.21
  -3 -12 -13    0.91    0.27
  -4 -12 -13    0.87    0.28
   4  12  13    0.28    0.27
  -5 -12 -13   -0.06    0.29
   5  12  13    0.05    0.27
  -6 -12 -13    0.43    0.37
   6  12  13    0.17    0.33
   6 -13 -13    1.23    0.33
  -6  13  13    0.62    0.38
   5 -13 -13    0.57    0.28
  -5  13  13   -0.14    0.34
   4 -13 -13    0.22    0.25
  -4  13  13    0.23    0.31
   3 -13 -13    0.08    0.23
  -3  13  13    0.18    0.27
   2 -13 -13    0.42    0.24
  -2  13  13    0.68    0.30
   1 -13 -13    2.28    0.34
   0 -13 -13    0.20    0.22
  -1 -13 -13    1.81    0.31
  -2 -13 -13    0.55    0.26
  -3 -13 -13   -0.09    0.25
  -4 -13 -13    0.23    0.33
  -5 -13 -13   -0.01    0.31
   5 -14 -13    0.85    0.36
  -5  14  13    0.00    0.37
   4 -14 -13   -0.09    0.28
  -4  14  13   -0.54    0.37
   3 -14 -13    0.35    0.27
  -3  14  13   -0.34    0.35
   2 -14 -13   -0.19    0.24
   1 -14 -13    0.75    0.28
   0 -14 -13    0.39    0.26
  -1 -14 -13    3.41    0.43
  -2 -14 -13   -0.13    0.27
  -3 -14 -13   -0.24    0.27
   4 -15 -13    0.04    0.40
  -4  15  13   -0.13    0.37
   3 -15 -13   -0.07    0.30
  -3  15  13   -0.17    0.35
   2 -15 -13    0.11    0.29
   1 -15 -13    0.29    0.30
   0 -15 -13   -0.01    0.29
  -1 -15 -13    0.35    0.30
  -2 -15 -13    1.48    0.35
  -2 -15  14    0.21    0.35
  -1 -15  14    1.92    0.41
   0 -15  14    0.24    0.32
  -1  15 -14    0.18    0.35
  -2  15 -14    1.52    0.41
  -3  15 -14    1.08    0.40
   5  14 -14    0.18    0.39
  -4 -14  14   -0.36    0.38
  -3 -14  14    0.94    0.36
  -2 -14  14    0.22    0.31
  -1 -14  14    0.60    0.31
   0 -14  14   -0.05    0.27
   1 -14  14   -0.12    0.27
  -2  14 -14    0.08    0.30
  -3  14 -14    0.39    0.33
  -4  14 -14    0.16    0.34
   5  13 -14    0.11    0.34
  -5 -13  14   -0.06    0.33
   4  13 -14    0.12    0.30
  -4 -13  14    0.26    0.30
   3  13 -14    0.13    0.30
  -3 -13  14    0.65    0.30
  -2 -13  14    0.65    0.28
  -1 -13  14    0.47    0.28
   0 -13  14    0.62    0.27
   1 -13  14   -0.06    0.26
  -2  13 -14    0.20    0.26
  -3  13 -14    0.70    0.30
  -4  13 -14    0.12    0.33
   4 -13  14   -0.28    0.25
   5 -13  14    0.00    0.30
   6  12 -14    0.28    0.35
  -6 -12  14   -0.23    0.33
   5  12 -14   -0.26    0.34
  -5 -12  14   -0.08    0.29
   4  12 -14    0.12    0.26
  -4 -12  14   -0.01    0.27
   3  12 -14    1.41    0.29
  -3 -12  14    1.55    0.32
   2  12 -14    0.27    0.24
  -2 -12  14    0.43    0.26
  -1 -12  14    1.93    0.32
   0 -12  14    0.16    0.23
   1 -12  14    0.17    0.23
  -2  12 -14    0.18    0.24
  -3  12 -14    0.58    0.26
   3 -12  14    0.79    0.26
  -4  12 -14    0.59    0.28
   4 -12  14    0.69    0.25
   5 -12  14   -0.06    0.27
   6 -12  14   -0.14    0.30
   6  11 -14   -0.23    0.31
  -6 -11  14   -0.04    0.31
   5  11 -14    0.30    0.30
  -5 -11  14    0.38    0.27
   4  11 -14    0.47    0.24
  -4 -11  14    0.32    0.26
   3  11 -14    0.72    0.24
  -3 -11  14    0.87    0.26
   2  11 -14    0.39    0.23
  -2 -11  14    0.06    0.22
   1  11 -14    0.35    0.20
  -1 -11  14    0.15    0.22
   0 -11  14    2.13    0.32
   1 -11  14   -0.06    0.20
   2 -11  14    0.10    0.20
  -3  11 -14    0.03    0.22
   3 -11  14    0.13    0.22
  -4  11 -14    1.35    0.29
   4 -11  14    1.53    0.27
   5 -11  14   -0.02    0.24
   6 -11  14    0.64    0.30
   7  10 -14   -0.01    0.33
  -7 -10  14   -0.06    0.31
   6  10 -14    0.07    0.28
  -6 -10  14   -0.01    0.27
   5  10 -14    0.41    0.25
  -5 -10  14    0.59    0.25
   4  10 -14    1.73    0.29
  -4 -10  14    1.69    0.30
   3  10 -14   -0.04    0.19
  -3 -10  14    0.12    0.21
   2  10 -14    0.00    0.21
  -2 -10  14    0.05    0.20
   1  10 -14    0.52    0.20
  -1 -10  14    0.41    0.21
   0  10 -14   -0.03    0.20
   0 -10  14   -0.13    0.19
  -1  10 -14    0.03    0.21
   1 -10  14    0.41    0.23
   2 -10  14    0.65    0.22
   2 -10  14    0.57    0.21
  -3  10 -14   -0.07    0.20
   3 -10  14   -0.32    0.20
  -4  10 -14    0.70    0.24
   4 -10  14    0.80    0.24
   5 -10  14   -0.04    0.22
   6 -10  14   -0.17    0.25
   7 -10  14    1.25    0.33
  -8  -9  14    0.63    0.35
   7   9 -14    0.13    0.31
  -7  -9  14    0.03    0.27
   6   9 -14    0.94    0.32
  -6  -9  14    0.73    0.27
   5   9 -14    0.79    0.26
  -5  -9  14    1.16    0.28
   4   9 -14    0.66    0.22
  -4  -9  14    0.68    0.22
   3   9 -14    2.30    0.31
  -3  -9  14    2.36    0.32
   2   9 -14    2.66    0.32
  -2  -9  14    2.69    0.33
   1   9 -14   -0.05    0.16
  -1  -9  14    0.15    0.18
   0   9 -14    0.06    0.17
   0  -9  14    0.14    0.19
  -1   9 -14    1.12    0.23
   1  -9  14    0.98    0.22
  -2   9 -14    3.38    0.38
   2  -9  14    3.29    0.39
   2  -9  14    4.37    0.39
  -3   9 -14    5.27    0.52
   3  -9  14    5.26    0.52
  -4   9 -14    0.75    0.27
   4  -9  14    0.73    0.21
   5  -9  14    0.04    0.21
   6  -9  14    0.15    0.24
   7  -9  14    0.01    0.28
   8   8 -14    0.35    0.33
  -8  -8  14    0.52    0.33
   7   8 -14    0.13    0.28
  -7  -8  14    0.24    0.27
   6   8 -14    0.67    0.26
  -6  -8  14    0.49    0.25
   5   8 -14    3.28    0.39
  -5  -8  14    3.24    0.38
   4   8 -14    0.91    0.23
  -4  -8  14    1.23    0.24
   3   8 -14    7.90    0.70
  -3  -8  14    7.41    0.70
   2   8 -14    2.99    0.37
  -2  -8  14    3.68    0.38
   1   8 -14    1.80    0.27
  -1  -8  14    2.05    0.27
   0   8 -14    4.12    0.38
   0  -8  14    3.22    0.38
  -1   8 -14    2.71    0.31
   1  -8  14    2.73    0.32
  -2   8 -14    0.53    0.19
   2  -8  14    0.54    0.18
   2  -8  14    0.29    0.17
  -3   8 -14    1.31    0.24
   3  -8  14    1.47    0.23
   3  -8  14    1.73    0.23
   4  -8  14    1.57    0.24
   5  -8  14    0.20    0.22
   6  -8  14    2.15    0.32
  -7   8 -14    0.60    0.29
  -8   8 -14    0.51    0.34
   8   7 -14    0.35    0.32
  -8  -7  14    0.47    0.30
   7   7 -14    0.40    0.28
  -7  -7  14    0.26    0.19
   6   7 -14   -0.11    0.22
  -6  -7  14    0.00    0.20
   5   7 -14   -0.06    0.19
  -5  -7  14   -0.01    0.18
   4   7 -14   20.76    1.65
  -4  -7  14   18.40    1.65
   3   7 -14    0.15    0.17
  -3  -7  14    0.30    0.17
   2   7 -14    0.38    0.17
  -2  -7  14    0.46    0.18
   1   7 -14    2.47    0.30
  -1  -7  14    2.73    0.31
   0   7 -14    9.25    0.75
   0  -7  14    7.85    0.75
  -1   7 -14    0.24    0.15
   1  -7  14    0.25    0.16
   1  -7  14    0.35    0.14
   2  -7  14    0.51    0.17
   2  -7  14    0.48    0.16
   2  -7  14    0.41    0.16
   3  -7  14    0.17    0.16
   3  -7  14    0.13    0.15
   3  -7  14    0.12    0.15
   4  -7  14    6.96    0.64
   4  -7  14    7.07    0.65
   5  -7  14    0.68    0.20
   5  -7  14   -0.07    0.32
  -6   7 -14    0.59    0.24
  -7   7 -14    0.40    0.27
  -8   7 -14   -0.09    0.29
  -9  -6  14    0.04    0.33
   8   6 -14    0.96    0.33
  -8  -6  14    0.78    0.28
   7   6 -14   -0.12    0.25
  -7  -6  14   -0.10    0.22
   6   6 -14    1.88    0.30
  -6  -6  14    2.17    0.27
   5   6 -14    6.96    0.65
  -5  -6  14    6.87    0.64
   4   6 -14    2.77    0.31
  -4  -6  14    2.64    0.32
   3   6 -14    3.35    0.35
  -3  -6  14    3.19    0.36
   2   6 -14    1.66    0.23
  -2  -6  14    1.41    0.22
   1   6 -14    2.09    0.27
  -1  -6  14    2.46    0.28
   0   6 -14    0.06    0.14
   0  -6  14    0.48    0.15
  -1   6 -14   -0.04    0.13
   1  -6  14    0.02    0.14
   1  -6  14    0.13    0.14
  -2   6 -14   17.76    1.43
   2  -6  14   17.27    1.44
   2  -6  14   16.30    1.44
  -3   6 -14    0.71    0.17
   3  -6  14    0.81    0.17
   3  -6  14    0.85    0.18
  -4   6 -14    0.15    0.19
   4  -6  14    0.15    0.17
  -5   6 -14   -0.06    0.18
   5  -6  14    0.11    0.20
  -6   6 -14    1.80    0.28
   6  -6  14    1.54    0.29
  -7   6 -14    0.50    0.25
  -8   6 -14   -0.20    0.28
   9   5 -14   -0.17    0.32
  -9  -5  14    0.10    0.32
   8   5 -14    0.65    0.29
  -8  -5  14    1.04    0.29
   7   5 -14    0.36    0.25
  -7  -5  14    0.08    0.21
   6   5 -14    0.51    0.21
  -6  -5  14    0.22    0.15
   5   5 -14    1.05    0.22
  -5  -5  14    1.25    0.23
   4   5 -14    1.10    0.22
  -4  -5  14    1.22    0.21
   3   5 -14    0.08    0.16
  -3  -5  14    0.27    0.16
   2   5 -14    2.86    0.28
  -2  -5  14    1.75    0.26
   1   5 -14    8.22    0.73
  -1  -5  14    8.43    0.73
   0   5 -14    0.37    0.15
   0  -5  14    0.10    0.13
  -1   5 -14    0.25    0.13
   1  -5  14    0.61    0.15
   1  -5  14    0.55    0.15
  -2   5 -14    0.01    0.12
   2  -5  14    0.00    0.14
   2  -5  14    0.05    0.14
  -3   5 -14   16.16    1.41
   3  -5  14   16.75    1.42
   3  -5  14   17.93    1.42
  -4   5 -14   -0.01    0.15
   4  -5  14    0.03    0.16
  -5   5 -14   -0.10    0.17
   5  -5  14    0.05    0.18
  -6   5 -14    0.77    0.21
   6  -5  14    0.33    0.20
  -7   5 -14    0.02    0.23
   7  -5  14    0.00    0.24
  -8   5 -14   -0.20    0.26
   9   4 -14    0.25    0.33
  -9  -4  14    0.02    0.31
   8   4 -14    0.02    0.26
  -8  -4  14    0.10    0.25
   7   4 -14    0.09    0.22
  -7  -4  14    0.15    0.21
   6   4 -14    0.10    0.20
  -6  -4  14   -0.18    0.17
   5   4 -14    0.35    0.19
  -5  -4  14    0.11    0.17
   4   4 -14   15.90    1.31
  -4  -4  14   14.95    1.30
   3   4 -14    0.13    0.15
  -3  -4  14   -0.04    0.14
   2   4 -14   12.18    1.01
  -2  -4  14   11.57    1.01
   1   4 -14    1.08    0.18
  -1  -4  14    1.09    0.18
   0   4 -14    3.15    0.32
   0  -4  14    3.32    0.34
   0  -4  14    3.58    0.34
  -1   4 -14    0.00    0.10
   1  -4  14    0.10    0.11
   1  -4  14    0.03    0.13
  -2   4 -14    4.68    0.50
   2  -4  14    6.66    0.53
   2  -4  14    6.04    0.51
  -3   4 -14    1.97    0.23
   3  -4  14    1.68    0.24
  -4   4 -14    3.54    0.33
   4  -4  14    2.63    0.34
  -5   4 -14    1.05    0.20
   5  -4  14    0.37    0.19
  -6   4 -14    4.70    0.45
   6  -4  14    3.78    0.43
  -7   4 -14    0.50    0.24
   7  -4  14    0.41    0.22
  -8   4 -14    0.34    0.27
   8  -4  14    0.30    0.30
   9   3 -14    0.21    0.32
  -9  -3  14    0.10    0.29
   8   3 -14    0.63    0.28
  -8  -3  14    0.65    0.25
   7   3 -14    0.71    0.26
  -7  -3  14    0.83    0.23
   6   3 -14    3.98    0.43
  -6  -3  14    4.07    0.43
   5   3 -14   11.57    0.98
  -5  -3  14   11.04    0.98
   4   3 -14   23.08    1.87
  -4  -3  14   21.69    1.87
   3   3 -14    8.59    0.66
  -3  -3  14    6.46    0.65
   2   3 -14    0.20    0.14
  -2  -3  14    0.49    0.14
   1   3 -14    4.75    0.44
  -1  -3  14    4.69    0.43
   0   3 -14    7.41    0.65
   0  -3  14    8.30    0.67
   0  -3  14    7.45    0.66
  -1   3 -14    0.59    0.13
   1  -3  14    0.87    0.15
   1  -3  14    0.40    0.14
  -2   3 -14    0.21    0.12
   2  -3  14    0.37    0.12
   2  -3  14    0.12    0.15
  -3   3 -14   17.57    1.34
   3  -3  14   14.36    1.35
  -4   3 -14    8.16    0.70
   4  -3  14    7.73    0.71
  -5   3 -14    4.98    0.44
   5  -3  14    3.81    0.44
  -6   3 -14    2.76    0.33
   6  -3  14    2.67    0.34
  -7   3 -14    0.53    0.23
   7  -3  14    0.24    0.22
  -8   3 -14    0.14    0.25
   8  -3  14    0.32    0.25
  -9   3 -14   -0.33    0.29
   9  -3  14   -0.22    0.28
  10   2 -14    0.03    0.46
   9   2 -14    0.42    0.32
  -9  -2  14    0.37    0.30
   8   2 -14    0.79    0.30
  -8  -2  14    0.88    0.26
   7   2 -14    4.67    0.48
  -7  -2  14    4.35    0.47
   6   2 -14    0.20    0.19
  -6  -2  14   -0.12    0.17
   5   2 -14   16.41    1.36
  -5  -2  14   15.69    1.36
   4   2 -14    0.70    0.17
  -4  -2  14    0.82    0.17
   3   2 -14    5.21    0.49
  -3  -2  14    5.20    0.48
   2   2 -14   -0.02    0.14
  -2  -2  14    0.03    0.12
  -1  -2  14    8.35    0.69
  -1  -2  14    7.53    0.68
   0   2 -14    2.45    0.24
   0  -2  14    2.11    0.26
   0  -2  14    2.34    0.24
  -1   2 -14    9.36    0.80
   1  -2  14    9.54    0.81
   1  -2  14    9.27    0.80
  -2   2 -14    0.42    0.13
   2  -2  14    0.60    0.13
   2  -2  14    0.39    0.15
  -3   2 -14    4.08    0.40
   3  -2  14    4.29    0.41
  -4   2 -14    1.61    0.23
   4  -2  14    1.88    0.24
  -5   2 -14    0.06    0.17
   5  -2  14    0.53    0.18
  -6   2 -14    0.49    0.19
   6  -2  14    0.47    0.23
  -7   2 -14    1.25    0.25
   7  -2  14    0.89    0.24
  -8   2 -14    0.88    0.28
   8  -2  14    1.37    0.28
  -9   2 -14   -0.24    0.29
   9  -2  14   -0.07    0.31
  10   1 -14    0.27    0.35
   9   1 -14    0.21    0.30
  -9  -1  14    0.18    0.29
   8   1 -14    0.02    0.23
  -8  -1  14    0.41    0.24
   7   1 -14    0.68    0.23
  -7  -1  14    0.71    0.21
   6   1 -14    1.26    0.23
  -6  -1  14    0.92    0.21
   5   1 -14   -0.17    0.15
  -5  -1  14   -0.02    0.15
   4   1 -14    7.69    0.65
  -4  -1  14    7.11    0.66
   3   1 -14    0.66    0.16
  -3  -1  14    0.47    0.14
   2   1 -14    2.06    0.25
  -2  -1  14    2.16    0.24
   1   1 -14    2.39    0.25
  -1  -1  14    2.79    0.27
  -1  -1  14    2.61    0.26
   0   1 -14    3.39    0.35
   0  -1  14    4.21    0.35
   0  -1  14    3.89    0.37
  -1   1 -14    3.38    0.34
   1  -1  14    3.38    0.34
   1  -1  14    4.49    0.37
  -2   1 -14    2.53    0.27
   2  -1  14    2.72    0.28
  -3   1 -14   -0.13    0.12
   3  -1  14   -0.03    0.14
  -4   1 -14    1.95    0.24
   4  -1  14    1.68    0.25
  -5   1 -14    1.77    0.24
   5  -1  14    1.72    0.25
  -6   1 -14    5.64    0.50
   6  -1  14    4.38    0.49
  -7   1 -14    0.62    0.22
   7  -1  14    0.48    0.24
  -8   1 -14    0.24    0.25
   8  -1  14    0.14    0.24
  -9   1 -14    0.26    0.33
   9  -1  14    0.15    0.27
  10   0 -14    0.58    0.37
   9   0 -14    0.07    0.29
  -9   0  14   -0.03    0.27
   8   0 -14    0.73    0.28
  -8   0  14    0.19    0.24
   7   0 -14    0.64    0.22
  -7   0  14    0.48    0.21
   6   0 -14    0.30    0.19
  -6   0  14    0.45    0.19
   5   0 -14   -0.02    0.15
  -5   0  14   -0.11    0.15
   4   0 -14    2.24    0.25
  -4   0  14    1.76    0.24
   3   0 -14    0.14    0.14
  -3   0  14   -0.02    0.12
   2   0 -14    0.14    0.12
  -2   0  14    0.27    0.12
   1   0 -14    6.14    0.54
  -1   0  14    6.26    0.55
  -1   0  14    6.25    0.54
   0   0 -14    1.95    0.20
   0   0  14    1.66    0.19
   0   0  14    1.89    0.22
  -1   0 -14    1.82    0.21
   1   0  14    1.83    0.23
   1   0  14    1.89    0.20
  -2   0 -14    3.12    0.31
   2   0  14    3.15    0.33
  -3   0 -14   21.78    1.82
   3   0  14   21.98    1.83
  -4   0 -14    0.49    0.16
   4   0  14    0.53    0.18
  -5   0 -14   -0.10    0.16
   5   0  14   -0.25    0.17
  -6   0 -14    0.28    0.19
   6   0  14    0.13    0.18
  -7   0 -14    1.76    0.28
   7   0  14    1.64    0.27
  -8   0 -14    0.11    0.24
   8   0  14   -0.07    0.23
  -9   0 -14    0.26    0.29
   9   0  14    0.16    0.27
   9  -1 -14   -0.26    0.28
  -9   1  14    0.13    0.29
   8  -1 -14    0.06    0.23
  -8   1  14    0.17    0.24
   7  -1 -14    1.14    0.24
  -7   1  14    1.10    0.24
   6  -1 -14    3.80    0.40
  -6   1  14    3.38    0.38
   5  -1 -14    1.89    0.25
  -5   1  14    1.93    0.26
   4  -1 -14    0.89    0.18
  -4   1  14    0.81    0.17
   3  -1 -14    0.74    0.16
  -3   1  14    0.76    0.15
   2  -1 -14    0.11    0.10
   2  -1 -14    0.50    0.10
  -2   1  14    0.19    0.12
   1  -1 -14    3.89    0.35
  -1   1  14    4.07    0.37
  -1   1  14    3.40    0.35
   0  -1 -14    1.40    0.16
   0   1  14    1.32    0.17
   0   1  14    1.16    0.19
  -1  -1 -14    3.09    0.32
   1   1  14    3.47    0.34
   1   1  14    3.44    0.31
  -2  -1 -14    4.16    0.38
   2   1  14    3.85    0.39
  -3  -1 -14    7.77    0.64
   3   1  14    6.74    0.65
  -4  -1 -14   -0.17    0.14
   4   1  14    0.16    0.17
  -5  -1 -14    0.16    0.16
   5   1  14    0.11    0.17
  -6  -1 -14    0.05    0.18
   6   1  14    0.33    0.19
  -7  -1 -14    1.08    0.25
   7   1  14    1.26    0.25
  -8  -1 -14    0.28    0.25
   8   1  14    0.15    0.23
  -9  -1 -14    0.16    0.28
   9   1  14    0.32    0.29
  -9   2  14   -0.01    0.30
   8  -2 -14    1.91    0.30
  -8   2  14    1.34    0.30
   7  -2 -14    2.44    0.35
  -7   2  14    3.57    0.37
   6  -2 -14    1.54    0.26
  -6   2  14    1.43    0.25
   5  -2 -14    0.63    0.18
  -5   2  14    1.27    0.21
   4  -2 -14    0.36    0.16
  -4   2  14    0.65    0.16
   3  -2 -14    2.60    0.28
  -3   2  14    2.57    0.28
   2  -2 -14    0.41    0.11
  -2   2  14    0.50    0.15
  -2   2  14    0.48    0.14
   1  -2 -14    1.61    0.19
  -1   2  14    1.78    0.20
  -1   2  14    1.86    0.22
   0  -2 -14    0.02    0.11
   0   2  14    0.02    0.08
   0   2  14   -0.05    0.13
  -1  -2 -14    2.10    0.27
   1   2  14    3.20    0.31
   1   2  14    2.93    0.27
  -2  -2 -14   12.46    1.00
   2   2  14   11.04    1.00
  -3  -2 -14    0.12    0.13
   3   2  14   -0.09    0.15
  -4  -2 -14    1.00    0.19
   4   2  14    1.02    0.21
  -5  -2 -14    0.13    0.16
   5   2  14    0.34    0.17
  -6  -2 -14    0.13    0.18
   6   2  14    0.08    0.17
  -7  -2 -14   -0.10    0.21
   7   2  14   -0.09    0.20
  -8  -2 -14    0.38    0.24
   8   2  14    0.10    0.25
  -9  -2 -14   -0.05    0.29
   9   2  14   -0.01    0.29
  -9   3  14   -0.10    0.31
  -8   3  14    0.58    0.26
   7  -3 -14    0.28    0.23
  -7   3  14    0.51    0.22
   6  -3 -14    0.02    0.17
  -6   3  14    0.34    0.20
   5  -3 -14    0.12    0.15
  -5   3  14    0.02    0.16
   4  -3 -14    8.68    0.79
  -4   3  14    9.39    0.79
   3  -3 -14    1.25    0.19
   3  -3 -14    0.72    0.19
  -3   3  14    0.86    0.18
   2  -3 -14    5.84    0.56
  -2   3  14    6.30    0.56
  -2   3  14    7.39    0.58
   1  -3 -14    5.96    0.49
  -1   3  14    4.84    0.48
  -1   3  14    5.93    0.50
   0  -3 -14    2.10    0.25
   0   3  14    2.77    0.27
   0   3  14    2.25    0.24
  -1  -3 -14    9.20    0.73
   1   3  14    7.57    0.73
  -2  -3 -14   -0.12    0.12
   2   3  14   -0.07    0.14
  -3  -3 -14    2.01    0.25
   3   3  14    1.99    0.26
  -4  -3 -14    0.01    0.15
   4   3  14   -0.15    0.16
  -5  -3 -14    1.63    0.27
   5   3  14    2.49    0.26
  -6  -3 -14   -0.10    0.17
   6   3  14    0.09    0.19
  -7  -3 -14   -0.02    0.21
   7   3  14   -0.07    0.21
  -8  -3 -14   -0.01    0.24
   8   3  14    0.14    0.24
  -9  -3 -14    0.73    0.35
   9   3  14    0.45    0.30
  -9   4  14    0.37    0.33
  -8   4  14    0.17    0.25
  -7   4  14    0.06    0.23
   6  -4 -14    0.92    0.22
  -6   4  14    0.51    0.22
   5  -4 -14    0.56    0.17
  -5   4  14    1.10    0.21
   4  -4 -14    0.62    0.18
  -4   4  14    0.13    0.16
   3  -4 -14    3.92    0.38
   3  -4 -14    3.83    0.39
  -3   4  14    4.23    0.39
   2  -4 -14   12.29    1.08
  -2   4  14   12.44    1.08
  -2   4  14   13.80    1.09
   1  -4 -14    3.19    0.34
  -1   4  14    3.60    0.35
  -1   4  14    3.44    0.34
   0  -4 -14    1.13    0.19
   0   4  14    1.45    0.18
   0   4  14    1.78    0.21
  -1  -4 -14    0.02    0.12
   1   4  14   -0.13    0.13
  -2  -4 -14    8.12    0.73
   2   4  14    8.73    0.74
  -3  -4 -14    2.61    0.29
   3   4  14    2.56    0.30
  -4  -4 -14    3.50    0.36
   4   4  14    3.10    0.36
  -5  -4 -14   -0.25    0.16
   5   4  14    0.03    0.17
  -6  -4 -14   -0.04    0.19
   6   4  14   -0.11    0.19
  -7  -4 -14    0.84    0.24
   7   4  14    0.97    0.26
  -8  -4 -14   -0.07    0.25
   8   4  14    0.04    0.25
  -9   5  14   -0.06    0.31
  -8   5  14    0.15    0.28
  -7   5  14    0.67    0.26
  -6   5  14    0.03    0.20
   5  -5 -14    0.37    0.16
  -5   5  14    0.20    0.18
   4  -5 -14    2.50    0.30
  -4   5  14    2.78    0.31
   3  -5 -14    0.02    0.15
   3  -5 -14   -0.03    0.14
  -3   5  14    0.01    0.14
   2  -5 -14   -0.01    0.14
  -2   5  14    0.09    0.12
  -2   5  14   -0.11    0.14
   1  -5 -14   16.73    1.26
  -1   5  14   14.45    1.26
  -1   5  14   14.08    1.25
   0  -5 -14    0.72    0.16
   0   5  14    0.92    0.17
   0   5  14    0.61    0.13
  -1  -5 -14    1.82    0.22
   1   5  14    1.63    0.23
  -2  -5 -14    0.54    0.16
   2   5  14    0.55    0.17
  -3  -5 -14    0.25    0.16
   3   5  14    0.63    0.18
  -4  -5 -14    4.64    0.45
   4   5  14    4.48    0.46
  -5  -5 -14    1.87    0.27
   5   5  14    1.92    0.28
  -6  -5 -14    1.34    0.25
   6   5  14    1.43    0.26
  -7  -5 -14    0.41    0.24
   7   5  14    0.26    0.24
  -8  -5 -14   -0.14    0.26
   8   5  14   -0.02    0.26
  -8   6  14    1.39    0.34
  -7   6  14    1.70    0.32
  -6   6  14   -0.03    0.21
  -5   6  14   -0.19    0.18
   4  -6 -14    0.10    0.14
   4  -6 -14    0.30    0.15
  -4   6  14    0.42    0.17
   3  -6 -14    0.78    0.17
   3  -6 -14    0.92    0.18
  -3   6  14    0.98    0.18
   2  -6 -14    5.08    0.48
  -2   6  14    6.02    0.49
  -2   6  14    4.74    0.48
   1  -6 -14   -0.01    0.13
  -1   6  14    0.03    0.13
  -1   6  14   -0.06    0.13
   0  -6 -14    1.66    0.25
   0   6  14    2.37    0.24
   0   6  14    2.64    0.27
  -1  -6 -14    1.44    0.21
   1   6  14    1.05    0.21
  -2  -6 -14    0.33    0.16
   2   6  14    0.97    0.19
  -3  -6 -14    1.80    0.25
   3   6  14    1.83    0.26
  -4  -6 -14    0.02    0.17
   4   6  14    0.07    0.18
  -5  -6 -14    0.03    0.18
   5   6  14    0.12    0.19
  -6  -6 -14    1.10    0.25
   6   6  14    0.97    0.25
  -7  -6 -14    0.22    0.24
   7   6  14   -0.09    0.23
  -8  -6 -14    0.13    0.29
   8   6  14    0.27    0.29
  -8   7  14    0.73    0.33
  -7   7  14    0.90    0.29
  -6   7  14    0.26    0.22
  -5   7  14    0.20    0.16
   4  -7 -14    0.03    0.17
  -4   7  14   -0.04    0.18
   3  -7 -14    2.99    0.31
   3  -7 -14    2.68    0.30
  -3   7  14    2.67    0.32
   2  -7 -14    0.16    0.15
  -2   7  14   -0.14    0.15
  -2   7  14    0.00    0.16
   1  -7 -14    0.51    0.16
  -1   7  14    0.37    0.15
  -1   7  14    0.74    0.15
   0  -7 -14   20.44    1.62
   0   7  14   18.23    1.61
  -1  -7 -14    3.19    0.36
   1   7  14    3.69    0.37
  -2  -7 -14    0.35    0.17
   2   7  14    0.25    0.17
  -3  -7 -14    1.18    0.20
   3   7  14    0.54    0.19
  -4  -7 -14    0.06    0.18
   4   7  14    0.11    0.18
  -5  -7 -14    0.25    0.20
   5   7  14    0.26    0.20
  -6  -7 -14   -0.08    0.21
   6   7  14   -0.20    0.21
  -7  -7 -14    0.35    0.27
   7   7  14    0.18    0.26
  -8  -7 -14    0.12    0.30
   8   7  14    0.25    0.32
  -8   8  14    0.09    0.33
  -7   8  14    1.62    0.33
  -6   8  14   -0.03    0.23
  -5   8  14    1.63    0.28
   4  -8 -14    0.65    0.21
  -4   8  14    0.65    0.21
   3  -8 -14    3.87    0.37
  -3   8  14    3.13    0.37
   2  -8 -14    0.34    0.17
  -2   8  14    0.14    0.16
   1  -8 -14   20.41    1.56
  -1   8  14   18.47    1.55
  -1   8  14   17.15    1.55
   0  -8 -14    3.20    0.36
   0   8  14    3.57    0.36
  -1  -8 -14    1.97    0.26
   1   8  14    1.90    0.26
  -2  -8 -14    5.42    0.52
   2   8  14    5.31    0.54
  -3  -8 -14    0.75    0.21
   3   8  14    0.70    0.20
  -4  -8 -14    0.90    0.22
   4   8  14    1.01    0.23
  -5  -8 -14   -0.33    0.20
   5   8  14   -0.13    0.20
  -6  -8 -14    0.85    0.26
   6   8  14    0.16    0.24
  -7  -8 -14    0.29    0.27
   7   8  14    0.24    0.28
  -8   9  14    3.23    0.54
  -7   9  14    0.21    0.29
  -6   9  14    0.31    0.27
   5  -9 -14    0.02    0.22
  -5   9  14   -0.17    0.22
   4  -9 -14    1.14    0.21
  -4   9  14    0.70    0.25
   3  -9 -14    2.46    0.31
  -3   9  14    2.58    0.33
   2  -9 -14    1.09    0.20
  -2   9  14    0.40    0.21
   1  -9 -14    0.91    0.20
  -1   9  14    0.82    0.21
   0  -9 -14   17.70    1.59
   0   9  14   20.16    1.60
  -1  -9 -14    0.48    0.19
   1   9  14    0.47    0.20
  -2  -9 -14    5.34    0.56
   2   9  14    6.35    0.56
  -3  -9 -14    0.03    0.19
   3   9  14    0.25    0.19
  -4  -9 -14    0.26    0.21
   4   9  14    0.25    0.20
  -5  -9 -14   -0.05    0.22
   5   9  14    0.00    0.22
  -6  -9 -14    0.03    0.26
   6   9  14    0.22    0.25
  -7  -9 -14    0.18    0.29
   7   9  14    0.22    0.30
  -7  10  14   -0.03    0.32
  -6  10  14    0.15    0.27
   5 -10 -14    0.47    0.22
  -5  10  14    0.64    0.26
   4 -10 -14    1.48    0.26
  -4  10  14    1.04    0.26
   3 -10 -14    0.22    0.19
  -3  10  14   -0.07    0.19
   2 -10 -14    1.44    0.24
  -2  10  14    1.19    0.23
   1 -10 -14    0.36    0.19
   0 -10 -14    0.78    0.21
  -1 -10 -14    1.36    0.24
   1  10  14    0.99    0.24
  -2 -10 -14    0.33    0.20
   2  10  14    0.54    0.21
  -3 -10 -14    1.22    0.28
   3  10  14    2.11    0.30
  -4 -10 -14    0.16    0.23
   4  10  14    0.34    0.22
  -5 -10 -14    0.36    0.26
   5  10  14    0.36    0.28
  -6 -10 -14    0.09    0.28
   6  10  14   -0.35    0.30
  -7  11  14   -0.08    0.41
  -6  11  14   -0.08    0.29
   5 -11 -14    0.76    0.25
  -5  11  14    0.33    0.28
   4 -11 -14    0.31    0.21
  -4  11  14    0.31    0.25
   3 -11 -14    0.62    0.22
  -3  11  14    0.56    0.28
   2 -11 -14    0.47    0.22
  -2  11  14    0.55    0.22
   1 -11 -14    2.14    0.30
   0 -11 -14    0.21    0.20
  -1 -11 -14    1.11    0.24
  -2 -11 -14   -0.19    0.22
  -3 -11 -14    0.86    0.25
   3  11  14    0.67    0.23
  -4 -11 -14    0.08    0.25
   4  11  14    0.11    0.23
  -5 -11 -14    0.07    0.27
   5  11  14    0.08    0.26
  -6 -11 -14   -0.36    0.29
   6  11  14    0.07    0.31
  -6  12  14    0.74    0.35
   5 -12 -14    0.94    0.28
  -5  12  14    0.51    0.32
   4 -12 -14    4.73    0.48
  -4  12  14    3.88    0.49
   3 -12 -14    0.23    0.23
  -3  12  14   -0.10    0.28
   2 -12 -14   -0.03    0.22
  -2  12  14   -0.15    0.26
   1 -12 -14    0.10    0.21
   0 -12 -14    1.65    0.29
  -1 -12 -14    0.21    0.23
  -2 -12 -14    1.50    0.30
  -3 -12 -14    0.15    0.26
  -4 -12 -14    1.47    0.34
   4  12  14    1.87    0.32
  -5 -12 -14    0.05    0.30
   5  12  14    0.02    0.28
   6  12  14    0.67    0.34
   6 -13 -14    0.27    0.34
   5 -13 -14   -0.01    0.32
  -5  13  14   -0.07    0.34
   4 -13 -14    1.94    0.36
  -4  13  14    1.51    0.37
   3 -13 -14    0.41    0.26
  -3  13  14    0.01    0.30
   2 -13 -14    0.21    0.25
   1 -13 -14    0.71    0.27
   0 -13 -14    3.82    0.45
  -1 -13 -14    0.60    0.26
  -2 -13 -14    0.29    0.27
  -3 -13 -14    0.34    0.29
  -4 -13 -14    0.44    0.31
   5 -14 -14    0.58    0.32
  -5  14  14   -0.18    0.44
   4 -14 -14    0.80    0.32
  -4  14  14    0.45    0.36
   3 -14 -14   -0.18    0.28
  -3  14  14   -0.04    0.32
   2 -14 -14    0.37    0.28
   1 -14 -14    0.46    0.28
   0 -14 -14    0.06    0.26
  -1 -14 -14    0.12    0.29
  -2 -14 -14    0.61    0.30
  -3 -14 -14    0.50    0.32
   3 -15 -14    0.17    0.35
   2 -15 -14   -0.04    0.31
   1 -15 -14    0.04    0.31
   0 -15 -14   -0.08    0.31
   0 -15  15    0.59    0.35
  -1  15 -15    2.52    0.47
  -2  15 -15    0.92    0.40
  -3 -14  15    0.05    0.32
  -2 -14  15    0.06    0.31
  -1 -14  15    0.06    0.31
   0 -14  15    0.22    0.30
   1 -14  15    0.03    0.34
  -2  14 -15    1.90    0.39
  -3  14 -15    0.09    0.34
  -4  14 -15    0.27    0.38
   5  13 -15    0.46    0.38
   4  13 -15    1.67    0.39
  -4 -13  15    0.90    0.36
   3  13 -15    0.03    0.32
  -3 -13  15    0.45    0.31
  -2 -13  15    0.06    0.29
  -1 -13  15   -0.06    0.28
   0 -13  15    0.33    0.27
   1 -13  15    1.79    0.35
  -2  13 -15    0.05    0.28
  -3  13 -15    0.11    0.34
  -4  13 -15    0.62    0.38
   5 -13  15    0.08    0.36
   6  12 -15    0.33    0.39
   5  12 -15    0.10    0.32
  -5 -12  15    0.80    0.34
   4  12 -15    0.59    0.29
  -4 -12  15    0.52    0.24
   3  12 -15    0.04    0.25
  -3 -12  15    0.06    0.28
   2  12 -15    0.50    0.24
  -2 -12  15    0.12    0.26
  -1 -12  15   -0.18    0.23
   0 -12  15    0.83    0.27
   1 -12  15    2.41    0.35
  -2  12 -15    0.84    0.28
  -3  12 -15    0.09    0.26
  -4  12 -15    1.24    0.32
   4 -12  15    0.81    0.31
   5 -12  15    0.52    0.30
   6 -12  15    0.03    0.34
   6  11 -15    0.41    0.35
  -6 -11  15    0.46    0.33
   5  11 -15    0.11    0.29
  -5 -11  15    0.28    0.28
   4  11 -15   -0.16    0.24
  -4 -11  15    0.08    0.26
   3  11 -15    0.72    0.25
  -3 -11  15    0.25    0.25
   2  11 -15    0.01    0.21
  -2 -11  15    0.21    0.24
   1  11 -15    0.31    0.24
  -1 -11  15    0.08    0.22
   0 -11  15    0.10    0.22
   1 -11  15    0.03    0.22
   2 -11  15    0.52    0.23
  -3  11 -15    0.39    0.24
   4 -11  15    0.23    0.23
   5 -11  15    0.38    0.27
   6 -11  15    0.23    0.30
   7  10 -15   -0.35    0.39
  -7 -10  15   -0.12    0.37
   6  10 -15    0.28    0.32
  -6 -10  15    0.12    0.29
   5  10 -15   -0.18    0.25
  -5 -10  15   -0.03    0.25
   4  10 -15    0.09    0.23
  -4 -10  15    0.30    0.26
   3  10 -15    0.56    0.22
  -3 -10  15    0.22    0.22
   2  10 -15    0.96    0.22
  -2 -10  15    0.54    0.23
   1  10 -15    1.84    0.26
  -1 -10  15    1.22    0.26
   0  10 -15   -0.13    0.21
   0 -10  15    0.05    0.20
  -1  10 -15    0.57    0.21
   1 -10  15    0.81    0.23
   2 -10  15    0.14    0.21
  -3  10 -15    0.34    0.23
   3 -10  15    0.52    0.23
   4 -10  15   -0.11    0.24
   5 -10  15    0.76    0.29
   6 -10  15    0.07    0.27
   7 -10  15    0.23    0.33
   7   9 -15    0.43    0.34
  -7  -9  15   -0.08    0.30
   6   9 -15    0.10    0.28
  -6  -9  15    0.02    0.27
   5   9 -15    0.43    0.24
  -5  -9  15    0.26    0.24
   4   9 -15   -0.17    0.20
  -4  -9  15    0.03    0.22
   3   9 -15    0.30    0.20
  -3  -9  15    0.30    0.21
   2   9 -15    0.02    0.19
  -2  -9  15   -0.03    0.19
   1   9 -15   -0.13    0.18
  -1  -9  15   -0.04    0.19
   0   9 -15    2.35    0.29
   0  -9  15    2.07    0.30
  -1   9 -15    1.45    0.27
   1  -9  15    1.76    0.29
  -2   9 -15   -0.09    0.20
   2  -9  15    0.09    0.19
  -3   9 -15    0.08    0.20
   3  -9  15   -0.11    0.17
   4  -9  15    0.01    0.19
   5  -9  15    0.43    0.26
   6  -9  15    0.64    0.27
  -7   9 -15    0.16    0.32
  -8  -8  15    0.27    0.39
   7   8 -15    0.24    0.30
  -7  -8  15    0.32    0.28
   6   8 -15    1.93    0.33
  -6  -8  15    1.40    0.30
   5   8 -15    0.29    0.23
  -5  -8  15    0.70    0.23
   4   8 -15    0.61    0.22
  -4  -8  15    1.04    0.23
   3   8 -15    2.09    0.28
  -3  -8  15    1.60    0.27
   2   8 -15    0.31    0.21
  -2  -8  15    0.21    0.19
   1   8 -15    0.33    0.18
  -1  -8  15    0.09    0.18
   0   8 -15    1.01    0.21
   0  -8  15    1.07    0.22
  -1   8 -15   -0.06    0.19
   1  -8  15    0.07    0.17
  -2   8 -15    7.29    0.65
   2  -8  15    8.00    0.68
   2  -8  15    6.46    0.65
   3  -8  15    0.13    0.18
   3  -8  15   -0.12    0.18
   4  -8  15    0.73    0.22
   5  -8  15    0.16    0.21
  -6   8 -15    0.06    0.25
  -7   8 -15   -0.02    0.29
   8   7 -15    0.79    0.36
  -8  -7  15    0.18    0.35
   7   7 -15    0.43    0.28
  -7  -7  15    0.32    0.26
   6   7 -15    3.27    0.41
  -6  -7  15    3.58    0.42
   5   7 -15    0.19    0.21
  -5  -7  15    0.32    0.21
   4   7 -15    1.74    0.27
  -4  -7  15    1.57    0.26
   3   7 -15    0.05    0.18
  -3  -7  15    0.23    0.18
   2   7 -15    0.04    0.17
  -2  -7  15    0.10    0.17
   1   7 -15    0.73    0.19
  -1  -7  15    0.84    0.20
   0   7 -15    1.18    0.22
   0  -7  15    1.27    0.22
  -1   7 -15    0.23    0.19
   1  -7  15    0.51    0.17
  -2   7 -15    5.86    0.50
   2  -7  15    5.41    0.52
   2  -7  15    5.08    0.52
  -3   7 -15    0.13    0.19
   3  -7  15   -0.02    0.19
   3  -7  15   -0.06    0.17
  -4   7 -15    2.36    0.32
   4  -7  15    3.31    0.35
  -5   7 -15    0.08    0.20
   5  -7  15    0.35    0.32
  -6   7 -15    0.02    0.22
  -7   7 -15    0.21    0.31
  -8   7 -15   -0.25    0.36
   8   6 -15   -0.20    0.30
  -8  -6  15   -0.18    0.27
   7   6 -15    0.47    0.26
  -7  -6  15    0.68    0.26
   6   6 -15    0.78    0.25
  -6  -6  15    1.08    0.21
   5   6 -15    0.43    0.21
  -5  -6  15    0.38    0.19
   4   6 -15    2.15    0.29
  -4  -6  15    2.25    0.29
   3   6 -15    2.15    0.29
  -3  -6  15    2.48    0.30
   2   6 -15    0.02    0.16
  -2  -6  15    0.18    0.16
   1   6 -15    1.74    0.27
  -1  -6  15    3.01    0.29
   0   6 -15    0.37    0.16
   0  -6  15    0.31    0.16
   1  -6  15    3.85    0.39
   1  -6  15    3.84    0.39
  -2   6 -15   -0.04    0.15
   2  -6  15   -0.02    0.16
   2  -6  15    0.13    0.17
  -3   6 -15    0.69    0.18
   3  -6  15    0.97    0.22
  -4   6 -15    1.37    0.22
   4  -6  15    1.01    0.25
  -5   6 -15    0.01    0.18
   5  -6  15    0.19    0.20
  -6   6 -15    0.10    0.21
   6  -6  15    0.18    0.22
  -7   6 -15    0.20    0.26
  -8   6 -15    0.16    0.35
   8   5 -15    0.07    0.29
  -8  -5  15   -0.11    0.27
   7   5 -15    0.14    0.24
  -7  -5  15    0.06    0.22
   6   5 -15    0.09    0.21
  -6  -5  15    0.00    0.20
   5   5 -15    0.22    0.20
  -5  -5  15    0.31    0.18
   4   5 -15    1.13    0.23
  -4  -5  15    1.16    0.19
   3   5 -15    1.42    0.24
  -3  -5  15    1.64    0.23
   2   5 -15    0.55    0.18
  -2  -5  15    0.96    0.19
   1   5 -15    0.02    0.15
  -1  -5  15   -0.05    0.14
   0   5 -15    0.87    0.18
   0  -5  15    0.72    0.17
  -1   5 -15    9.00    0.82
   1  -5  15    9.85    0.83
   1  -5  15   10.29    0.84
  -2   5 -15    0.26    0.14
   2  -5  15    0.43    0.16
   2  -5  15    0.10    0.16
  -3   5 -15    1.16    0.19
   3  -5  15    0.90    0.21
  -4   5 -15    0.16    0.19
   4  -5  15    0.26    0.18
  -5   5 -15    0.26    0.19
   5  -5  15    0.03    0.20
  -6   5 -15    0.18    0.22
   6  -5  15    0.14    0.21
  -7   5 -15    0.20    0.25
   7  -5  15    0.16    0.23
  -8   5 -15    0.96    0.33
   9   4 -15    0.07    0.34
  -9  -4  15   -0.12    0.32
   8   4 -15   -0.10    0.28
  -8  -4  15   -0.11    0.26
   7   4 -15    0.08    0.24
  -7  -4  15    0.05    0.23
   6   4 -15    3.17    0.34
  -6  -4  15    2.11    0.32
   5   4 -15    0.62    0.19
  -5  -4  15    0.27    0.18
   4   4 -15    0.85    0.20
  -4  -4  15    0.56    0.19
   3   4 -15    3.30    0.35
  -3  -4  15    3.08    0.34
   2   4 -15   17.00    1.34
  -2  -4  15   14.84    1.33
   1   4 -15    2.84    0.31
  -1  -4  15    2.73    0.30
   0  -4  15    9.24    0.79
   0  -4  15    8.91    0.78
  -1   4 -15    0.10    0.11
   1  -4  15   -0.05    0.15
   1  -4  15   -0.03    0.14
  -2   4 -15    5.70    0.52
   2  -4  15    5.57    0.51
   2  -4  15    5.63    0.52
  -3   4 -15    0.02    0.15
   3  -4  15    0.03    0.17
  -4   4 -15    6.65    0.59
   4  -4  15    5.85    0.58
  -5   4 -15    1.61    0.27
   5  -4  15    1.59    0.26
  -6   4 -15    0.22    0.21
   6  -4  15   -0.11    0.23
  -7   4 -15    0.97    0.27
   7  -4  15    0.86    0.28
  -8   4 -15    0.22    0.28
   8  -4  15    0.35    0.27
   9   3 -15    0.42    0.35
  -9  -3  15    0.11    0.30
   8   3 -15   -0.11    0.26
  -8  -3  15   -0.18    0.25
   7   3 -15    1.63    0.31
  -7  -3  15    2.25    0.28
   6   3 -15   11.19    0.90
  -6  -3  15    9.06    0.88
   5   3 -15    0.36    0.19
  -5  -3  15    0.48    0.19
   4   3 -15    2.28    0.28
  -4  -3  15    2.08    0.27
   3   3 -15    7.43    0.68
  -3  -3  15    7.66    0.67
   2   3 -15   11.47    0.93
  -2  -3  15   10.23    0.92
   1   3 -15    0.60    0.15
  -1  -3  15    0.49    0.16
   0   3 -15    0.34    0.11
   0  -3  15    0.37    0.13
   0  -3  15    0.14    0.15
  -1   3 -15   19.11    1.62
   1  -3  15   20.26    1.64
   1  -3  15   19.46    1.63
  -2   3 -15    4.61    0.44
   2  -3  15    4.11    0.45
   2  -3  15    5.06    0.43
  -3   3 -15    0.13    0.14
   3  -3  15    0.18    0.18
  -4   3 -15    4.84    0.40
   4  -3  15    2.87    0.39
  -5   3 -15    0.01    0.18
   5  -3  15    0.12    0.18
  -6   3 -15    0.18    0.20
   6  -3  15    0.04    0.19
  -7   3 -15   -0.11    0.22
   7  -3  15   -0.16    0.22
  -8   3 -15    0.13    0.26
   8  -3  15   -0.22    0.26
   9  -3  15    0.90    0.37
   9   2 -15   -0.44    0.32
  -9  -2  15    0.11    0.31
   8   2 -15    0.17    0.26
  -8  -2  15   -0.11    0.24
   7   2 -15    0.02    0.22
  -7  -2  15    0.44    0.22
   6   2 -15    0.70    0.21
  -6  -2  15    0.50    0.20
   5   2 -15    5.48    0.51
  -5  -2  15    4.83    0.50
   4   2 -15    4.94    0.48
  -4  -2  15    4.86    0.47
   3   2 -15   14.45    1.15
  -3  -2  15   12.76    1.14
   2   2 -15    3.24    0.34
  -2  -2  15    3.24    0.33
  -1  -2  15    1.25    0.19
  -1  -2  15    2.00    0.23
   0   2 -15    0.22    0.12
   0  -2  15    0.73    0.14
   0  -2  15    0.29    0.12
  -1   2 -15    1.12    0.17
   1  -2  15    1.12    0.18
   1  -2  15    1.59    0.18
  -2   2 -15    0.03    0.12
   2  -2  15   -0.20    0.14
  -3   2 -15    8.86    0.78
   3  -2  15    9.12    0.79
  -4   2 -15    0.81    0.18
   4  -2  15    1.04    0.21
  -5   2 -15    2.43    0.32
   5  -2  15    3.48    0.35
  -6   2 -15    1.28    0.24
   6  -2  15    1.24    0.25
  -7   2 -15    0.06    0.22
   7  -2  15   -0.07    0.22
  -8   2 -15    2.32    0.36
   8  -2  15    2.24    0.36
   9  -2  15    0.04    0.31
   9   1 -15    0.15    0.31
  -9  -1  15   -0.30    0.30
   8   1 -15    0.27    0.29
  -8  -1  15    0.38    0.26
   7   1 -15    0.17    0.22
  -7  -1  15    0.57    0.22
   6   1 -15    3.30    0.38
  -6  -1  15    3.26    0.36
   5   1 -15    0.22    0.17
  -5  -1  15    0.34    0.14
   4   1 -15   -0.18    0.15
  -4  -1  15   -0.01    0.15
   3   1 -15    0.23    0.12
  -3  -1  15   -0.02    0.13
   2   1 -15   24.94    1.96
  -2  -1  15   22.29    1.95
  -1  -1  15    0.16    0.13
  -1  -1  15    0.05    0.13
   0   1 -15    2.70    0.29
   0  -1  15    3.09    0.30
   0  -1  15    3.01    0.31
  -1   1 -15    2.25    0.26
   1  -1  15    2.51    0.28
   1  -1  15    2.55    0.26
  -2   1 -15    5.14    0.46
   2  -1  15    4.70    0.47
  -3   1 -15    0.19    0.14
   3  -1  15    0.30    0.17
  -4   1 -15    1.17    0.21
   4  -1  15    1.57    0.24
  -5   1 -15    2.25    0.29
   5  -1  15    2.31    0.30
  -6   1 -15    2.73    0.34
   6  -1  15    2.94    0.36
  -7   1 -15    0.05    0.22
   7  -1  15    0.18    0.25
  -8   1 -15    0.43    0.27
   8  -1  15    0.44    0.26
   9  -1  15   -0.11    0.30
   9   0 -15    0.30    0.31
  -9   0  15   -0.29    0.29
   8   0 -15   -0.05    0.24
  -8   0  15    0.08    0.24
   7   0 -15    0.95    0.25
  -7   0  15    0.99    0.24
   6   0 -15    0.33    0.19
  -6   0  15    0.42    0.20
   5   0 -15    0.68    0.19
  -5   0  15    0.83    0.19
   4   0 -15    2.01    0.25
  -4   0  15    1.68    0.24
   3   0 -15   14.19    1.17
  -3   0  15   13.50    1.17
   2   0 -15   10.52    0.90
  -2   0  15   10.52    0.90
   1   0 -15    0.50    0.12
  -1   0  15    0.51    0.13
  -1   0  15    0.41    0.15
   0   0 -15    1.14    0.16
   0   0  15    1.03    0.17
   0   0  15    1.33    0.20
  -1   0 -15   15.64    1.28
   1   0  15   14.97    1.27
  -2   0 -15    0.35    0.13
   2   0  15    0.26    0.16
  -3   0 -15   -0.10    0.13
   3   0  15    0.08    0.16
  -4   0 -15    5.77    0.51
   4   0  15    5.09    0.52
  -5   0 -15    4.76    0.51
   5   0  15    5.92    0.53
  -6   0 -15    0.87    0.23
   6   0  15    1.22    0.24
  -7   0 -15    0.63    0.24
   7   0  15    0.88    0.24
  -8   0 -15    0.24    0.26
   8   0  15   -0.02    0.25
   9   0  15   -0.13    0.33
   9  -1 -15    0.43    0.32
  -9   1  15    0.64    0.31
   8  -1 -15    0.17    0.25
  -8   1  15    0.13    0.25
   7  -1 -15    1.76    0.29
  -7   1  15    1.75    0.29
   6  -1 -15   -0.09    0.18
  -6   1  15    0.08    0.14
   5  -1 -15   -0.19    0.16
  -5   1  15    0.07    0.16
   4  -1 -15    0.21    0.16
  -4   1  15    0.24    0.15
   3  -1 -15   10.25    0.89
  -3   1  15   10.22    0.88
   2  -1 -15    1.39    0.20
  -2   1  15    1.19    0.19
   1  -1 -15    0.71    0.13
  -1   1  15    0.59    0.16
  -1   1  15    0.59    0.13
   0  -1 -15   -0.01    0.12
   0   1  15   -0.08    0.13
   0   1  15    0.07    0.11
  -1  -1 -15    0.39    0.13
   1   1  15    0.76    0.16
  -2  -1 -15    0.32    0.15
   2   1  15    0.29    0.15
  -3  -1 -15    0.02    0.14
   3   1  15   -0.02    0.15
  -4  -1 -15    0.67    0.17
   4   1  15    0.43    0.19
  -5  -1 -15    0.96    0.20
   5   1  15    0.84    0.21
  -6  -1 -15    0.33    0.19
   6   1  15    0.53    0.21
  -7  -1 -15    0.21    0.22
   7   1  15   -0.02    0.22
  -8  -1 -15    0.22    0.25
   8   1  15    0.35    0.25
   9   1  15    0.19    0.34
  -9   2  15    0.60    0.33
   8  -2 -15   -0.15    0.24
  -8   2  15    0.00    0.24
   7  -2 -15    0.50    0.25
  -7   2  15    0.13    0.22
   6  -2 -15    3.76    0.36
  -6   2  15    2.42    0.34
   5  -2 -15    0.06    0.16
  -5   2  15    0.13    0.17
   4  -2 -15    0.53    0.17
  -4   2  15    0.36    0.16
   3  -2 -15    1.18    0.19
  -3   2  15    0.71    0.16
   2  -2 -15   15.16    1.22
  -2   2  15   13.82    1.22
  -2   2  15   14.61    1.23
   1  -2 -15    0.28    0.12
  -1   2  15    0.11    0.14
  -1   2  15    0.11    0.12
   0  -2 -15    1.03    0.18
   0   2  15    1.14    0.19
   0   2  15    1.58    0.18
  -1  -2 -15    1.55    0.20
   1   2  15    1.12    0.20
  -2  -2 -15    1.44    0.23
   2   2  15    2.10    0.25
  -3  -2 -15    5.88    0.55
   3   2  15    6.35    0.57
  -4  -2 -15    0.73    0.18
   4   2  15    0.30    0.15
  -5  -2 -15    1.45    0.23
   5   2  15    1.01    0.23
  -6  -2 -15    1.67    0.27
   6   2  15    2.11    0.29
  -7  -2 -15   -0.05    0.21
   7   2  15   -0.12    0.21
  -8  -2 -15    0.10    0.26
   8   2  15    0.21    0.26
  -9   3  15   -0.11    0.31
  -8   3  15    0.18    0.26
   7  -3 -15    0.31    0.21
  -7   3  15    0.16    0.23
   6  -3 -15    0.06    0.18
  -6   3  15   -0.07    0.14
   5  -3 -15    0.06    0.16
  -5   3  15    0.10    0.17
   4  -3 -15    2.03    0.24
  -4   3  15    1.39    0.23
   3  -3 -15    0.78    0.17
  -3   3  15    0.71    0.18
   2  -3 -15    0.26    0.13
  -2   3  15    0.54    0.15
  -2   3  15    0.34    0.13
   1  -3 -15    5.31    0.47
  -1   3  15    5.27    0.48
  -1   3  15    5.02    0.47
   0  -3 -15    1.21    0.18
   0   3  15    0.98    0.16
   0   3  15    1.57    0.21
  -1  -3 -15   15.73    1.25
   1   3  15   13.99    1.26
  -2  -3 -15    0.34    0.15
   2   3  15    0.25    0.16
  -3  -3 -15   -0.05    0.15
   3   3  15   -0.02    0.16
  -4  -3 -15    0.44    0.18
   4   3  15    0.24    0.15
  -5  -3 -15    1.53    0.27
   5   3  15    2.69    0.30
  -6  -3 -15    0.12    0.20
   6   3  15    0.28    0.21
  -7  -3 -15   -0.02    0.22
   7   3  15   -0.09    0.23
  -8  -3 -15    0.41    0.27
   8   3  15    0.15    0.27
  -9   4  15    0.06    0.33
  -8   4  15   -0.10    0.26
  -7   4  15    1.42    0.29
   6  -4 -15    2.04    0.27
  -6   4  15    1.63    0.28
   5  -4 -15   -0.05    0.16
  -5   4  15   -0.07    0.18
   4  -4 -15    1.78    0.23
  -4   4  15    1.03    0.22
   3  -4 -15    1.54    0.21
  -3   4  15    1.05    0.20
   2  -4 -15    0.61    0.16
  -2   4  15    0.51    0.16
  -2   4  15    0.46    0.16
   1  -4 -15   12.56    1.04
  -1   4  15   11.52    1.04
  -1   4  15   12.52    1.03
   0  -4 -15    0.10    0.12
   0   4  15    0.02    0.15
   0   4  15    0.15    0.11
  -1  -4 -15   18.05    1.50
   1   4  15   17.71    1.51
  -2  -4 -15    0.40    0.15
   2   4  15    0.49    0.17
  -3  -4 -15    2.38    0.27
   3   4  15    1.98    0.28
  -4  -4 -15    0.34    0.18
   4   4  15    0.44    0.19
  -5  -4 -15    0.31    0.19
   5   4  15    0.47    0.20
  -6  -4 -15    0.50    0.22
   6   4  15    0.66    0.22
  -7  -4 -15    0.30    0.24
   7   4  15   -0.04    0.24
  -8  -4 -15    0.30    0.28
   8   4  15    0.43    0.28
  -8   5  15   -0.05    0.21
  -7   5  15    0.34    0.26
  -6   5  15    1.88    0.30
   5  -5 -15    0.07    0.19
  -5   5  15    0.05    0.19
   4  -5 -15    1.19    0.20
  -4   5  15    0.86    0.23
   3  -5 -15    1.01    0.19
   3  -5 -15    0.68    0.17
  -3   5  15    0.81    0.18
   2  -5 -15    0.78    0.17
  -2   5  15    0.76    0.16
  -2   5  15    0.60    0.17
   1  -5 -15    3.68    0.36
  -1   5  15    3.52    0.36
  -1   5  15    3.35    0.35
   0  -5 -15    1.81    0.24
   0   5  15    1.66    0.25
  -1  -5 -15    0.31    0.15
   1   5  15    0.34    0.17
  -2  -5 -15    1.93    0.24
   2   5  15    1.44    0.24
  -3  -5 -15    3.74    0.37
   3   5  15    3.33    0.38
  -4  -5 -15    0.18    0.18
   4   5  15    0.32    0.19
  -5  -5 -15    1.20    0.23
   5   5  15    0.65    0.22
  -6  -5 -15   -0.09    0.21
   6   5  15   -0.09    0.20
  -7  -5 -15    0.19    0.24
   7   5  15    0.18    0.24
  -8  -5 -15   -0.19    0.28
   8   5  15   -0.12    0.27
  -8   6  15   -0.08    0.31
  -7   6  15   -0.04    0.26
  -6   6  15    0.57    0.19
  -5   6  15    0.59    0.22
   4  -6 -15    0.76    0.20
  -4   6  15    0.51    0.20
   3  -6 -15    0.57    0.17
   3  -6 -15    0.60    0.18
  -3   6  15    0.53    0.18
   2  -6 -15   -0.23    0.14
  -2   6  15    0.20    0.16
  -2   6  15    0.05    0.15
   1  -6 -15    0.41    0.15
  -1   6  15    0.26    0.16
  -1   6  15    0.29    0.13
   0  -6 -15    6.07    0.53
   0   6  15    5.29    0.54
  -1  -6 -15    1.24    0.19
   1   6  15    0.55    0.18
  -2  -6 -15   -0.03    0.16
   2   6  15   -0.13    0.17
  -3  -6 -15    0.44    0.19
   3   6  15    1.11    0.22
  -4  -6 -15    0.19    0.18
   4   6  15    0.08    0.18
  -5  -6 -15    0.42    0.21
   5   6  15    0.25    0.20
  -6  -6 -15    0.52    0.23
   6   6  15    0.07    0.22
  -7  -6 -15    0.40    0.26
   7   6  15    0.56    0.28
  -8   7  15   -0.17    0.33
  -7   7  15    0.13    0.28
  -6   7  15    0.74    0.26
  -5   7  15    0.25    0.21
   4  -7 -15   -0.06    0.19
  -4   7  15    0.10    0.19
   3  -7 -15    0.49    0.17
   3  -7 -15    0.67    0.19
  -3   7  15    0.35    0.18
   2  -7 -15    1.50    0.20
  -2   7  15    0.91    0.21
  -2   7  15    0.81    0.19
   1  -7 -15    1.79    0.24
  -1   7  15    2.14    0.23
  -1   7  15    1.48    0.26
   0  -7 -15    0.52    0.19
   0   7  15    0.14    0.16
  -1  -7 -15    0.75    0.19
   1   7  15    0.96    0.22
  -2  -7 -15    1.49    0.23
   2   7  15    1.21    0.23
  -3  -7 -15   -0.10    0.18
   3   7  15   -0.01    0.19
  -4  -7 -15    2.51    0.30
   4   7  15    1.59    0.28
  -5  -7 -15    0.35    0.22
   5   7  15    0.53    0.22
  -6  -7 -15    0.01    0.23
   6   7  15    0.28    0.24
  -7  -7 -15    0.98    0.33
   7   7  15    0.72    0.30
  -8   8  15    0.50    0.42
  -7   8  15    2.63    0.41
  -6   8  15    0.30    0.25
  -5   8  15    0.09    0.21
   4  -8 -15   -0.11    0.17
  -4   8  15   -0.20    0.19
   3  -8 -15    0.10    0.20
  -3   8  15   -0.17    0.17
   2  -8 -15   -0.07    0.17
  -2   8  15    0.00    0.16
   1  -8 -15   14.73    1.21
  -1   8  15   13.08    1.21
  -1   8  15   14.59    1.20
   0  -8 -15    3.14    0.34
   0   8  15    3.02    0.34
  -1  -8 -15   16.65    1.38
   1   8  15   15.92    1.38
  -2  -8 -15   -0.01    0.18
   2   8  15    0.08    0.18
  -3  -8 -15    0.57    0.20
   3   8  15    0.31    0.20
  -4  -8 -15    1.35    0.27
   4   8  15    2.16    0.31
  -5  -8 -15    0.07    0.22
   5   8  15    0.13    0.22
  -6  -8 -15   -0.13    0.25
   6   8  15    0.00    0.25
  -7  -8 -15    0.71    0.30
   7   8  15    0.24    0.31
  -7   9  15    0.10    0.32
  -6   9  15    2.22    0.37
  -5   9  15   -0.15    0.24
   4  -9 -15    3.24    0.38
  -4   9  15    3.24    0.39
   3  -9 -15    0.23    0.19
  -3   9  15    0.41    0.20
   2  -9 -15    1.60    0.25
  -2   9  15    1.40    0.26
   1  -9 -15    1.38    0.24
   0  -9 -15    0.34    0.19
   0   9  15    0.03    0.19
  -1  -9 -15    0.66    0.21
   1   9  15    1.08    0.21
  -2  -9 -15    1.42    0.25
   2   9  15    1.35    0.25
  -3  -9 -15    0.83    0.23
   3   9  15    1.05    0.24
  -4  -9 -15    0.19    0.22
   4   9  15   -0.13    0.21
  -5  -9 -15    0.19    0.25
   5   9  15    0.36    0.24
  -6  -9 -15    0.16    0.27
   6   9  15    0.17    0.31
  -7  10  15    0.27    0.34
  -6  10  15   -0.20    0.30
  -5  10  15   -0.16    0.25
   4 -10 -15   -0.06    0.20
  -4  10  15   -0.17    0.22
   3 -10 -15    0.98    0.24
  -3  10  15    1.07    0.24
   2 -10 -15    0.56    0.23
  -2  10  15    0.41    0.23
   1 -10 -15    0.00    0.19
   0 -10 -15    1.75    0.29
  -1 -10 -15    0.41    0.20
   1  10  15    0.48    0.22
  -2 -10 -15    0.00    0.21
   2  10  15    0.01    0.23
  -3 -10 -15    0.36    0.23
   3  10  15    0.01    0.22
  -4 -10 -15    0.15    0.25
   4  10  15    0.27    0.27
  -5 -10 -15    0.36    0.28
   5  10  15    0.12    0.26
  -6 -10 -15    0.11    0.34
   6  10  15    0.23    0.31
  -6  11  15   -0.25    0.32
   5 -11 -15    0.19    0.25
  -5  11  15   -0.22    0.29
   4 -11 -15    0.25    0.23
  -4  11  15    0.11    0.24
   3 -11 -15    1.67    0.28
  -3  11  15    1.56    0.31
   2 -11 -15    0.23    0.22
  -2  11  15   -0.23    0.25
   1 -11 -15   -0.07    0.23
   0 -11 -15    1.09    0.26
  -1 -11 -15    2.73    0.36
  -2 -11 -15    0.13    0.24
  -3 -11 -15    0.37    0.25
   3  11  15    0.12    0.27
  -4 -11 -15    0.30    0.27
   4  11  15    0.52    0.26
  -5 -11 -15    1.25    0.33
   5  11  15    0.51    0.33
   6  11  15    0.02    0.37
  -6  12  15    0.88    0.39
   5 -12 -15    0.84    0.30
  -5  12  15    0.67    0.33
   4 -12 -15    0.58    0.26
  -4  12  15   -0.30    0.33
   3 -12 -15   -0.07    0.23
  -3  12  15   -0.08    0.28
   2 -12 -15    3.69    0.44
   1 -12 -15    1.99    0.32
   0 -12 -15    0.67    0.25
  -1 -12 -15    0.37    0.25
  -2 -12 -15    1.55    0.31
  -3 -12 -15    0.29    0.28
  -4 -12 -15    2.51    0.40
   4  12  15    2.34    0.38
   5  12  15    0.30    0.36
   5 -13 -15    0.07    0.36
  -5  13  15   -0.42    0.34
   4 -13 -15    0.32    0.32
  -4  13  15   -0.28    0.31
   3 -13 -15    1.68    0.32
  -3  13  15    0.95    0.34
   2 -13 -15    1.69    0.33
   1 -13 -15   -0.18    0.25
   0 -13 -15   -0.02    0.25
  -1 -13 -15    0.15    0.28
  -2 -13 -15    0.15    0.27
  -3 -13 -15    0.06    0.30
   4 -14 -15    0.08    0.32
  -4  14  15   -0.26    0.35
   3 -14 -15    1.56    0.36
   2 -14 -15    0.87    0.31
   1 -14 -15   -0.24    0.30
   0 -14 -15   -0.26    0.28
  -1 -14 -15    0.07    0.30
  -2 -14 -15    0.37    0.32
  -2 -14  16    0.48    0.40
  -1 -14  16   -0.34    0.32
   0 -14  16    0.64    0.35
   1 -14  16   -0.12    0.31
  -2  14 -16    0.18    0.41
  -3  14 -16    0.03    0.38
   4  13 -16    0.09    0.34
   3  13 -16    0.05    0.31
  -3 -13  16    0.30    0.33
  -2 -13  16    0.08    0.31
  -1 -13  16    1.03    0.33
   0 -13  16    0.26    0.29
   1 -13  16    0.24    0.29
  -2  13 -16    0.26    0.36
  -3  13 -16    1.80    0.39
   5  12 -16    1.29    0.42
   4  12 -16    0.38    0.30
  -4 -12  16    0.38    0.30
   3  12 -16    0.33    0.28
  -3 -12  16   -0.09    0.28
   2  12 -16    0.21    0.29
  -2 -12  16   -0.09    0.26
  -1 -12  16    2.37    0.38
   0 -12  16    0.48    0.27
   1 -12  16    0.27    0.27
  -3  12 -16    1.95    0.40
   5 -12  16    0.46    0.35
   6  11 -16   -0.14    0.36
   5  11 -16   -0.09    0.34
  -5 -11  16   -0.05    0.30
   4  11 -16    0.00    0.27
  -4 -11  16   -0.87    0.27
   3  11 -16    0.13    0.24
  -3 -11  16    0.21    0.26
   2  11 -16    0.38    0.23
  -2 -11  16    0.32    0.26
   1  11 -16    0.10    0.25
  -1 -11  16    0.41    0.25
   0 -11  16    0.50    0.24
   1 -11  16    0.10    0.24
   2 -11  16   -0.05    0.27
  -3  11 -16    0.26    0.25
   4 -11  16    0.60    0.25
   5 -11  16   -0.07    0.31
   6 -11  16    0.30    0.32
   6  10 -16    0.21    0.33
  -6 -10  16    0.02    0.30
   5  10 -16    0.30    0.28
  -5 -10  16    0.64    0.28
   4  10 -16    0.12    0.28
  -4 -10  16   -0.09    0.25
   3  10 -16    0.08    0.23
  -3 -10  16   -0.07    0.23
   2  10 -16    0.18    0.21
  -2 -10  16    0.14    0.23
   1  10 -16    1.84    0.28
  -1 -10  16    1.77    0.30
   0  10 -16    0.73    0.22
   0 -10  16    0.75    0.24
  -1  10 -16    0.07    0.24
   1 -10  16    0.23    0.22
   2 -10  16    1.28    0.30
  -3  10 -16    1.81    0.31
   4 -10  16   -0.02    0.25
   5 -10  16   -0.15    0.25
   6 -10  16    0.12    0.31
   7   9 -16    0.05    0.38
  -7  -9  16   -0.04    0.31
   6   9 -16    0.24    0.30
  -6  -9  16    0.70    0.29
   5   9 -16    0.37    0.26
  -5  -9  16    0.19    0.25
   4   9 -16    0.45    0.23
  -4  -9  16    0.18    0.23
   3   9 -16    0.21    0.21
  -3  -9  16    0.38    0.23
   2   9 -16    0.72    0.22
  -2  -9  16    0.55    0.22
   1   9 -16    1.33    0.27
  -1  -9  16    1.52    0.27
   0   9 -16    2.21    0.28
   0  -9  16    1.37    0.27
  -1   9 -16    0.30    0.20
   1  -9  16    0.47    0.22
  -2   9 -16    5.87    0.57
   2  -9  16    6.08    0.59
  -3   9 -16    1.16    0.31
   3  -9  16    1.13    0.25
   4  -9  16    0.14    0.20
   5  -9  16    0.18    0.24
  -6   9 -16    1.74    0.38
  -7   9 -16   -0.14    0.33
   7   8 -16    0.25    0.32
  -7  -8  16    0.19    0.29
   6   8 -16   -0.04    0.26
  -6  -8  16   -0.19    0.24
   5   8 -16    0.32    0.25
  -5  -8  16   -0.01    0.22
   4   8 -16    0.14    0.22
  -4  -8  16    0.14    0.22
   3   8 -16    0.03    0.20
  -3  -8  16    0.27    0.20
   2   8 -16    0.03    0.19
  -2  -8  16   -0.03    0.20
   1   8 -16    0.01    0.19
  -1  -8  16    0.21    0.19
   0   8 -16    0.80    0.24
   0  -8  16    0.83    0.22
  -1   8 -16    1.60    0.26
   1  -8  16    1.26    0.26
  -2   8 -16    1.11    0.26
   2  -8  16    1.36    0.24
  -3   8 -16    1.40    0.24
   3  -8  16    0.91    0.25
  -4   8 -16    0.17    0.23
  -5   8 -16    0.11    0.23
  -6   8 -16    0.02    0.25
  -7   8 -16    0.33    0.32
   7   7 -16   -0.03    0.29
  -7  -7  16    0.09    0.27
   6   7 -16    0.59    0.27
  -6  -7  16    0.59    0.26
   5   7 -16    0.08    0.22
  -5  -7  16    0.17    0.23
   4   7 -16    0.23    0.20
  -4  -7  16    0.17    0.20
   3   7 -16    1.85    0.29
  -3  -7  16    2.38    0.30
   2   7 -16    0.45    0.20
  -2  -7  16    0.89    0.21
   1   7 -16    0.16    0.18
  -1  -7  16    0.22    0.18
   0   7 -16    0.71    0.22
   0  -7  16    0.43    0.21
  -1   7 -16    0.14    0.18
   1  -7  16   -0.06    0.17
  -2   7 -16    3.42    0.45
   2  -7  16    3.46    0.37
   2  -7  16    2.93    0.36
  -3   7 -16    1.35    0.24
   3  -7  16    2.17    0.29
  -4   7 -16    0.04    0.19
   4  -7  16    0.07    0.20
  -5   7 -16    0.41    0.22
  -6   7 -16    0.01    0.24
  -7   7 -16    1.27    0.34
   8   6 -16    0.21    0.32
  -8  -6  16   -0.28    0.28
   7   6 -16    0.53    0.29
  -7  -6  16    0.03    0.26
   6   6 -16    0.51    0.24
  -6  -6  16    0.28    0.23
   5   6 -16   -0.12    0.20
  -5  -6  16    0.01    0.15
   4   6 -16   -0.11    0.19
  -4  -6  16    0.08    0.19
   3   6 -16    0.41    0.18
  -3  -6  16    0.16    0.18
   2   6 -16    1.08    0.22
  -2  -6  16    0.94    0.21
   1   6 -16    0.20    0.17
  -1  -6  16    0.07    0.16
   0   6 -16    0.43    0.18
   0  -6  16    0.35    0.17
   1  -6  16    2.83    0.33
   1  -6  16    3.12    0.34
  -2   6 -16    6.32    0.57
   2  -6  16    6.12    0.58
   2  -6  16    6.07    0.58
  -3   6 -16    1.55    0.23
   3  -6  16    1.57    0.25
  -4   6 -16    0.14    0.19
   4  -6  16   -0.24    0.22
  -5   6 -16   -0.19    0.19
   5  -6  16    0.05    0.24
  -6   6 -16   -0.08    0.23
   6  -6  16   -0.17    0.23
  -7   6 -16   -0.07    0.27
   8   5 -16    0.20    0.32
  -8  -5  16    0.07    0.29
   7   5 -16    0.04    0.26
  -7  -5  16   -0.16    0.24
   6   5 -16    0.37    0.23
  -6  -5  16    0.05    0.21
   5   5 -16    0.08    0.19
  -5  -5  16    0.11    0.19
   4   5 -16   -0.04    0.18
  -4  -5  16    0.02    0.18
   3   5 -16    0.05    0.17
  -3  -5  16    0.06    0.17
   2   5 -16    0.41    0.18
  -2  -5  16    0.01    0.15
   1   5 -16    4.05    0.42
  -1  -5  16    4.00    0.41
   0   5 -16    0.67    0.18
   0  -5  16    0.69    0.19
   1  -5  16    0.10    0.17
   1  -5  16    0.14    0.17
  -2   5 -16    2.64    0.26
   2  -5  16    1.67    0.25
   2  -5  16    1.73    0.26
  -3   5 -16    0.59    0.17
   3  -5  16    0.26    0.18
  -4   5 -16   -0.03    0.18
   4  -5  16   -0.09    0.22
  -5   5 -16    0.06    0.20
   5  -5  16    0.10    0.23
  -6   5 -16    0.13    0.22
   6  -5  16    0.33    0.23
  -7   5 -16    0.06    0.26
   7  -5  16    0.29    0.26
  -8   5 -16   -0.15    0.31
   8   4 -16    1.10    0.33
  -8  -4  16    0.71    0.30
   7   4 -16   -0.02    0.24
  -7  -4  16    0.16    0.24
   6   4 -16    0.21    0.22
  -6  -4  16    0.16    0.21
   5   4 -16    0.38    0.19
  -5  -4  16   -0.03    0.19
   4   4 -16    1.87    0.26
  -4  -4  16    1.66    0.26
   3   4 -16    0.35    0.18
  -3  -4  16    0.36    0.16
   2   4 -16    0.16    0.17
  -2  -4  16    0.34    0.16
   1   4 -16   -0.17    0.15
  -1  -4  16    0.01    0.14
   0  -4  16    5.31    0.46
   0  -4  16    4.33    0.45
  -1   4 -16    0.98    0.18
   1  -4  16    1.25    0.18
   1  -4  16    1.17    0.21
  -2   4 -16    1.69    0.22
   2  -4  16    1.60    0.25
  -3   4 -16    2.14    0.26
   3  -4  16    1.70    0.27
  -4   4 -16   -0.24    0.16
   4  -4  16   -0.02    0.18
  -5   4 -16   -0.03    0.18
   5  -4  16    0.11    0.21
  -6   4 -16    0.02    0.22
   6  -4  16    0.00    0.21
  -7   4 -16    0.29    0.26
   7  -4  16    0.43    0.25
  -8   4 -16    0.54    0.31
   8  -4  16    0.57    0.35
   9   3 -16   -0.13    0.35
   8   3 -16    0.26    0.29
  -8  -3  16    0.14    0.27
   7   3 -16    0.25    0.24
  -7  -3  16    0.52    0.23
   6   3 -16    0.27    0.22
  -6  -3  16    0.06    0.20
   5   3 -16    0.53    0.21
  -5  -3  16    0.36    0.19
   4   3 -16    5.07    0.48
  -4  -3  16    4.52    0.45
   3   3 -16    0.35    0.18
  -3  -3  16    0.10    0.15
   2   3 -16    1.08    0.20
  -2  -3  16    0.84    0.18
   1   3 -16   10.51    0.92
  -1  -3  16   10.61    0.91
   0  -3  16    1.18    0.20
   0  -3  16    1.07    0.18
  -1   3 -16    1.48    0.21
   1  -3  16    1.66    0.22
   1  -3  16    1.58    0.23
  -2   3 -16    1.07    0.19
   2  -3  16    1.36    0.22
  -3   3 -16    0.16    0.17
   3  -3  16    0.28    0.18
  -4   3 -16    0.18    0.16
   4  -3  16   -0.12    0.18
  -5   3 -16    1.58    0.26
   5  -3  16    2.03    0.28
  -6   3 -16    0.10    0.21
   6  -3  16    0.09    0.21
  -7   3 -16    0.38    0.25
   7  -3  16    0.20    0.28
  -8   3 -16   -0.13    0.29
   8  -3  16   -0.23    0.27
   9   2 -16   -0.34    0.38
  -9  -2  16    0.17    0.36
   8   2 -16    1.06    0.31
  -8  -2  16    1.39    0.31
   7   2 -16    0.84    0.29
  -7  -2  16    0.85    0.25
   6   2 -16    1.65    0.27
  -6  -2  16    1.17    0.25
   5   2 -16    2.31    0.32
  -5  -2  16    2.95    0.32
   4   2 -16    0.08    0.16
  -4  -2  16    0.17    0.16
   3   2 -16    0.02    0.16
  -3  -2  16   -0.03    0.15
   2   2 -16    1.50    0.23
  -2  -2  16    1.54    0.21
   1   2 -16    3.78    0.36
  -1  -2  16    3.09    0.34
   0  -2  16    9.54    0.87
   0  -2  16   10.81    0.88
  -1   2 -16    0.51    0.15
   1  -2  16    0.58    0.18
   1  -2  16    0.78    0.16
  -2   2 -16    0.11    0.13
   2  -2  16   -0.01    0.17
  -3   2 -16    0.21    0.17
   3  -2  16    0.05    0.17
  -4   2 -16    0.36    0.17
   4  -2  16    0.33    0.19
  -5   2 -16    1.84    0.30
   5  -2  16    2.43    0.31
  -6   2 -16   -0.08    0.20
   6  -2  16    0.05    0.21
  -7   2 -16    0.54    0.26
   7  -2  16    0.02    0.24
  -8   2 -16    0.02    0.28
   8  -2  16    0.46    0.29
   9   1 -16   -0.26    0.33
  -9  -1  16    0.09    0.32
   8   1 -16    1.71    0.34
  -8  -1  16    1.57    0.33
   7   1 -16    0.52    0.25
  -7  -1  16    0.24    0.22
   6   1 -16    2.12    0.30
  -6  -1  16    1.74    0.28
   5   1 -16    1.31    0.23
  -5  -1  16    1.12    0.22
   4   1 -16    1.05    0.20
  -4  -1  16    0.83    0.19
   3   1 -16    1.57    0.22
  -3  -1  16    0.99    0.19
   2   1 -16    0.05    0.15
  -2  -1  16   -0.02    0.13
  -1  -1  16    6.18    0.57
  -1  -1  16    6.35    0.57
   0   1 -16   10.89    0.96
   0  -1  16   11.08    0.96
   0  -1  16   12.50    0.98
  -1   1 -16    0.59    0.14
   1  -1  16    1.11    0.16
   1  -1  16    0.39    0.17
  -2   1 -16   20.80    1.72
   2  -1  16   20.48    1.73
  -3   1 -16    0.93    0.18
   3  -1  16    0.92    0.21
  -4   1 -16    0.25    0.17
   4  -1  16    0.03    0.18
  -5   1 -16    0.51    0.22
   5  -1  16    0.15    0.20
  -6   1 -16   -0.14    0.20
   6  -1  16    0.07    0.21
  -7   1 -16    0.09    0.24
   7  -1  16   -0.18    0.23
  -8   1 -16   -0.05    0.28
   8  -1  16    0.36    0.32
   9   0 -16   -0.15    0.32
  -9   0  16    0.26    0.33
   8   0 -16    0.25    0.27
  -8   0  16    0.49    0.27
   7   0 -16    0.07    0.25
  -7   0  16    0.22    0.22
   6   0 -16    1.68    0.26
  -6   0  16    1.12    0.25
   5   0 -16    1.72    0.29
  -5   0  16    2.77    0.28
   4   0 -16    9.96    0.83
  -4   0  16    9.03    0.81
   3   0 -16    0.38    0.17
  -3   0  16    0.33    0.15
   2   0 -16    0.11    0.15
  -2   0  16   -0.01    0.12
  -1   0  16   19.79    1.63
  -1   0  16   19.21    1.64
   0   0 -16    1.27    0.18
   0   0  16    1.33    0.19
   0   0  16    1.69    0.22
  -1   0 -16    0.23    0.13
   1   0  16    0.77    0.18
  -2   0 -16   18.68    1.58
   2   0  16   19.32    1.60
  -3   0 -16    3.61    0.35
   3   0  16    3.12    0.37
  -4   0 -16    0.03    0.16
   4   0  16   -0.21    0.18
  -5   0 -16    0.78    0.20
   5   0  16    0.42    0.21
  -6   0 -16   -0.07    0.20
   6   0  16    0.03    0.21
  -7   0 -16    1.67    0.31
   7   0  16    2.08    0.32
  -8   0 -16   -0.38    0.28
   8   0  16    0.19    0.28
   9  -1 -16    0.10    0.33
  -9   1  16    0.30    0.34
   8  -1 -16    0.30    0.30
  -8   1  16    0.10    0.25
   7  -1 -16    0.10    0.25
  -7   1  16    0.18    0.23
   6  -1 -16    0.15    0.19
  -6   1  16   -0.14    0.19
   5  -1 -16    2.07    0.26
  -5   1  16    1.45    0.25
   4  -1 -16    0.24    0.17
  -4   1  16    0.39    0.16
   3  -1 -16    2.91    0.32
  -3   1  16    2.90    0.31
   2  -1 -16    0.63    0.16
  -2   1  16    0.22    0.14
   1  -1 -16    0.10    0.12
  -1   1  16    0.28    0.12
  -1   1  16    0.29    0.15
   0  -1 -16    0.85    0.15
   0   1  16    1.04    0.16
   0   1  16    0.89    0.19
  -1  -1 -16    0.73    0.16
   1   1  16    0.52    0.18
  -2  -1 -16    0.02    0.14
   2   1  16   -0.06    0.17
  -3  -1 -16    2.26    0.27
   3   1  16    2.33    0.27
  -4  -1 -16    0.43    0.18
   4   1  16    0.59    0.20
  -5  -1 -16    0.19    0.19
   5   1  16    0.30    0.20
  -6  -1 -16    2.20    0.32
   6   1  16    2.67    0.34
  -7  -1 -16    0.22    0.24
   7   1  16    0.37    0.24
  -8  -1 -16    0.61    0.30
   8   1  16    0.58    0.28
   8  -2 -16    0.83    0.31
  -8   2  16    0.37    0.27
   7  -2 -16    0.13    0.22
  -7   2  16   -0.03    0.22
   6  -2 -16    1.72    0.28
  -6   2  16    1.45    0.27
   5  -2 -16    0.26    0.18
  -5   2  16    0.38    0.18
   4  -2 -16    4.32    0.44
  -4   2  16    4.15    0.42
   3  -2 -16    4.60    0.43
  -3   2  16    4.04    0.42
  -2   2  16    0.14    0.13
  -2   2  16    0.06    0.15
   1  -2 -16    3.41    0.37
  -1   2  16    3.96    0.37
  -1   2  16    4.45    0.40
   0  -2 -16    5.57    0.57
   0   2  16    6.97    0.57
   0   2  16    6.49    0.58
  -1  -2 -16    0.19    0.13
   1   2  16   -0.07    0.15
  -2  -2 -16    1.36    0.21
   2   2  16    1.81    0.24
  -3  -2 -16    0.38    0.18
   3   2  16    0.45    0.18
  -4  -2 -16    3.13    0.35
   4   2  16    3.29    0.36
  -5  -2 -16    0.37    0.19
   5   2  16    0.22    0.21
  -6  -2 -16   -0.11    0.20
   6   2  16    0.16    0.22
  -7  -2 -16    0.00    0.23
   7   2  16    0.16    0.23
  -8  -2 -16    0.07    0.32
   8   2  16    0.23    0.29
  -8   3  16    0.39    0.29
   7  -3 -16    0.53    0.25
  -7   3  16    0.01    0.24
   6  -3 -16    1.83    0.27
  -6   3  16    1.61    0.28
   5  -3 -16    1.01    0.22
  -5   3  16    0.74    0.20
   4  -3 -16   -0.18    0.15
  -4   3  16   -0.03    0.16
   3  -3 -16    1.51    0.24
  -3   3  16    1.82    0.23
  -2   3  16    7.19    0.69
  -2   3  16    8.97    0.71
   1  -3 -16   17.87    1.47
  -1   3  16   17.61    1.48
  -1   3  16   17.30    1.47
   0  -3 -16    5.06    0.46
   0   3  16    4.98    0.48
  -1  -3 -16    0.22    0.14
   1   3  16    0.52    0.14
  -2  -3 -16   18.20    1.51
   2   3  16   17.82    1.52
  -3  -3 -16    2.67    0.32
   3   3  16    2.63    0.32
  -4  -3 -16    1.30    0.21
   4   3  16    0.49    0.21
  -5  -3 -16    0.61    0.20
   5   3  16    0.42    0.21
  -6  -3 -16    0.56    0.22
   6   3  16    0.23    0.22
  -7  -3 -16    0.16    0.25
   7   3  16    0.21    0.26
  -8  -3 -16   -0.36    0.27
   8   3  16   -0.21    0.27
  -8   4  16    0.07    0.29
  -7   4  16    0.12    0.25
   6  -4 -16    0.23    0.23
  -6   4  16    0.34    0.22
   5  -4 -16    1.49    0.26
  -5   4  16    1.90    0.27
   4  -4 -16    0.08    0.17
  -4   4  16    0.09    0.16
   3  -4 -16    1.13    0.21
  -3   4  16    1.54    0.21
   2  -4 -16    0.21    0.15
  -2   4  16    0.35    0.17
  -2   4  16    0.18    0.14
   1  -4 -16    2.87    0.33
  -1   4  16    3.17    0.34
  -1   4  16    4.04    0.37
   0  -4 -16    2.91    0.33
   0   4  16    3.22    0.34
  -1  -4 -16   10.55    0.89
   1   4  16   10.01    0.90
  -2  -4 -16    4.89    0.52
   2   4  16    5.95    0.52
  -3  -4 -16    0.17    0.17
   3   4  16    0.41    0.19
  -4  -4 -16    1.54    0.24
   4   4  16    0.91    0.24
  -5  -4 -16    0.00    0.19
   5   4  16   -0.03    0.20
  -6  -4 -16    1.36    0.27
   6   4  16    1.30    0.28
  -7  -4 -16    0.28    0.26
   7   4  16    0.04    0.25
  -8  -4 -16    0.05    0.30
   8   4  16   -0.18    0.28
  -8   5  16    0.04    0.31
  -7   5  16   -0.12    0.25
  -6   5  16    1.29    0.28
   5  -5 -16    0.08    0.21
  -5   5  16    0.28    0.20
   4  -5 -16    0.02    0.17
  -4   5  16    0.17    0.20
   3  -5 -16    0.41    0.19
  -3   5  16    0.67    0.18
   2  -5 -16    0.87    0.19
  -2   5  16    0.53    0.18
  -2   5  16    1.13    0.18
   1  -5 -16    0.05    0.16
  -1   5  16   -0.02    0.16
  -1   5  16   -0.03    0.12
   0  -5 -16    9.92    0.87
   0   5  16   10.34    0.89
  -1  -5 -16   11.00    0.92
   1   5  16   10.12    0.92
  -2  -5 -16    0.98    0.20
   2   5  16    1.12    0.22
  -3  -5 -16    1.94    0.27
   3   5  16    2.03    0.28
  -4  -5 -16   -0.10    0.18
   4   5  16   -0.10    0.19
  -5  -5 -16    0.06    0.20
   5   5  16    0.09    0.21
  -6  -5 -16    0.77    0.25
   6   5  16    0.78    0.26
  -7  -5 -16    0.00    0.30
   7   5  16    0.09    0.25
  -8   6  16    0.12    0.32
  -7   6  16   -0.03    0.28
  -6   6  16    0.22    0.24
  -5   6  16    0.04    0.20
   4  -6 -16   -0.03    0.20
  -4   6  16    0.08    0.19
   3  -6 -16    0.82    0.20
   3  -6 -16    0.92    0.21
  -3   6  16    0.54    0.19
   2  -6 -16    0.38    0.18
  -2   6  16    0.02    0.15
  -2   6  16    0.06    0.18
   1  -6 -16    0.34    0.17
  -1   6  16    0.50    0.17
  -1   6  16    0.58    0.20
   0  -6 -16    0.10    0.17
   0   6  16    0.00    0.17
  -1  -6 -16   -0.06    0.18
   1   6  16   -0.11    0.17
  -2  -6 -16    0.55    0.18
   2   6  16    0.06    0.18
  -3  -6 -16    0.34    0.18
   3   6  16    0.20    0.20
  -4  -6 -16    0.03    0.19
   4   6  16    0.20    0.20
  -5  -6 -16    2.24    0.32
   5   6  16    2.70    0.34
  -6  -6 -16   -0.02    0.23
   6   6  16   -0.10    0.23
  -7  -6 -16    1.11    0.30
   7   6  16    0.67    0.30
  -7   7  16    0.12    0.30
  -6   7  16    0.39    0.25
  -5   7  16    0.05    0.22
  -4   7  16    0.08    0.19
   3  -7 -16    1.95    0.39
   3  -7 -16    1.34    0.22
  -3   7  16    1.14    0.25
   2  -7 -16    2.54    0.31
  -2   7  16    2.18    0.30
  -2   7  16    2.52    0.29
   1  -7 -16    3.59    0.38
  -1   7  16    3.66    0.38
   0  -7 -16    0.07    0.17
   0   7  16   -0.06    0.17
  -1  -7 -16   -0.11    0.18
   1   7  16   -0.10    0.18
  -2  -7 -16    0.16    0.18
   2   7  16    0.22    0.22
  -3  -7 -16    1.33    0.25
   3   7  16    1.56    0.27
  -4  -7 -16    0.91    0.23
   4   7  16    0.92    0.27
  -5  -7 -16    0.10    0.22
   5   7  16    0.34    0.24
  -6  -7 -16    0.34    0.26
   6   7  16    0.51    0.25
  -7  -7 -16    0.12    0.29
   7   7  16    0.21    0.29
  -7   8  16    0.47    0.33
  -6   8  16   -0.05    0.26
  -5   8  16    0.67    0.25
  -4   8  16    1.35    0.26
   3  -8 -16    1.33    0.25
  -3   8  16    0.85    0.22
   2  -8 -16    5.20    0.51
  -2   8  16    5.39    0.51
   1  -8 -16    0.18    0.18
  -1   8  16    0.02    0.20
   0  -8 -16    0.25    0.22
   0   8  16    0.28    0.19
  -1  -8 -16    1.04    0.25
   1   8  16    0.94    0.22
  -2  -8 -16    0.27    0.20
   2   8  16    0.01    0.19
  -3  -8 -16   -0.02    0.19
   3   8  16   -0.09    0.20
  -4  -8 -16    0.28    0.22
   4   8  16    0.17    0.23
  -5  -8 -16   -0.01    0.23
   5   8  16    0.04    0.24
  -6  -8 -16    0.18    0.28
   6   8  16    0.45    0.28
  -7   9  16    0.09    0.34
  -6   9  16    0.59    0.30
  -5   9  16   -0.23    0.24
   4  -9 -16    1.43    0.29
  -4   9  16    1.68    0.32
   3  -9 -16   -0.07    0.22
  -3   9  16    0.20    0.21
   2  -9 -16    1.56    0.25
  -2   9  16    1.62    0.25
   1  -9 -16    0.18    0.20
   0  -9 -16   -0.01    0.19
   0   9  16    0.12    0.22
  -1  -9 -16    0.74    0.22
   1   9  16    0.33    0.20
  -2  -9 -16    0.09    0.21
   2   9  16    0.24    0.21
  -3  -9 -16    1.74    0.28
   3   9  16    1.05    0.27
  -4  -9 -16    0.54    0.25
   4   9  16    0.01    0.23
  -5  -9 -16    1.10    0.29
   5   9  16    0.83    0.29
  -6  -9 -16    0.08    0.29
   6   9  16   -0.17    0.29
  -6  10  16    0.17    0.31
  -5  10  16    0.46    0.29
   4 -10 -16   -0.10    0.21
  -4  10  16    0.23    0.28
   3 -10 -16    0.07    0.21
  -3  10  16   -0.14    0.24
   2 -10 -16    0.22    0.21
   1 -10 -16    0.09    0.23
   0 -10 -16    0.15    0.21
  -1 -10 -16   -0.07    0.20
   1  10  16    0.03    0.25
  -2 -10 -16    0.37    0.24
   2  10  16    0.45    0.25
  -3 -10 -16    1.21    0.27
   3  10  16    0.24    0.24
  -4 -10 -16    0.27    0.26
   4  10  16   -0.05    0.25
  -5 -10 -16    0.00    0.29
   5  10  16    0.18    0.28
   6  10  16   -0.05    0.31
  -6  11  16    0.09    0.34
  -5  11  16    0.14    0.31
   4 -11 -16   -0.03    0.23
  -4  11  16    0.48    0.28
   3 -11 -16   -0.14    0.23
  -3  11  16    0.40    0.27
   2 -11 -16    1.43    0.28
   1 -11 -16   -0.16    0.22
   0 -11 -16    0.40    0.26
  -1 -11 -16   -0.09    0.23
  -2 -11 -16    1.56    0.32
  -3 -11 -16    2.18    0.35
   3  11  16    1.57    0.32
  -4 -11 -16    0.22    0.30
   4  11  16    0.63    0.32
   5  11  16   -0.12    0.31
  -5  12  16   -0.13    0.34
   4 -12 -16    1.30    0.33
  -4  12  16    0.83    0.33
   3 -12 -16    0.54    0.27
  -3  12  16   -0.59    0.31
   2 -12 -16    0.22    0.26
   1 -12 -16    0.13    0.28
   0 -12 -16    0.15    0.29
  -1 -12 -16    1.91    0.33
  -2 -12 -16    0.24    0.28
  -3 -12 -16   -0.02    0.30
  -4 -12 -16    0.09    0.36
   4  12  16    0.73    0.59
   4 -13 -16    0.37    0.31
  -4  13  16    0.09    0.37
   3 -13 -16    0.25    0.29
   2 -13 -16   -0.03    0.29
   1 -13 -16   -0.08    0.27
   0 -13 -16    0.03    0.27
  -1 -13 -16    0.31    0.30
  -2 -13 -16    0.35    0.30
   3 -14 -16    0.39    0.33
   2 -14 -16    0.27    0.33
   1 -14 -16    0.81    0.35
   0 -14 -16    0.07    0.31
   0 -14  17   -0.15    0.40
   1 -14  17    0.23    0.34
  -2  14 -17    0.36    0.39
   4  13 -17    0.17    0.36
   3  13 -17    0.99    0.57
  -2 -13  17   -0.10    0.32
  -1 -13  17    0.17    0.33
   0 -13  17   -0.05    0.36
   1 -13  17    1.12    0.35
  -2  13 -17   -0.09    0.33
  -3  13 -17    0.13    0.35
   5  12 -17    0.16    0.37
   4  12 -17    0.35    0.33
  -4 -12  17    0.30    0.32
   3  12 -17    2.44    0.38
  -3 -12  17    2.05    0.40
   2  12 -17    1.84    0.36
  -2 -12  17    1.05    0.33
  -1 -12  17    0.10    0.28
   0 -12  17    0.73    0.29
   1 -12  17    0.41    0.29
   2 -12  17   -0.06    0.28
  -3  12 -17   -0.04    0.33
   5  11 -17    0.01    0.33
  -5 -11  17   -0.07    0.32
   4  11 -17    1.53    0.34
  -4 -11  17    0.99    0.34
   3  11 -17    0.33    0.27
  -3 -11  17   -0.03    0.26
   2  11 -17    0.59    0.26
  -2 -11  17    0.60    0.28
   1  11 -17    0.10    0.23
  -1 -11  17   -0.06    0.26
   0 -11  17    0.36    0.26
   1 -11  17    0.19    0.29
   2 -11  17    0.40    0.26
   5 -11  17    0.33    0.31
   6  10 -17   -0.08    0.34
   5  10 -17   -0.12    0.29
  -5 -10  17   -0.05    0.29
   4  10 -17    0.01    0.26
  -4 -10  17    0.29    0.27
   3  10 -17    3.11    0.40
  -3 -10  17    3.37    0.42
   2  10 -17    0.50    0.24
  -2 -10  17    0.11    0.24
   1  10 -17    0.10    0.22
  -1 -10  17    0.09    0.23
   0  10 -17    0.18    0.24
   0 -10  17    0.02    0.23
  -1  10 -17    2.70    0.33
   1 -10  17    1.64    0.32
   2 -10  17    0.18    0.24
   4 -10  17    1.32    0.32
  -5  10 -17    3.10    0.42
  -6  10 -17    0.25    0.34
   6   9 -17    0.20    0.31
  -6  -9  17   -0.17    0.30
   5   9 -17    0.21    0.28
  -5  -9  17    0.11    0.29
   4   9 -17    0.44    0.26
  -4  -9  17    0.59    0.26
   3   9 -17    0.83    0.25
  -3  -9  17    0.71    0.26
   2   9 -17    1.60    0.28
  -2  -9  17    1.84    0.29
   1   9 -17    0.02    0.20
  -1  -9  17    0.26    0.22
   0   9 -17    0.11    0.21
   0  -9  17    0.12    0.22
  -1   9 -17    0.99    0.25
   1  -9  17    0.99    0.28
  -2   9 -17    2.48    0.33
   2  -9  17    2.38    0.33
  -4   9 -17    3.51    0.43
  -5   9 -17    0.57    0.28
  -6   9 -17    0.26    0.34
   7   8 -17   -0.12    0.36
  -7  -8  17   -0.01    0.36
   6   8 -17    0.02    0.29
  -6  -8  17   -0.36    0.26
   5   8 -17    0.88    0.28
  -5  -8  17    0.31    0.25
   4   8 -17    0.76    0.25
  -4  -8  17    0.88    0.26
   3   8 -17   -0.06    0.21
  -3  -8  17    0.27    0.21
   2   8 -17    1.16    0.25
  -2  -8  17    1.21    0.25
   1   8 -17   -0.19    0.20
  -1  -8  17    0.04    0.19
   0   8 -17    0.16    0.20
   0  -8  17    0.03    0.20
  -1   8 -17    2.21    0.31
   1  -8  17    1.87    0.29
  -2   8 -17    0.09    0.23
   2  -8  17    0.13    0.23
   3  -8  17    0.95    0.24
  -4   8 -17   -0.10    0.23
  -5   8 -17    0.99    0.30
  -6   8 -17    0.93    0.34
  -7   8 -17   -0.06    0.34
   7   7 -17    0.70    0.33
  -7  -7  17    0.59    0.30
   6   7 -17    0.37    0.28
  -6  -7  17    0.46    0.27
   5   7 -17    0.14    0.24
  -5  -7  17    0.24    0.24
   4   7 -17    0.27    0.22
  -4  -7  17   -0.01    0.20
   3   7 -17    0.13    0.20
  -3  -7  17    0.34    0.20
   2   7 -17    0.13    0.20
  -2  -7  17    0.04    0.19
   1   7 -17    3.16    0.35
  -1  -7  17    2.57    0.34
   0   7 -17    2.50    0.33
   0  -7  17    2.40    0.31
  -1   7 -17    1.24    0.26
   1  -7  17    1.35    0.24
   2  -7  17    0.20    0.19
   2  -7  17   -0.07    0.19
  -3   7 -17    0.20    0.19
   3  -7  17    0.01    0.20
  -4   7 -17    1.78    0.31
   4  -7  17    2.07    0.32
  -5   7 -17    0.97    0.25
  -6   7 -17   -0.12    0.26
  -7   7 -17   -0.10    0.32
   7   6 -17    0.27    0.29
  -7  -6  17    0.53    0.28
   6   6 -17   -0.05    0.25
  -6  -6  17   -0.19    0.23
   5   6 -17   -0.03    0.23
  -5  -6  17    0.05    0.21
   4   6 -17    0.11    0.20
  -4  -6  17   -0.07    0.20
   3   6 -17   -0.06    0.19
  -3  -6  17    0.21    0.19
   2   6 -17   10.25    0.86
  -2  -6  17    9.04    0.85
   1   6 -17    0.22    0.19
  -1  -6  17    0.34    0.18
   0   6 -17    2.32    0.30
   0  -6  17    2.31    0.29
   1  -6  17   -0.06    0.18
   1  -6  17    0.05    0.17
   2  -6  17   -0.12    0.19
  -3   6 -17   -0.01    0.17
   3  -6  17    0.07    0.20
  -4   6 -17    1.64    0.26
   4  -6  17    1.65    0.28
  -5   6 -17    0.03    0.21
   5  -6  17    0.06    0.23
  -6   6 -17    0.32    0.26
   6  -6  17    0.37    0.38
  -7   6 -17    0.20    0.31
   8   5 -17   -0.22    0.32
  -8  -5  17   -0.17    0.31
   7   5 -17    0.10    0.28
  -7  -5  17    0.19    0.26
   6   5 -17   -0.23    0.23
  -6  -5  17   -0.05    0.22
   5   5 -17    0.02    0.21
  -5  -5  17    0.00    0.19
   4   5 -17    0.33    0.20
  -4  -5  17    0.41    0.19
   3   5 -17   -0.04    0.18
  -3  -5  17    0.13    0.18
   2   5 -17    0.59    0.19
  -2  -5  17    0.63    0.21
   1   5 -17    3.44    0.37
  -1  -5  17    3.08    0.35
   0   5 -17    1.15    0.22
   0  -5  17    1.31    0.22
   1  -5  17   -0.16    0.15
   1  -5  17   -0.26    0.16
  -2   5 -17    0.25    0.18
   2  -5  17    0.52    0.19
  -3   5 -17    0.11    0.17
   3  -5  17    0.14    0.18
  -4   5 -17   -0.01    0.18
   4  -5  17    0.01    0.23
  -5   5 -17    1.86    0.28
   5  -5  17    1.22    0.28
  -6   5 -17    0.01    0.24
   6  -5  17   -0.21    0.24
  -7   5 -17   -0.15    0.27
   7  -5  17   -0.25    0.28
   8   4 -17    0.18    0.32
  -8  -4  17    0.18    0.29
   7   4 -17    0.19    0.27
  -7  -4  17   -0.10    0.24
   6   4 -17    0.20    0.23
  -6  -4  17    0.20    0.17
   5   4 -17    0.14    0.21
  -5  -4  17   -0.10    0.19
   4   4 -17    0.00    0.18
  -4  -4  17    0.09    0.18
   3   4 -17    0.01    0.18
  -3  -4  17    0.29    0.17
   2   4 -17   -0.12    0.17
  -2  -4  17    0.06    0.15
   1   4 -17    0.06    0.16
  -1  -4  17    0.33    0.16
   0  -4  17    0.15    0.15
   0  -4  17    0.24    0.18
   1  -4  17    1.40    0.25
   1  -4  17    2.07    0.25
  -2   4 -17    0.15    0.17
   2  -4  17   -0.10    0.17
  -3   4 -17    0.18    0.16
   3  -4  17    0.10    0.19
  -4   4 -17    0.01    0.17
   4  -4  17    0.46    0.21
  -5   4 -17    1.10    0.25
   5  -4  17    1.92    0.29
  -6   4 -17   -0.05    0.22
   6  -4  17   -0.15    0.23
  -7   4 -17    0.23    0.31
   7  -4  17   -0.03    0.26
   8  -4  17   -0.14    0.36
   8   3 -17    0.09    0.30
  -8  -3  17   -0.10    0.28
   7   3 -17    1.13    0.32
  -7  -3  17    0.78    0.26
   6   3 -17    0.28    0.23
  -6  -3  17    0.34    0.22
   5   3 -17   -0.07    0.20
  -5  -3  17    0.02    0.18
   4   3 -17    0.13    0.19
  -4  -3  17    0.24    0.18
   3   3 -17    0.33    0.19
  -3  -3  17    0.30    0.17
   2   3 -17    0.52    0.19
  -2  -3  17    0.55    0.16
   1   3 -17   -0.01    0.15
  -1  -3  17   -0.05    0.14
   0  -3  17    0.82    0.20
   0  -3  17    0.47    0.16
  -1   3 -17    0.79    0.17
   1  -3  17    0.79    0.19
   1  -3  17    0.72    0.20
  -2   3 -17    0.11    0.16
   2  -3  17    0.06    0.17
  -3   3 -17    1.95    0.25
   3  -3  17    1.33    0.26
  -4   3 -17    1.07    0.24
   4  -3  17    1.09    0.24
  -5   3 -17    0.38    0.20
   5  -3  17    0.19    0.21
  -6   3 -17    0.54    0.24
   6  -3  17    0.33    0.26
  -7   3 -17   -0.18    0.26
   7  -3  17    0.11    0.26
  -8   3 -17    0.27    0.36
   8  -3  17    0.66    0.31
   8   2 -17    0.33    0.30
  -8  -2  17    0.24    0.29
   7   2 -17    1.45    0.32
  -7  -2  17    0.19    0.25
   6   2 -17    0.53    0.23
  -6  -2  17    0.44    0.22
   5   2 -17    1.39    0.24
  -5  -2  17    0.92    0.23
   4   2 -17    0.54    0.17
  -4  -2  17    0.25    0.18
   3   2 -17   -0.10    0.18
  -3  -2  17    0.01    0.16
   2   2 -17    2.29    0.31
  -2  -2  17    2.92    0.30
   1   2 -17    0.25    0.17
  -1  -2  17    0.20    0.16
   0  -2  17    0.42    0.18
   0  -2  17    0.63    0.17
  -1   2 -17    0.31    0.15
   1  -2  17    0.53    0.19
  -2   2 -17    0.34    0.15
   2  -2  17    0.27    0.19
  -3   2 -17    0.75    0.19
   3  -2  17    0.77    0.21
  -4   2 -17    0.10    0.20
   4  -2  17   -0.16    0.19
  -5   2 -17    0.13    0.18
   5  -2  17   -0.02    0.20
  -6   2 -17   -0.11    0.22
   6  -2  17   -0.09    0.22
  -7   2 -17    0.29    0.30
   7  -2  17    0.42    0.27
  -8   2 -17    0.54    0.33
   8  -2  17    0.36    0.31
   9   1 -17    0.13    0.41
   8   1 -17    0.98    0.32
  -8  -1  17    0.76    0.30
   7   1 -17   -0.10    0.24
  -7  -1  17   -0.15    0.23
   6   1 -17    0.51    0.22
  -6  -1  17    0.04    0.21
   5   1 -17    0.05    0.19
  -5  -1  17   -0.11    0.18
   4   1 -17    0.02    0.17
  -4  -1  17    0.04    0.17
   3   1 -17    2.20    0.29
  -3  -1  17    2.46    0.28
   2   1 -17    4.38    0.42
  -2  -1  17    3.81    0.40
  -1  -1  17   -0.09    0.16
  -1  -1  17    0.02    0.15
   0  -1  17   12.69    1.06
   0  -1  17   12.06    1.07
  -1   1 -17    0.55    0.16
   1  -1  17    0.62    0.18
  -2   1 -17   -0.01    0.16
   2  -1  17    0.04    0.18
  -3   1 -17    1.42    0.22
   3  -1  17    1.80    0.26
  -4   1 -17    0.46    0.19
   4  -1  17    0.53    0.21
  -5   1 -17    0.11    0.19
   5  -1  17    0.30    0.21
  -6   1 -17    0.51    0.23
   6  -1  17    0.79    0.25
  -7   1 -17   -0.01    0.25
   7  -1  17   -0.11    0.24
  -8   1 -17    0.32    0.30
   8  -1  17   -0.17    0.30
   9   0 -17    0.43    0.37
   8   0 -17    0.04    0.28
  -8   0  17   -0.02    0.27
   7   0 -17    1.34    0.29
  -7   0  17    1.61    0.30
   6   0 -17    0.26    0.21
  -6   0  17    0.13    0.21
   5   0 -17    3.35    0.38
  -5   0  17    3.33    0.37
   4   0 -17   -0.02    0.18
  -4   0  17   -0.13    0.16
   3   0 -17    0.23    0.18
  -3   0  17    0.25    0.16
   2   0 -17    5.11    0.49
  -2   0  17    5.10    0.48
  -1   0  17    0.23    0.13
  -1   0  17    0.28    0.17
   0   0 -17    2.31    0.26
   0   0  17    2.23    0.28
   0   0  17    2.28    0.26
  -1   0 -17   17.20    1.37
   1   0  17   15.18    1.38
  -2   0 -17    0.06    0.14
   2   0  17    0.15    0.17
  -3   0 -17    3.82    0.37
   3   0  17    2.98    0.38
  -4   0 -17    1.70    0.25
   4   0  17    1.53    0.27
  -5   0 -17    0.73    0.21
   5   0  17    0.81    0.23
  -6   0 -17    0.79    0.24
   6   0  17    0.39    0.24
  -7   0 -17    0.20    0.28
   7   0  17    0.22    0.26
  -8   0 -17    0.36    0.30
   8   0  17    0.06    0.30
   9  -1 -17    0.05    0.35
   8  -1 -17    0.20    0.28
  -8   1  17    0.14    0.28
   7  -1 -17    1.15    0.27
  -7   1  17    1.08    0.28
   6  -1 -17    0.85    0.23
  -6   1  17    0.57    0.23
   5  -1 -17    0.57    0.20
  -5   1  17    0.50    0.20
   4  -1 -17    3.34    0.39
  -4   1  17    3.80    0.39
   3  -1 -17    3.07    0.38
  -3   1  17    3.89    0.37
   2  -1 -17    0.08    0.17
  -2   1  17    0.10    0.14
  -1   1  17    1.15    0.19
  -1   1  17    1.09    0.21
   0  -1 -17    0.36    0.16
   0   1  17    0.73    0.19
   0   1  17    0.92    0.17
  -1  -1 -17    0.21    0.16
   1   1  17    0.28    0.18
  -2  -1 -17   -0.09    0.15
   2   1  17   -0.02    0.17
  -3  -1 -17    1.44    0.23
   3   1  17    1.75    0.26
  -4  -1 -17    2.28    0.30
   4   1  17    2.13    0.30
  -5  -1 -17    0.72    0.21
   5   1  17    0.50    0.23
  -6  -1 -17    0.54    0.24
   6   1  17    1.17    0.27
  -7  -1 -17    0.09    0.25
   7   1  17    0.21    0.27
  -8  -1 -17    0.48    0.35
   8   1  17    0.50    0.30
   8  -2 -17    0.20    0.28
  -8   2  17    0.19    0.28
   7  -2 -17    0.29    0.26
  -7   2  17   -0.07    0.23
   6  -2 -17    1.22    0.27
  -6   2  17    0.62    0.23
   5  -2 -17    0.17    0.19
  -5   2  17    0.03    0.18
   4  -2 -17    0.69    0.21
  -4   2  17    1.06    0.20
   3  -2 -17    0.11    0.17
  -3   2  17    0.03    0.15
   2  -2 -17    5.62    0.53
  -2   2  17    5.60    0.51
   1  -2 -17    0.32    0.24
  -1   2  17    0.39    0.15
  -1   2  17    0.12    0.17
   0  -2 -17    2.43    0.28
   0   2  17    2.69    0.31
  -1  -2 -17    3.86    0.39
   1   2  17    3.94    0.41
  -2  -2 -17    0.54    0.17
   2   2  17    0.49    0.20
  -3  -2 -17    2.41    0.29
   3   2  17    2.37    0.31
  -4  -2 -17    0.21    0.19
   4   2  17    0.08    0.19
  -5  -2 -17   -0.06    0.19
   5   2  17    0.01    0.22
  -6  -2 -17   -0.03    0.22
   6   2  17   -0.03    0.24
  -7  -2 -17   -0.10    0.25
   7   2  17    0.12    0.26
   8   2  17   -0.37    0.29
  -8   3  17    0.14    0.30
   7  -3 -17   -0.03    0.26
  -7   3  17    0.08    0.23
   6  -3 -17    0.20    0.21
  -6   3  17    0.14    0.22
   5  -3 -17    0.76    0.24
  -5   3  17    0.55    0.20
   4  -3 -17    0.14    0.19
  -4   3  17    0.27    0.17
   3  -3 -17   10.97    0.94
  -3   3  17   10.74    0.94
  -2   3  17    6.71    0.62
  -2   3  17    7.49    0.64
   1  -3 -17    0.48    0.17
  -1   3  17    0.25    0.14
  -1   3  17    0.42    0.17
   0  -3 -17    5.55    0.48
   0   3  17    4.55    0.49
  -1  -3 -17    5.76    0.50
   1   3  17    4.77    0.51
  -2  -3 -17    0.62    0.18
   2   3  17    0.36    0.19
  -3  -3 -17    0.13    0.18
   3   3  17    0.53    0.19
  -4  -3 -17    0.25    0.19
   4   3  17    0.11    0.19
  -5  -3 -17    0.51    0.22
   5   3  17    0.54    0.23
  -6  -3 -17    0.10    0.23
   6   3  17    0.35    0.24
  -7  -3 -17    0.06    0.30
   7   3  17    0.17    0.27
  -8   4  17    0.25    0.31
  -7   4  17    0.20    0.26
   6  -4 -17    0.38    0.25
  -6   4  17    0.15    0.23
   5  -4 -17    0.54    0.21
  -5   4  17    0.26    0.21
   4  -4 -17    0.25    0.22
  -4   4  17    0.22    0.19
   3  -4 -17    0.27    0.18
  -3   4  17    0.68    0.20
  -2   4  17    0.09    0.17
  -2   4  17    0.17    0.15
   1  -4 -17    0.63    0.19
  -1   4  17    0.96    0.18
  -1   4  17    0.65    0.20
   0  -4 -17    2.79    0.32
   0   4  17    2.83    0.33
  -1  -4 -17    0.62    0.17
   1   4  17    0.56    0.19
  -2  -4 -17    3.86    0.41
   2   4  17    4.11    0.43
  -3  -4 -17    0.15    0.17
   3   4  17   -0.03    0.19
  -4  -4 -17    1.17    0.22
   4   4  17    0.96    0.24
  -5  -4 -17    0.30    0.21
   5   4  17    0.40    0.24
  -6  -4 -17    0.13    0.23
   6   4  17    0.09    0.23
  -7  -4 -17    0.09    0.28
   7   4  17    0.25    0.28
  -8   5  17    0.25    0.32
  -7   5  17   -0.09    0.20
  -6   5  17    0.85    0.26
   5  -5 -17   -0.11    0.22
  -5   5  17   -0.23    0.19
   4  -5 -17    2.77    0.35
  -4   5  17    2.62    0.34
   3  -5 -17    1.39    0.23
  -3   5  17    1.33    0.22
   2  -5 -17    1.29    0.23
  -2   5  17    1.62    0.26
  -2   5  17    1.55    0.22
   1  -5 -17    3.84    0.39
  -1   5  17    3.79    0.40
   0  -5 -17    0.43    0.17
   0   5  17    0.16    0.18
  -1  -5 -17    0.47    0.18
   1   5  17    0.22    0.19
  -2  -5 -17    5.06    0.46
   2   5  17    4.11    0.47
  -3  -5 -17    0.14    0.18
   3   5  17   -0.04    0.19
  -4  -5 -17    0.52    0.21
   4   5  17    0.74    0.23
  -5  -5 -17    0.18    0.22
   5   5  17    0.22    0.23
  -6  -5 -17    0.29    0.25
   6   5  17   -0.07    0.24
  -7  -5 -17   -0.10    0.31
   7   5  17    0.37    0.28
  -7   6  17   -0.30    0.28
  -6   6  17    0.04    0.26
  -5   6  17    0.42    0.23
   4  -6 -17    0.30    0.21
  -4   6  17    0.28    0.20
   3  -6 -17    5.93    0.58
  -3   6  17    6.68    0.61
   2  -6 -17    0.04    0.16
  -2   6  17    0.26    0.18
  -2   6  17   -0.07    0.18
   1  -6 -17    0.19    0.17
  -1   6  17    0.18    0.19
   0  -6 -17    0.09    0.17
   0   6  17   -0.01    0.21
  -1  -6 -17    2.66    0.33
   1   6  17    2.54    0.34
  -2  -6 -17    0.17    0.19
   2   6  17    0.12    0.19
  -3  -6 -17    0.51    0.21
   3   6  17    0.63    0.22
  -4  -6 -17    0.20    0.21
   4   6  17    0.25    0.23
  -5  -6 -17    0.25    0.23
   5   6  17   -0.06    0.24
  -6  -6 -17    0.06    0.26
   6   6  17    0.08    0.25
  -7  -6 -17    0.45    0.31
   7   6  17    0.20    0.30
  -7   7  17    0.04    0.32
  -6   7  17    0.26    0.27
  -5   7  17    1.16    0.28
  -4   7  17    0.10    0.21
  -3   7  17    0.84    0.24
   2  -7 -17    0.12    0.18
  -2   7  17   -0.03    0.20
  -2   7  17   -0.05    0.18
   1  -7 -17    0.13    0.18
  -1   7  17    0.07    0.19
   0  -7 -17    0.46    0.19
   0   7  17    0.36    0.20
  -1  -7 -17    0.16    0.19
   1   7  17    0.27    0.20
  -2  -7 -17    0.23    0.22
   2   7  17    0.16    0.20
  -3  -7 -17    1.49    0.27
   3   7  17    1.56    0.28
  -4  -7 -17   -0.19    0.21
   4   7  17    0.09    0.23
  -5  -7 -17    0.16    0.25
   5   7  17    0.13    0.25
  -6  -7 -17    0.02    0.27
   6   7  17    0.12    0.28
  -7   8  17    0.09    0.34
  -6   8  17    0.02    0.28
  -5   8  17    0.21    0.25
  -4   8  17    0.12    0.25
   3  -8 -17    0.69    0.22
  -3   8  17    0.44    0.21
   2  -8 -17    0.90    0.22
  -2   8  17    0.92    0.27
   1  -8 -17    0.59    0.21
  -1   8  17    0.25    0.23
   0  -8 -17    0.10    0.20
   0   8  17    0.08    0.23
  -1  -8 -17    2.86    0.33
   1   8  17    2.13    0.35
  -2  -8 -17    4.42    0.46
   2   8  17    3.92    0.46
  -3  -8 -17    0.61    0.26
   3   8  17    0.81    0.25
  -4  -8 -17    0.51    0.25
   4   8  17    0.54    0.26
  -5  -8 -17    0.17    0.27
   5   8  17    0.33    0.27
  -6  -8 -17    0.08    0.29
   6   8  17    0.13    0.31
  -6   9  17    0.32    0.32
  -5   9  17    0.49    0.28
  -4   9  17    0.16    0.24
   3  -9 -17    0.45    0.21
  -3   9  17    0.40    0.22
   2  -9 -17   -0.17    0.20
   1  -9 -17    0.09    0.21
   0  -9 -17    0.16    0.20
   0   9  17    0.13    0.22
  -1  -9 -17    0.12    0.22
   1   9  17   -0.05    0.21
  -2  -9 -17   -0.08    0.22
   2   9  17   -0.09    0.21
  -3  -9 -17    0.13    0.25
   3   9  17   -0.14    0.23
  -4  -9 -17    0.49    0.27
   4   9  17    0.31    0.27
  -5  -9 -17    0.59    0.30
   5   9  17    0.62    0.30
   6   9  17    0.33    0.33
  -6  10  17    0.70    0.36
  -5  10  17    0.78    0.33
  -4  10  17   -0.23    0.25
   3 -10 -17    1.38    0.30
  -3  10  17    1.12    0.30
   2 -10 -17   -0.31    0.24
   1 -10 -17    1.70    0.29
   0 -10 -17    0.19    0.26
  -1 -10 -17    0.53    0.25
  -2 -10 -17    0.09    0.24
   2  10  17   -0.01    0.22
  -3 -10 -17   -0.17    0.26
   3  10  17    0.10    0.25
  -4 -10 -17   -0.01    0.28
   4  10  17   -0.13    0.28
  -5 -10 -17    0.98    0.34
   5  10  17    0.97    0.34
  -5  11  17    0.16    0.33
   4 -11 -17    0.00    0.37
  -4  11  17   -0.14    0.28
   3 -11 -17    0.47    0.29
   2 -11 -17    0.04    0.24
   1 -11 -17    0.31    0.25
   0 -11 -17    3.34    0.44
  -1 -11 -17   -0.13    0.25
  -2 -11 -17   -0.16    0.27
  -3 -11 -17    0.19    0.29
   3  11  17   -0.26    0.30
  -4 -11 -17    0.26    0.32
   4  11  17    0.36    0.36
   5  11  17    0.18    0.33
  -5  12  17   -0.45    0.35
   4 -12 -17    0.17    0.28
  -4  12  17   -0.08    0.31
   3 -12 -17    0.04    0.31
   2 -12 -17    0.11    0.28
   1 -12 -17   -0.47    0.25
   0 -12 -17    0.02    0.26
  -1 -12 -17    0.24    0.29
  -2 -12 -17    0.63    0.32
  -3 -12 -17    0.66    0.33
   4 -13 -17    0.17    0.34
  -4  13  17   -0.33    0.35
   3 -13 -17    0.89    0.39
   2 -13 -17    0.25    0.31
   1 -13 -17    0.12    0.35
   0 -13 -17    0.18    0.31
  -1 -13 -17    0.06    0.32
  -1 -13  18    1.15    0.38
   0 -13  18   -0.07    0.34
   1 -13  18   -0.32    0.39
  -2  13 -18   -0.05    0.36
   4  12 -18    0.80    0.37
   3  12 -18    0.17    0.32
  -3 -12  18    0.04    0.33
   2  12 -18    0.30    0.31
  -2 -12  18    0.58    0.33
  -1 -12  18    0.58    0.32
   0 -12  18    0.30    0.30
   1 -12  18    0.44    0.32
   2 -12  18    0.52    0.32
   5  11 -18    0.27    0.39
   4  11 -18    1.53    0.36
  -4 -11  18    1.24    0.35
   3  11 -18   -0.09    0.28
  -3 -11  18    0.04    0.29
   2  11 -18    0.53    0.31
  -2 -11  18    0.12    0.28
   1  11 -18    0.25    0.29
  -1 -11  18    1.38    0.32
   0 -11  18    0.11    0.28
   1 -11  18    0.21    0.28
   2 -11  18    0.20    0.28
   5  10 -18    1.25    0.36
  -5 -10  18    0.63    0.33
   4  10 -18    0.11    0.29
  -4 -10  18    0.13    0.30
   3  10 -18    0.39    0.27
  -3 -10  18    0.21    0.27
   2  10 -18    0.97    0.31
  -2 -10  18    0.80    0.28
   1  10 -18    2.23    0.33
  -1 -10  18    1.78    0.34
   0  10 -18    0.15    0.23
   0 -10  18   -0.10    0.25
  -1  10 -18    0.33    0.28
   1 -10  18    0.13    0.29
   2 -10  18    0.25    0.25
  -5  10 -18    0.49    0.35
   6   9 -18    0.10    0.37
   5   9 -18    1.97    0.40
  -5  -9  18    1.85    0.37
   4   9 -18    1.09    0.31
  -4  -9  18    1.51    0.31
   3   9 -18    0.52    0.26
  -3  -9  18    0.63    0.27
   2   9 -18    1.38    0.30
  -2  -9  18    1.06    0.28
   1   9 -18   -0.17    0.21
  -1  -9  18   -0.03    0.22
   0   9 -18    1.12    0.26
   0  -9  18    0.92    0.26
  -1   9 -18   -0.02    0.23
   1  -9  18   -0.12    0.26
  -2   9 -18    1.07    0.27
   2  -9  18    1.55    0.31
  -5   9 -18   -0.17    0.31
  -6   9 -18    0.76    0.34
   6   8 -18    0.66    0.34
  -6  -8  18    0.55    0.30
   5   8 -18    0.22    0.27
  -5  -8  18    0.08    0.26
   4   8 -18    3.73    0.41
  -4  -8  18    2.55    0.39
   3   8 -18    0.04    0.23
  -3  -8  18    0.27    0.23
   2   8 -18    0.22    0.23
  -2  -8  18    0.13    0.22
   1   8 -18    0.27    0.25
  -1  -8  18    0.53    0.22
   0   8 -18    0.18    0.21
   0  -8  18    0.30    0.22
  -1   8 -18   -0.17    0.21
   1  -8  18   -0.02    0.24
  -2   8 -18    1.03    0.28
   3  -8  18    0.22    0.26
  -4   8 -18    0.11    0.23
  -5   8 -18    0.36    0.27
  -6   8 -18    0.11    0.30
   6   7 -18    0.58    0.30
  -6  -7  18    0.14    0.27
   5   7 -18    0.09    0.24
  -5  -7  18    0.40    0.25
   4   7 -18    0.16    0.24
  -4  -7  18    0.05    0.22
   3   7 -18    2.42    0.31
  -3  -7  18    1.52    0.29
   2   7 -18    0.01    0.20
  -2  -7  18    0.03    0.20
   1   7 -18    2.49    0.36
  -1  -7  18    2.65    0.33
   0   7 -18    0.20    0.20
   0  -7  18    0.29    0.20
  -1   7 -18   -0.03    0.20
   1  -7  18   -0.05    0.20
   2  -7  18    0.17    0.24
   3  -7  18    0.68    0.24
  -4   7 -18   -0.01    0.21
   4  -7  18    0.00    0.23
  -5   7 -18    0.02    0.24
  -6   7 -18    0.34    0.33
   7   6 -18    0.26    0.32
  -7  -6  18   -0.10    0.29
   6   6 -18   -0.14    0.27
  -6  -6  18    0.21    0.25
   5   6 -18    0.82    0.26
  -5  -6  18    0.04    0.23
   4   6 -18    2.83    0.35
  -4  -6  18    2.21    0.33
   3   6 -18   -0.12    0.20
  -3  -6  18   -0.01    0.19
   2   6 -18    0.05    0.20
  -2  -6  18    0.24    0.19
   1   6 -18    2.05    0.28
  -1  -6  18    1.30    0.26
   0   6 -18    2.44    0.31
   0  -6  18    2.13    0.29
  -1   6 -18    0.50    0.21
   1  -6  18    0.21    0.21
   2  -6  18    0.66    0.22
  -3   6 -18    0.61    0.21
   3  -6  18    0.54    0.26
  -4   6 -18    0.08    0.24
   4  -6  18    0.14    0.23
  -5   6 -18    0.41    0.24
   5  -6  18    0.75    0.26
  -6   6 -18    0.34    0.28
  -7   6 -18   -0.03    0.32
   7   5 -18    0.28    0.30
  -7  -5  18   -0.11    0.28
   6   5 -18    0.07    0.25
  -6  -5  18    0.05    0.18
   5   5 -18    0.36    0.25
  -5  -5  18    0.41    0.23
   4   5 -18    0.24    0.21
  -4  -5  18    0.25    0.20
   3   5 -18   -0.02    0.20
  -3  -5  18    0.09    0.19
   2   5 -18    0.26    0.20
  -2  -5  18   -0.12    0.17
   1   5 -18    0.39    0.20
  -1  -5  18    0.15    0.21
   0   5 -18    0.50    0.20
   0  -5  18    0.85    0.20
   1  -5  18    0.19    0.20
   1  -5  18   -0.11    0.19
   2  -5  18    0.48    0.24
  -3   5 -18    0.74    0.22
   3  -5  18    0.54    0.23
  -4   5 -18    0.11    0.22
   4  -5  18   -0.08    0.21
  -5   5 -18    0.03    0.22
   5  -5  18    0.38    0.28
  -6   5 -18    0.08    0.26
   6  -5  18    0.66    0.31
  -7   5 -18   -0.12    0.34
   7   4 -18    0.49    0.30
  -7  -4  18    0.48    0.28
   6   4 -18    0.08    0.25
  -6  -4  18   -0.15    0.17
   5   4 -18    0.53    0.24
  -5  -4  18    0.68    0.24
   4   4 -18    0.04    0.20
  -4  -4  18    0.02    0.18
   3   4 -18    0.19    0.19
  -3  -4  18    0.12    0.18
   2   4 -18    0.21    0.19
  -2  -4  18    0.11    0.17
   1   4 -18    3.62    0.36
  -1  -4  18    2.74    0.34
   0  -4  18   -0.01    0.16
   0  -4  18    0.16    0.18
   1  -4  18    0.61    0.21
  -2   4 -18    1.20    0.22
   2  -4  18    0.86    0.23
  -3   4 -18    1.65    0.25
   3  -4  18    1.07    0.26
  -4   4 -18    0.06    0.21
   4  -4  18    0.14    0.23
  -5   4 -18    0.74    0.25
   5  -4  18    0.49    0.24
  -6   4 -18   -0.05    0.27
   6  -4  18   -0.21    0.26
  -7   4 -18   -0.01    0.33
   7  -4  18    0.11    0.33
   8   3 -18   -0.04    0.32
   7   3 -18    0.73    0.30
  -7  -3  18    0.24    0.27
   6   3 -18   -0.31    0.23
  -6  -3  18    0.18    0.22
   5   3 -18    0.45    0.22
  -5  -3  18    0.60    0.22
   4   3 -18   -0.16    0.20
  -4  -3  18   -0.19    0.18
   3   3 -18    0.58    0.17
  -3  -3  18    0.51    0.19
   2   3 -18    0.38    0.20
  -2  -3  18    0.65    0.20
   1   3 -18   -0.04    0.17
  -1  -3  18    0.33    0.16
   0  -3  18    3.08    0.36
   0  -3  18    3.64    0.38
   1  -3  18    0.64    0.20
  -2   3 -18    6.14    0.57
   2  -3  18    6.34    0.60
  -3   3 -18   -0.01    0.20
   3  -3  18    0.11    0.20
  -4   3 -18    0.06    0.19
   4  -3  18    0.05    0.21
  -5   3 -18    0.02    0.23
   5  -3  18   -0.09    0.23
  -6   3 -18    1.05    0.28
   6  -3  18    1.04    0.28
  -7   3 -18    0.31    0.29
   7  -3  18    0.24    0.28
   8  -3  18   -0.11    0.32
   8   2 -18    0.42    0.33
  -8  -2  18    0.17    0.30
   7   2 -18   -0.05    0.27
  -7  -2  18    0.22    0.27
   6   2 -18    0.17    0.24
  -6  -2  18   -0.03    0.16
   5   2 -18   -0.14    0.20
  -5  -2  18    0.02    0.19
   4   2 -18    1.04    0.22
  -4  -2  18    0.29    0.19
   3   2 -18    0.42    0.19
  -3  -2  18    0.15    0.17
   2   2 -18    0.21    0.19
  -2  -2  18    0.09    0.16
   1   2 -18   -0.18    0.17
  -1  -2  18   -0.04    0.15
   0  -2  18   -0.10    0.17
   0  -2  18   -0.07    0.16
   1  -2  18    0.05    0.19
  -2   2 -18   -0.14    0.15
   2  -2  18    0.07    0.20
  -3   2 -18    1.68    0.23
   3  -2  18    1.07    0.25
  -4   2 -18    0.34    0.20
   4  -2  18    0.29    0.22
  -5   2 -18   -0.05    0.21
   5  -2  18    0.09    0.26
  -6   2 -18    0.58    0.26
   6  -2  18    0.25    0.25
  -7   2 -18    0.79    0.31
   7  -2  18    0.24    0.28
   8  -2  18    0.10    0.32
   8   1 -18    0.56    0.33
  -8  -1  18    0.42    0.31
   7   1 -18    0.23    0.26
  -7  -1  18    0.05    0.25
   6   1 -18    0.36    0.23
  -6  -1  18    0.27    0.22
   5   1 -18   -0.13    0.20
  -5  -1  18   -0.03    0.19
   4   1 -18   -0.04    0.18
  -4  -1  18    0.10    0.18
   3   1 -18    0.28    0.19
  -3  -1  18   -0.11    0.15
   2   1 -18    0.04    0.18
  -2  -1  18    0.10    0.16
  -1  -1  18    0.54    0.18
  -1  -1  18    0.16    0.17
   0  -1  18    0.85    0.21
   0  -1  18    1.01    0.17
  -1   1 -18    0.97    0.20
   1  -1  18    0.74    0.21
  -2   1 -18    0.30    0.16
   2  -1  18    0.25    0.19
  -3   1 -18    5.48    0.52
   3  -1  18    5.49    0.55
  -4   1 -18    0.18    0.19
   4  -1  18   -0.21    0.21
  -5   1 -18    1.04    0.25
   5  -1  18    1.33    0.27
  -6   1 -18    0.12    0.24
   6  -1  18    0.22    0.24
  -7   1 -18   -0.17    0.27
   7  -1  18    0.01    0.27
   8  -1  18    0.57    0.33
   8   0 -18    0.16    0.31
  -8   0  18   -0.12    0.30
   7   0 -18    0.25    0.26
  -7   0  18    0.33    0.26
   6   0 -18    0.15    0.23
  -6   0  18    0.19    0.22
   5   0 -18    0.51    0.24
  -5   0  18    0.69    0.22
   4   0 -18    0.71    0.22
  -4   0  18    0.48    0.19
   3   0 -18    1.04    0.23
  -3   0  18    0.96    0.20
   2   0 -18    0.36    0.18
  -2   0  18    0.40    0.18
  -1   0  18    0.59    0.19
  -1   0  18    0.54    0.18
   0   0  18    1.85    0.27
  -1   0 -18    0.32    0.17
   1   0  18   -0.02    0.18
  -2   0 -18    1.74    0.26
   2   0  18    1.87    0.27
  -3   0 -18    4.73    0.49
   3   0  18    5.07    0.50
  -4   0 -18    0.12    0.18
   4   0  18    0.16    0.21
  -5   0 -18    0.71    0.22
   5   0  18    0.54    0.24
  -6   0 -18    1.34    0.28
   6   0  18    1.22    0.30
  -7   0 -18    0.22    0.27
   7   0  18   -0.32    0.27
   8  -1 -18   -0.16    0.30
  -8   1  18   -0.11    0.30
   7  -1 -18    0.26    0.29
  -7   1  18    0.18    0.26
   6  -1 -18    0.17    0.22
  -6   1  18    0.15    0.22
   5  -1 -18    1.36    0.28
  -5   1  18    1.28    0.25
   4  -1 -18    1.13    0.23
  -4   1  18    1.00    0.22
   3  -1 -18    0.17    0.19
  -3   1  18    0.04    0.15
   2  -1 -18    0.17    0.18
  -2   1  18    0.17    0.15
  -1   1  18    0.07    0.17
  -1   1  18    0.18    0.16
   0  -1 -18    0.70    0.17
   0   1  18    0.31    0.19
  -1  -1 -18    4.01    0.41
   1   1  18    3.94    0.42
  -2  -1 -18    2.68    0.28
   2   1  18    1.35    0.26
  -3  -1 -18    2.81    0.32
   3   1  18    2.36    0.34
  -4  -1 -18    1.20    0.23
   4   1  18    0.62    0.23
  -5  -1 -18    1.46    0.27
   5   1  18    1.54    0.29
  -6  -1 -18    0.58    0.28
   6   1  18    0.27    0.24
  -7  -1 -18   -0.03    0.27
   7   1  18    0.07    0.29
   8  -2 -18    0.04    0.31
  -8   2  18    0.06    0.31
   7  -2 -18    0.01    0.26
  -7   2  18    0.19    0.27
   6  -2 -18    0.06    0.22
  -6   2  18    0.46    0.24
   5  -2 -18    1.07    0.24
  -5   2  18    0.56    0.22
   4  -2 -18    2.48    0.32
  -4   2  18    2.36    0.32
   3  -2 -18    2.71    0.33
  -3   2  18    2.81    0.33
   2  -2 -18    1.07    0.23
  -2   2  18    1.23    0.21
  -1   2  18    2.87    0.32
  -1   2  18    3.19    0.35
   0  -2 -18    2.30    0.31
   0   2  18    3.72    0.35
  -1  -2 -18    0.51    0.16
   1   2  18    0.33    0.20
  -2  -2 -18    0.08    0.17
   2   2  18    0.31    0.20
  -3  -2 -18    3.64    0.36
   3   2  18    2.82    0.37
  -4  -2 -18    0.67    0.22
   4   2  18    0.64    0.23
  -5  -2 -18    0.17    0.22
   5   2  18    0.16    0.22
  -6  -2 -18    0.35    0.25
   6   2  18    0.05    0.26
  -7  -2 -18    0.10    0.28
   7   2  18    0.21    0.30
  -8   3  18    0.09    0.32
   7  -3 -18   -0.09    0.30
  -7   3  18    0.05    0.27
   6  -3 -18    0.12    0.25
  -6   3  18    0.35    0.24
   5  -3 -18    1.23    0.28
  -5   3  18    1.54    0.26
   4  -3 -18    0.44    0.23
  -4   3  18    0.07    0.17
   3  -3 -18   -0.04    0.21
  -3   3  18    0.21    0.16
  -2   3  18    4.87    0.49
  -2   3  18    4.88    0.48
  -1   3  18    4.29    0.41
  -1   3  18    3.28    0.40
   0  -3 -18    0.93    0.21
   0   3  18    0.98    0.22
  -1  -3 -18   -0.01    0.18
   1   3  18   -0.25    0.18
  -2  -3 -18    2.18    0.28
   2   3  18    1.60    0.29
  -3  -3 -18    3.43    0.39
   3   3  18    3.90    0.42
  -4  -3 -18    0.10    0.20
   4   3  18   -0.05    0.20
  -5  -3 -18   -0.05    0.22
   5   3  18    0.16    0.23
  -6  -3 -18   -0.03    0.24
   6   3  18   -0.20    0.25
  -7  -3 -18   -0.25    0.29
   7   3  18   -0.01    0.28
  -7   4  18    0.19    0.27
   6  -4 -18    0.90    0.26
  -6   4  18    0.86    0.27
   5  -4 -18    0.56    0.22
  -5   4  18    0.03    0.21
   4  -4 -18    4.83    0.48
  -4   4  18    4.32    0.47
   3  -4 -18    0.61    0.21
  -3   4  18    0.63    0.21
  -2   4  18    4.30    0.42
  -2   4  18    3.63    0.40
   1  -4 -18    1.98    0.25
  -1   4  18    1.17    0.24
   0  -4 -18    0.52    0.18
   0   4  18    0.61    0.20
  -1  -4 -18    0.08    0.19
   1   4  18    0.37    0.19
  -2  -4 -18    0.00    0.20
   2   4  18    0.02    0.20
  -3  -4 -18    0.29    0.19
   3   4  18    0.39    0.20
  -4  -4 -18    3.47    0.38
   4   4  18    2.80    0.38
  -5  -4 -18    0.84    0.25
   5   4  18    0.51    0.26
  -6  -4 -18    0.12    0.26
   6   4  18   -0.04    0.26
  -7  -4 -18    0.01    0.29
   7   4  18    0.11    0.29
  -7   5  18    0.06    0.29
  -6   5  18    0.06    0.24
   5  -5 -18    1.15    0.31
  -5   5  18    1.27    0.26
   4  -5 -18    1.78    0.31
  -4   5  18    2.39    0.30
   3  -5 -18    0.36    0.22
  -3   5  18    0.73    0.20
  -2   5  18   15.06    1.28
  -2   5  18   14.82    1.27
   1  -5 -18    0.20    0.19
  -1   5  18    0.35    0.20
   0  -5 -18    0.39    0.18
   0   5  18    0.83    0.21
  -1  -5 -18    0.05    0.18
   1   5  18    0.42    0.20
  -2  -5 -18    0.27    0.21
   2   5  18    0.55    0.24
  -3  -5 -18    1.86    0.30
   3   5  18    2.89    0.34
  -4  -5 -18    1.09    0.26
   4   5  18    1.20    0.27
  -5  -5 -18    0.33    0.27
   5   5  18    0.12    0.26
  -6  -5 -18    1.05    0.29
   6   5  18    0.49    0.29
  -7   6  18    0.44    0.31
  -6   6  18    0.15    0.26
  -5   6  18   -0.08    0.23
  -4   6  18   -0.05    0.20
   3  -6 -18    0.19    0.22
  -3   6  18    0.05    0.18
  -2   6  18    2.14    0.30
  -2   6  18    1.70    0.27
   1  -6 -18    2.79    0.35
  -1   6  18    3.85    0.39
   0  -6 -18    0.14    0.18
   0   6  18    0.02    0.20
  -1  -6 -18    0.00    0.19
   1   6  18    0.26    0.22
  -2  -6 -18    0.17    0.20
   2   6  18    1.08    0.24
  -3  -6 -18    1.49    0.27
   3   6  18    1.89    0.30
  -4  -6 -18    0.17    0.22
   4   6  18    0.00    0.22
  -5  -6 -18   -0.15    0.24
   5   6  18    0.05    0.26
  -6  -6 -18   -0.03    0.29
   6   6  18    0.67    0.30
  -7   7  18    0.52    0.35
  -6   7  18   -0.20    0.33
  -5   7  18   -0.02    0.25
  -4   7  18    0.05    0.22
  -3   7  18    0.45    0.21
   2  -7 -18    0.20    0.19
  -2   7  18    0.31    0.21
   1  -7 -18   -0.06    0.21
  -1   7  18   -0.13    0.22
   0  -7 -18    0.61    0.21
   0   7  18    0.25    0.21
  -1  -7 -18    0.12    0.21
   1   7  18    0.50    0.21
  -2  -7 -18   -0.10    0.21
   2   7  18   -0.12    0.20
  -3  -7 -18    0.41    0.23
   3   7  18    0.22    0.23
  -4  -7 -18    0.51    0.25
   4   7  18    0.80    0.30
  -5  -7 -18    0.72    0.29
   5   7  18    0.73    0.30
  -6  -7 -18   -0.02    0.29
   6   7  18    0.05    0.30
  -6   8  18    0.10    0.31
  -5   8  18   -0.20    0.26
  -4   8  18   -0.03    0.24
  -3   8  18    0.14    0.24
   2  -8 -18    0.80    0.23
   1  -8 -18    0.04    0.23
  -1   8  18   -0.06    0.21
   0  -8 -18    0.12    0.20
   0   8  18    0.41    0.22
  -1  -8 -18    0.22    0.22
   1   8  18    0.46    0.25
  -2  -8 -18    0.19    0.23
   2   8  18    0.36    0.23
  -3  -8 -18    0.02    0.24
   3   8  18   -0.06    0.24
  -4  -8 -18   -0.15    0.26
   4   8  18   -0.02    0.26
  -5  -8 -18   -0.19    0.29
   5   8  18    0.19    0.30
  -6   9  18   -0.18    0.34
  -5   9  18    0.00    0.29
  -4   9  18    0.86    0.28
  -3   9  18   -0.02    0.22
   2  -9 -18    0.96    0.27
   1  -9 -18    0.06    0.22
   0  -9 -18    0.30    0.23
   0   9  18    0.61    0.33
  -1  -9 -18   -0.08    0.23
   1   9  18    0.00    0.23
  -2  -9 -18    0.05    0.24
   2   9  18   -0.12    0.26
  -3  -9 -18    0.05    0.27
   3   9  18   -0.12    0.25
  -4  -9 -18    0.05    0.28
   4   9  18    0.13    0.28
  -5  -9 -18    0.44    0.32
   5   9  18    0.82    0.34
  -6  10  18    0.16    0.41
  -5  10  18    0.04    0.32
  -4  10  18   -0.04    0.27
   3 -10 -18   -0.08    0.28
   2 -10 -18    0.24    0.27
   1 -10 -18    0.12    0.27
   0 -10 -18    1.09    0.28
  -1 -10 -18    0.29    0.25
  -2 -10 -18    0.66    0.29
   2  10  18    0.42    0.26
  -3 -10 -18   -0.02    0.29
   3  10  18   -0.06    0.27
  -4 -10 -18    0.06    0.31
   4  10  18    0.85    0.32
   5  10  18    0.81    0.36
  -5  11  18    0.77    0.36
  -4  11  18   -0.15    0.30
   3 -11 -18   -0.01    0.26
   2 -11 -18   -0.23    0.27
   1 -11 -18   -0.05    0.26
   0 -11 -18    1.07    0.30
  -1 -11 -18   -0.01    0.27
  -2 -11 -18    1.06    0.34
  -3 -11 -18    0.12    0.32
   3  11  18    0.08    0.34
   4  11  18    0.04    0.33
   3 -12 -18    0.00    0.30
   2 -12 -18    0.06    0.30
   1 -12 -18    0.37    0.29
   0 -12 -18   -0.22    0.33
  -1 -12 -18    0.06    0.32
  -2 -12 -18    0.00    0.31
   2 -13 -18   -0.06    0.38
   1 -13 -18    0.58    0.38
   0 -13 -18   -0.19    0.32
   0 -13  19    0.11    0.41
   1 -13  19    0.23    0.43
   3  12 -19   -0.30    0.34
   2  12 -19    0.65    0.39
  -2 -12  19    0.46    0.39
  -1 -12  19   -0.23    0.33
   0 -12  19    1.47    0.38
   1 -12  19   -0.28    0.33
   2 -12  19   -0.09    0.32
   4  11 -19   -0.01    0.39
   3  11 -19   -0.25    0.31
  -3 -11  19   -0.03    0.31
   2  11 -19    0.22    0.34
  -2 -11  19    0.31    0.31
   1  11 -19   -0.06    0.28
  -1 -11  19    0.18    0.30
   0 -11  19   -0.03    0.29
   1 -11  19    1.32    0.34
   2 -11  19    0.05    0.52
   4  10 -19    0.36    0.32
  -4 -10  19    0.21    0.31
   3  10 -19    2.17    0.40
  -3 -10  19    2.02    0.38
   2  10 -19    0.20    0.31
  -2 -10  19    0.11    0.28
   1  10 -19   -0.13    0.25
  -1 -10  19    0.07    0.27
   0  10 -19    0.44    0.27
   0 -10  19    0.65    0.29
  -1  10 -19    1.69    0.37
   1 -10  19    1.25    0.32
   5   9 -19    0.10    0.33
  -5  -9  19    0.10    0.30
   4   9 -19   -0.03    0.30
  -4  -9  19    0.69    0.30
   3   9 -19    1.22    0.31
  -3  -9  19    1.08    0.31
   2   9 -19    1.02    0.29
  -2  -9  19    1.55    0.30
   1   9 -19    0.04    0.24
  -1  -9  19   -0.03    0.25
   0   9 -19    1.82    0.32
   0  -9  19    2.00    0.35
  -1   9 -19    0.39    0.29
   1  -9  19    0.50    0.26
  -2   9 -19    0.93    0.31
   5   8 -19    0.06    0.30
  -5  -8  19    0.02    0.28
   4   8 -19    0.96    0.31
  -4  -8  19    1.80    0.33
   3   8 -19    0.05    0.25
  -3  -8  19    0.03    0.24
   2   8 -19    0.89    0.26
  -2  -8  19    0.91    0.27
   1   8 -19    0.07    0.24
  -1  -8  19    0.08    0.22
   0   8 -19    0.22    0.24
   0  -8  19    0.60    0.24
  -1   8 -19    0.31    0.24
   1  -8  19    0.48    0.24
  -2   8 -19    0.45    0.27
   3  -8  19    0.55    0.26
  -5   8 -19    0.14    0.29
  -6   8 -19   -0.20    0.34
   6   7 -19    0.85    0.33
  -6  -7  19    0.39    0.31
   5   7 -19    0.10    0.29
  -5  -7  19    0.10    0.26
   4   7 -19    0.00    0.25
  -4  -7  19    0.06    0.25
   3   7 -19    3.84    0.46
  -3  -7  19    4.26    0.46
   2   7 -19   -0.08    0.23
  -2  -7  19   -0.06    0.21
   1   7 -19    0.17    0.25
  -1  -7  19    0.10    0.21
   0   7 -19    0.88    0.26
   0  -7  19    1.42    0.26
  -1   7 -19    4.43    0.49
   1  -7  19    4.95    0.51
   2  -7  19    0.11    0.23
   3  -7  19   -0.12    0.23
  -4   7 -19    0.50    0.33
   4  -7  19    0.14    0.29
  -5   7 -19    1.68    0.36
  -6   7 -19   -0.06    0.31
   6   6 -19    1.66    0.36
  -6  -6  19    2.33    0.37
   5   6 -19    0.17    0.27
  -5  -6  19    0.01    0.25
   4   6 -19    1.71    0.30
  -4  -6  19    0.86    0.27
   3   6 -19    0.78    0.25
  -3  -6  19    1.16    0.28
   2   6 -19    1.81    0.29
  -2  -6  19    1.44    0.27
   1   6 -19    0.02    0.21
  -1  -6  19    0.17    0.20
   0   6 -19    3.16    0.39
   0  -6  19    3.35    0.38
  -1   6 -19    1.09    0.26
   2  -6  19    2.24    0.34
   3  -6  19    0.20    0.24
  -4   6 -19    2.37    0.32
   4  -6  19    1.75    0.33
  -5   6 -19    0.05    0.25
   5  -6  19    0.54    0.28
  -6   6 -19   -0.17    0.29
   7   5 -19   -0.11    0.33
  -7  -5  19    0.15    0.30
   6   5 -19    0.86    0.34
  -6  -5  19   -0.04    0.25
   5   5 -19    0.16    0.25
  -5  -5  19   -0.19    0.23
   4   5 -19    0.30    0.23
  -4  -5  19    0.32    0.22
   3   5 -19    1.13    0.25
  -3  -5  19    1.06    0.24
   2   5 -19    1.58    0.31
  -2  -5  19    2.79    0.31
   1   5 -19    1.13    0.26
  -1  -5  19    1.58    0.26
   0   5 -19    3.84    0.42
   0  -5  19    3.77    0.42
   1  -5  19    1.43    0.27
   2  -5  19    0.22    0.22
  -3   5 -19    0.03    0.25
   3  -5  19   -0.04    0.23
  -4   5 -19    2.29    0.31
   4  -5  19    1.44    0.30
  -5   5 -19   -0.08    0.26
   5  -5  19   -0.11    0.27
  -6   5 -19    0.20    0.31
   6  -5  19    0.13    0.29
   7   4 -19    0.00    0.30
  -7  -4  19   -0.17    0.28
   6   4 -19    0.40    0.27
  -6  -4  19    0.36    0.26
   5   4 -19    0.34    0.24
  -5  -4  19    0.59    0.24
   4   4 -19    0.01    0.23
  -4  -4  19    0.03    0.21
   3   4 -19    0.93    0.24
  -3  -4  19    0.95    0.22
   2   4 -19    0.27    0.16
  -2  -4  19    0.42    0.20
   1   4 -19    0.20    0.20
  -1  -4  19    0.04    0.18
   0   4 -19    1.16    0.23
   0  -4  19    0.76    0.23
   1  -4  19    3.25    0.38
   2  -4  19    2.52    0.34
  -3   4 -19    0.03    0.21
   3  -4  19    0.03    0.22
  -4   4 -19    0.57    0.24
   4  -4  19    0.68    0.26
  -5   4 -19    0.05    0.23
   5  -4  19    0.53    0.26
  -6   4 -19   -0.27    0.26
   6  -4  19   -0.21    0.28
  -7   4 -19   -0.18    0.31
   7  -4  19    0.40    0.39
   7   3 -19   -0.04    0.30
  -7  -3  19    0.07    0.29
   6   3 -19    0.11    0.27
  -6  -3  19    0.19    0.25
   5   3 -19   -0.11    0.22
  -5  -3  19    0.18    0.23
   4   3 -19    0.16    0.21
  -4  -3  19    0.11    0.20
   3   3 -19   -0.02    0.20
  -3  -3  19    0.14    0.19
   2   3 -19    0.30    0.21
  -2  -3  19    0.57    0.19
   1   3 -19    1.53    0.25
  -1  -3  19    1.12    0.22
   0  -3  19    2.39    0.32
   0  -3  19    2.33    0.30
   1  -3  19    0.07    0.21
   2  -3  19    1.52    0.28
  -3   3 -19    0.08    0.21
   3  -3  19   -0.14    0.21
  -4   3 -19    1.96    0.28
   4  -3  19    1.76    0.31
  -5   3 -19    0.64    0.25
   5  -3  19    0.57    0.26
  -6   3 -19    0.10    0.27
   6  -3  19    0.06    0.29
  -7   3 -19   -0.21    0.35
   7  -3  19    0.06    0.36
   8   2 -19   -0.05    0.37
   7   2 -19    0.06    0.28
  -7  -2  19    0.00    0.27
   6   2 -19    1.06    0.29
  -6  -2  19    1.29    0.28
   5   2 -19    0.56    0.27
  -5  -2  19    0.56    0.23
   4   2 -19    0.22    0.21
  -4  -2  19    0.34    0.20
   3   2 -19    0.12    0.20
  -3  -2  19    0.36    0.19
   2   2 -19    1.99    0.30
  -2  -2  19    2.46    0.29
   1   2 -19   -0.09    0.19
  -1  -2  19    0.07    0.19
   0  -2  19   -0.03    0.18
   1  -2  19    3.37    0.39
  -2   2 -19    0.07    0.19
   2  -2  19    0.04    0.21
  -3   2 -19    0.04    0.18
   3  -2  19    0.14    0.22
  -4   2 -19    0.15    0.20
   4  -2  19    0.12    0.23
  -5   2 -19   -0.06    0.22
   5  -2  19    0.08    0.25
  -6   2 -19   -0.05    0.25
   6  -2  19    0.27    0.27
  -7   2 -19    0.12    0.31
   7  -2  19    0.42    0.32
   8   1 -19    0.43    0.35
   7   1 -19   -0.05    0.28
  -7  -1  19    0.05    0.27
   6   1 -19    0.25    0.24
  -6  -1  19    0.12    0.23
   5   1 -19    1.23    0.27
  -5  -1  19    1.21    0.26
   4   1 -19    0.14    0.21
  -4  -1  19    0.10    0.19
   3   1 -19    2.71    0.35
  -3  -1  19    3.07    0.35
   2   1 -19    0.12    0.15
  -2  -1  19    0.09    0.17
  -1  -1  19    0.49    0.22
  -1  -1  19    0.87    0.20
   0  -1  19    0.18    0.19
   1  -1  19    0.70    0.23
  -2   1 -19    0.29    0.17
   2  -1  19   -0.12    0.19
  -3   1 -19    0.25    0.18
   3  -1  19    0.26    0.22
  -4   1 -19    0.20    0.20
   4  -1  19   -0.13    0.22
  -5   1 -19    0.21    0.22
   5  -1  19    0.21    0.24
  -6   1 -19    0.13    0.29
   6  -1  19    0.23    0.27
  -7   1 -19    0.95    0.32
   7  -1  19    0.73    0.33
   8   0 -19    0.28    0.34
   7   0 -19   -0.08    0.28
  -7   0  19    0.04    0.28
   6   0 -19    0.73    0.27
  -6   0  19    0.62    0.26
   5   0 -19    0.33    0.23
  -5   0  19    0.38    0.22
   4   0 -19    0.10    0.20
  -4   0  19    0.03    0.18
   3   0 -19    3.82    0.42
  -3   0  19    3.84    0.40
   2   0 -19    0.33    0.20
  -2   0  19   -0.01    0.16
  -1   0  19    2.31    0.31
  -1   0  19    2.48    0.28
   0   0  19    0.13    0.19
  -1   0 -19    0.52    0.19
   1   0  19    0.86    0.22
  -2   0 -19    1.88    0.28
   2   0  19    1.87    0.29
  -3   0 -19    0.06    0.18
   3   0  19   -0.08    0.20
  -4   0 -19    4.42    0.47
   4   0  19    4.26    0.48
  -5   0 -19    1.12    0.26
   5   0  19    1.33    0.28
  -6   0 -19    0.08    0.29
   6   0  19    0.44    0.31
  -7   0 -19    0.00    0.30
   7   0  19    0.10    0.29
   8  -1 -19    0.41    0.39
   7  -1 -19   -0.10    0.28
  -7   1  19    0.09    0.28
   6  -1 -19    0.63    0.27
  -6   1  19    0.69    0.25
   5  -1 -19    0.31    0.23
  -5   1  19    0.29    0.20
   4  -1 -19    0.15    0.21
  -4   1  19    0.25    0.22
   3  -1 -19    0.37    0.21
  -3   1  19    0.47    0.18
   2  -1 -19   -0.12    0.18
  -2   1  19    0.11    0.16
  -1   1  19   -0.06    0.18
  -1   1  19    0.07    0.17
   0   1  19   -0.11    0.19
  -1  -1 -19    3.46    0.36
   1   1  19    3.37    0.39
  -2  -1 -19    0.13    0.18
   2   1  19    0.05    0.21
  -3  -1 -19    0.66    0.24
   3   1  19    0.97    0.25
  -4  -1 -19    3.72    0.39
   4   1  19    3.17    0.41
  -5  -1 -19    0.35    0.23
   5   1  19    0.65    0.26
  -6  -1 -19   -0.12    0.25
   6   1  19   -0.22    0.26
  -7  -1 -19    0.48    0.31
   7   1  19    0.20    0.34
   7  -2 -19    0.17    0.31
  -7   2  19   -0.13    0.28
   6  -2 -19    0.41    0.25
  -6   2  19    0.04    0.24
   5  -2 -19    0.28    0.23
  -5   2  19    0.48    0.23
   4  -2 -19    1.40    0.27
  -4   2  19    1.56    0.28
   3  -2 -19    1.86    0.29
  -3   2  19    2.05    0.27
   2  -2 -19    0.14    0.19
  -2   2  19    0.09    0.16
  -1   2  19    0.20    0.19
   0   2  19    0.07    0.19
  -1  -2 -19    1.59    0.24
   1   2  19    1.93    0.29
  -2  -2 -19    1.22    0.23
   2   2  19    1.08    0.24
  -3  -2 -19    0.17    0.22
   3   2  19    0.05    0.22
  -4  -2 -19    0.53    0.23
   4   2  19    0.53    0.24
  -5  -2 -19    1.28    0.28
   5   2  19    0.92    0.29
  -6  -2 -19    0.29    0.27
   6   2  19    0.00    0.27
  -7  -2 -19   -0.04    0.33
   7   2  19   -0.16    0.34
   7  -3 -19    0.92    0.47
  -7   3  19    0.84    0.31
   6  -3 -19    0.27    0.25
  -6   3  19    0.08    0.24
   5  -3 -19    0.09    0.22
  -5   3  19   -0.06    0.24
   4  -3 -19   -0.13    0.24
  -4   3  19   -0.03    0.19
   3  -3 -19    0.81    0.24
  -3   3  19    1.20    0.24
   2  -3 -19    0.57    0.22
  -2   3  19    0.85    0.19
  -1   3  19    0.52    0.21
   0  -3 -19    0.14    0.19
   0   3  19    0.38    0.21
  -1  -3 -19    0.73    0.20
   1   3  19    1.09    0.24
  -2  -3 -19   -0.14    0.18
   2   3  19    0.22    0.21
  -3  -3 -19    0.03    0.19
   3   3  19    0.17    0.22
  -4  -3 -19    0.58    0.22
   4   3  19    0.39    0.24
  -5  -3 -19    0.07    0.23
   5   3  19    0.30    0.25
  -6  -3 -19   -0.02    0.27
   6   3  19   -0.07    0.28
  -7   4  19   -0.09    0.30
  -6   4  19    1.11    0.29
   5  -4 -19   -0.02    0.22
  -5   4  19   -0.01    0.25
   4  -4 -19    2.33    0.32
  -4   4  19    2.17    0.30
   3  -4 -19    0.44    0.23
  -3   4  19    0.36    0.22
  -2   4  19    0.37    0.21
  -2   4  19    0.27    0.20
  -1   4  19    1.52    0.26
   0  -4 -19    0.04    0.19
   0   4  19   -0.19    0.18
  -1  -4 -19    0.95    0.24
   1   4  19    0.87    0.24
  -2  -4 -19    0.99    0.22
   2   4  19    0.76    0.25
  -3  -4 -19    0.33    0.21
   3   4  19    0.19    0.22
  -4  -4 -19    0.44    0.23
   4   4  19    0.78    0.26
  -5  -4 -19   -0.01    0.24
   5   4  19    0.12    0.24
  -6  -4 -19    0.11    0.29
   6   4  19    0.24    0.32
  -7   5  19    0.30    0.32
  -6   5  19    0.20    0.30
  -5   5  19   -0.01    0.23
   4  -5 -19    2.17    0.36
  -4   5  19    2.97    0.35
   3  -5 -19    1.03    0.25
  -3   5  19    1.53    0.25
  -2   5  19    0.08    0.23
  -1   5  19    0.08    0.23
   0  -5 -19    0.01    0.21
   0   5  19   -0.08    0.23
  -1  -5 -19    5.07    0.46
   1   5  19    3.58    0.45
  -2  -5 -19    2.65    0.34
   2   5  19    2.16    0.34
  -3  -5 -19    1.00    0.25
   3   5  19    0.80    0.26
  -4  -5 -19    0.07    0.23
   4   5  19    0.06    0.24
  -5  -5 -19    0.04    0.25
   5   5  19    0.30    0.28
  -6  -5 -19    0.08    0.28
   6   5  19   -0.02    0.31
  -7   6  19   -0.05    0.33
  -6   6  19    0.02    0.32
  -5   6  19    0.02    0.28
  -4   6  19    0.04    0.24
   3  -6 -19    1.12    0.27
  -3   6  19    1.22    0.26
  -2   6  19    0.35    0.24
   1  -6 -19    0.30    0.23
  -1   6  19    0.42    0.22
   0  -6 -19    1.15    0.26
   0   6  19    0.87    0.25
  -1  -6 -19    1.50    0.28
   1   6  19    1.97    0.29
  -2  -6 -19    1.10    0.24
   2   6  19    0.67    0.26
  -3  -6 -19   -0.01    0.22
   3   6  19    0.32    0.27
  -4  -6 -19    0.39    0.28
   4   6  19    0.11    0.26
  -5  -6 -19    0.10    0.27
   5   6  19    0.21    0.27
  -6  -6 -19   -0.12    0.34
   6   6  19    0.08    0.37
  -6   7  19    0.03    0.30
  -5   7  19   -0.24    0.31
  -4   7  19    1.02    0.27
  -3   7  19    0.26    0.22
  -2   7  19   -0.01    0.24
   1  -7 -19   -0.05    0.23
  -1   7  19   -0.15    0.21
   0  -7 -19    1.21    0.26
   0   7  19    1.55    0.28
  -1  -7 -19   -0.11    0.21
   1   7  19   -0.03    0.22
  -2  -7 -19   -0.06    0.22
   2   7  19    0.05    0.24
  -3  -7 -19    0.05    0.24
   3   7  19    0.06    0.24
  -4  -7 -19   -0.08    0.26
   4   7  19    0.44    0.28
  -5  -7 -19   -0.14    0.27
   5   7  19    0.01    0.30
  -6   8  19    0.86    0.36
  -5   8  19   -0.19    0.29
  -4   8  19    1.46    0.31
   1  -8 -19    0.02    0.22
  -1   8  19    0.07    0.25
   0  -8 -19    0.56    0.24
   0   8  19    0.51    0.27
  -1  -8 -19    0.14    0.24
   1   8  19    0.18    0.26
  -2  -8 -19   -0.13    0.24
   2   8  19   -0.38    0.23
  -3  -8 -19    0.27    0.27
   3   8  19   -0.04    0.25
  -4  -8 -19   -0.12    0.28
   4   8  19    0.18    0.28
  -5  -8 -19    0.15    0.32
   5   8  19   -0.22    0.32
  -6   9  19   -0.04    0.42
  -5   9  19    0.08    0.32
  -4   9  19    0.01    0.28
   2  -9 -19   -0.02    0.23
   1  -9 -19    0.23    0.27
   0  -9 -19   -0.22    0.23
  -1  -9 -19    0.14    0.29
   1   9  19    0.15    0.24
  -2  -9 -19   -0.02    0.26
   2   9  19    0.08    0.26
  -3  -9 -19   -0.08    0.29
   3   9  19    0.42    0.32
  -4  -9 -19   -0.02    0.29
   4   9  19    0.01    0.30
  -5  10  19   -0.11    0.35
  -4  10  19   -0.26    0.29
   2 -10 -19    1.16    0.33
   1 -10 -19    0.33    0.27
   0 -10 -19    0.46    0.28
  -1 -10 -19    0.72    0.30
  -2 -10 -19    0.21    0.30
   2  10  19    0.17    0.29
  -3 -10 -19    0.24    0.32
   3  10  19    0.27    0.35
   4  10  19    0.11    0.38
   2 -11 -19    0.04    0.29
   1 -11 -19   -0.06    0.28
   0 -11 -19    0.37    0.30
  -1 -11 -19    0.07    0.31
  -2 -11 -19    0.29    0.37
   3 -12 -19   -0.09    0.39
   2 -12 -19    0.25    0.34
   1 -12 -19   -0.20    0.31
   0 -12 -19   -0.12    0.32
  -1 -12 -19    0.18    0.34
  -1 -12  20    0.45    0.41
   0 -12  20    0.49    0.36
   1 -12  20   -0.37    0.36
   3  11 -20   -0.46    0.34
   2  11 -20    0.06    0.37
  -2 -11  20   -0.04    0.33
   1  11 -20    0.80    0.33
  -1 -11  20    0.16    0.34
   0 -11  20    0.20    0.33
   1 -11  20    0.04    0.32
   4  10 -20    0.02    0.40
   3  10 -20   -0.29    0.31
  -3 -10  20   -0.34    0.30
   2  10 -20    0.03    0.29
  -2 -10  20   -0.01    0.29
   1  10 -20    0.08    0.29
  -1 -10  20   -0.02    0.29
   0  10 -20    0.36    0.29
   0 -10  20    0.42    0.35
  -1  10 -20    1.14    0.40
   1 -10  20    1.00    0.33
   4   9 -20    0.84    0.34
  -4  -9  20    0.36    0.31
   3   9 -20    0.30    0.34
  -3  -9  20    0.17    0.29
   2   9 -20    0.51    0.28
  -2  -9  20    0.28    0.27
   1   9 -20    0.07    0.27
  -1  -9  20   -0.01    0.30
   0   9 -20    0.96    0.30
   0  -9  20    1.09    0.31
  -1   9 -20    0.31    0.28
   1  -9  20    0.41    0.28
  -2   9 -20    1.53    0.37
   5   8 -20    0.25    0.33
  -5  -8  20   -0.03    0.30
   4   8 -20    0.18    0.30
  -4  -8  20    0.34    0.30
   3   8 -20    0.04    0.27
  -3  -8  20    0.39    0.27
   2   8 -20    0.12    0.26
  -2  -8  20   -0.13    0.25
   1   8 -20    0.66    0.29
  -1  -8  20    1.49    0.29
   0   8 -20    0.57    0.26
   0  -8  20    0.46    0.29
  -1   8 -20    0.19    0.30
  -2   8 -20   -0.08    0.25
   3  -8  20    1.76    0.35
   5   7 -20    1.46    0.37
  -5  -7  20    1.53    0.35
   4   7 -20    0.19    0.28
  -4  -7  20    0.24    0.26
   3   7 -20   -0.06    0.26
  -3  -7  20    0.08    0.25
   2   7 -20    0.25    0.25
  -2  -7  20    0.09    0.24
   1   7 -20    3.98    0.48
  -1  -7  20    4.62    0.49
   0   7 -20    0.20    0.25
   0  -7  20   -0.01    0.22
  -1   7 -20    0.43    0.25
   3  -7  20    1.40    0.31
   4  -7  20    0.10    0.28
  -5   7 -20    0.02    0.33
   6   6 -20    0.12    0.36
  -6  -6  20   -0.21    0.29
   5   6 -20    0.06    0.29
  -5  -6  20    0.10    0.27
   4   6 -20    1.37    0.31
  -4  -6  20    0.94    0.28
   3   6 -20    0.04    0.24
  -3  -6  20    0.09    0.23
   2   6 -20    0.85    0.27
  -2  -6  20    0.74    0.25
   1   6 -20    2.04    0.32
  -1  -6  20    1.86    0.31
   0   6 -20    3.54    0.41
   0  -6  20    3.03    0.38
  -1   6 -20   -0.10    0.26
   2  -6  20    2.46    0.38
   3  -6  20   -0.05    0.25
   4  -6  20    1.42    0.35
  -5   6 -20    0.28    0.27
   5  -6  20   -0.01    0.30
  -6   6 -20    1.34    0.35
   6   5 -20   -0.11    0.29
  -6  -5  20    0.13    0.28
   5   5 -20    0.30    0.27
  -5  -5  20    0.10    0.25
   4   5 -20    0.37    0.25
  -4  -5  20    0.36    0.24
   3   5 -20    0.01    0.23
  -3  -5  20   -0.04    0.21
   2   5 -20    0.80    0.26
  -2  -5  20    1.10    0.27
   1   5 -20    0.14    0.22
  -1  -5  20    0.26    0.24
   0   5 -20    1.42    0.27
   0  -5  20    0.84    0.24
   1  -5  20    0.29    0.24
   2  -5  20    0.25    0.24
   3  -5  20    0.94    0.27
  -4   5 -20   -0.12    0.25
   4  -5  20    0.06    0.27
  -5   5 -20   -0.11    0.25
   5  -5  20    0.31    0.29
  -6   5 -20   -0.04    0.31
   6  -5  20   -0.02    0.34
   6   4 -20   -0.17    0.29
  -6  -4  20   -0.11    0.27
   5   4 -20    0.09    0.26
  -5  -4  20   -0.14    0.23
   4   4 -20   -0.09    0.23
  -4  -4  20    0.08    0.22
   3   4 -20    0.60    0.24
  -3  -4  20   -0.09    0.19
   2   4 -20    1.78    0.28
  -2  -4  20    1.23    0.28
   1   4 -20    3.97    0.42
  -1  -4  20    3.34    0.41
   0   4 -20   -0.17    0.21
   1  -4  20    0.65    0.24
   2  -4  20    1.07    0.26
   3  -4  20    2.80    0.38
  -4   4 -20   -0.09    0.25
   4  -4  20    0.08    0.25
  -5   4 -20   -0.21    0.29
   5  -4  20   -0.31    0.28
  -6   4 -20    0.20    0.30
   6  -4  20    0.50    0.36
   7   3 -20    0.25    0.33
   6   3 -20   -0.18    0.28
  -6  -3  20    0.46    0.28
   5   3 -20    1.63    0.30
  -5  -3  20    0.76    0.26
   4   3 -20    2.46    0.38
  -4  -3  20    3.58    0.39
   3   3 -20    0.58    0.24
  -3  -3  20    0.01    0.19
   2   3 -20    3.77    0.38
  -2  -3  20    2.51    0.34
   1   3 -20    0.43    0.21
  -1  -3  20    0.41    0.22
   0  -3  20    1.84    0.30
   1  -3  20    0.11    0.22
   2  -3  20    1.35    0.28
  -3   3 -20    0.02    0.19
   3  -3  20   -0.10    0.23
  -4   3 -20    0.05    0.22
   4  -3  20   -0.12    0.25
  -5   3 -20    0.08    0.25
   5  -3  20   -0.03    0.27
  -6   3 -20    0.08    0.29
   6  -3  20    0.36    0.32
   7  -3  20   -0.27    0.43
   7   2 -20    0.15    0.31
  -7  -2  20    0.02    0.30
   6   2 -20    0.27    0.28
  -6  -2  20    0.08    0.26
   5   2 -20    0.23    0.25
  -5  -2  20   -0.01    0.23
   4   2 -20    3.11    0.36
  -4  -2  20    2.21    0.33
   3   2 -20    0.01    0.22
  -3  -2  20    0.01    0.19
   2   2 -20    0.20    0.22
  -2  -2  20   -0.05    0.18
   1   2 -20    1.36    0.26
  -1  -2  20    1.53    0.24
   0  -2  20    1.10    0.25
   1  -2  20    0.40    0.22
   2  -2  20    1.33    0.27
  -3   2 -20    0.06    0.19
   3  -2  20    0.16    0.24
  -4   2 -20   -0.01    0.24
   4  -2  20   -0.11    0.25
  -5   2 -20    0.29    0.25
   5  -2  20    0.43    0.32
  -6   2 -20    0.07    0.32
   6  -2  20    0.20    0.31
   7  -2  20    0.02    0.38
   7   1 -20    1.44    0.35
  -7  -1  20    0.61    0.32
   6   1 -20    0.85    0.33
  -6  -1  20    1.16    0.29
   5   1 -20    0.56    0.25
  -5  -1  20    0.35    0.23
   4   1 -20    0.01    0.23
  -4  -1  20   -0.09    0.20
   3   1 -20   -0.12    0.20
  -3  -1  20   -0.11    0.19
   2   1 -20    0.11    0.21
  -2  -1  20   -0.16    0.20
   1   1 -20    2.10    0.30
  -1  -1  20    2.01    0.29
   0  -1  20    2.03    0.30
   1  -1  20    0.21    0.21
  -2   1 -20    2.80    0.35
   2  -1  20    2.75    0.36
  -3   1 -20    0.44    0.23
   3  -1  20    0.52    0.26
  -4   1 -20    0.09    0.21
   4  -1  20   -0.12    0.24
  -5   1 -20    0.81    0.26
   5  -1  20    0.35    0.28
  -6   1 -20    0.30    0.29
   6  -1  20    0.20    0.29
   7   0 -20   -0.06    0.31
  -7   0  20    0.03    0.29
   6   0 -20    0.10    0.26
  -6   0  20    0.07    0.25
   5   0 -20    0.20    0.25
  -5   0  20   -0.08    0.21
   4   0 -20    0.00    0.26
  -4   0  20    0.18    0.20
   3   0 -20   -0.07    0.20
  -3   0  20    0.05    0.21
   2   0 -20    0.45    0.23
  -2   0  20    1.13    0.21
  -1   0  20    0.37    0.22
   0   0  20    1.57    0.27
   1   0  20    0.45    0.23
  -2   0 -20    1.17    0.25
   2   0  20    1.13    0.27
  -3   0 -20    1.70    0.27
   3   0  20    1.85    0.31
  -4   0 -20   -0.21    0.21
   4   0  20    0.17    0.26
  -5   0 -20    0.03    0.24
   5   0  20    0.21    0.27
  -6   0 -20    3.21    0.43
   6   0  20    3.16    0.44
   7  -1 -20    0.31    0.32
  -7   1  20    0.23    0.30
   6  -1 -20   -0.17    0.26
  -6   1  20   -0.05    0.25
   5  -1 -20    0.42    0.25
  -5   1  20    0.12    0.23
   4  -1 -20    1.20    0.28
  -4   1  20    1.69    0.26
   3  -1 -20    0.26    0.22
  -3   1  20    0.22    0.19
   2  -1 -20    0.08    0.20
  -2   1  20   -0.13    0.16
  -1   1  20    5.86    0.58
   0   1  20    0.15    0.20
   1   1  20    0.70    0.23
  -2  -1 -20    0.36    0.19
   2   1  20    0.17    0.17
  -3  -1 -20   -0.01    0.20
   3   1  20   -0.08    0.22
  -4  -1 -20    0.42    0.26
   4   1  20    0.41    0.26
  -5  -1 -20    0.67    0.26
   5   1  20    0.33    0.27
  -6  -1 -20    0.99    0.31
   6   1  20    0.96    0.32
   7  -2 -20   -0.02    0.32
  -7   2  20    0.62    0.31
   6  -2 -20    0.73    0.29
  -6   2  20    0.89    0.29
   5  -2 -20    0.07    0.24
  -5   2  20   -0.02    0.22
   4  -2 -20    0.16    0.23
  -4   2  20    0.26    0.24
   3  -2 -20    0.16    0.21
  -3   2  20    0.19    0.19
   2  -2 -20    0.00    0.19
  -2   2  20    0.08    0.19
  -1   2  20    2.48    0.33
   0   2  20    0.47    0.22
  -1  -2 -20    0.39    0.19
   1   2  20    0.21    0.21
  -2  -2 -20    0.16    0.20
   2   2  20    0.15    0.22
  -3  -2 -20   -0.15    0.22
   3   2  20    0.07    0.23
  -4  -2 -20   -0.04    0.22
   4   2  20   -0.16    0.24
  -5  -2 -20    0.93    0.29
   5   2  20    1.29    0.31
  -6  -2 -20    0.83    0.32
   6   2  20    0.48    0.31
  -7   3  20    0.02    0.31
   6  -3 -20    0.04    0.26
  -6   3  20   -0.12    0.26
   5  -3 -20    1.66    0.33
  -5   3  20    1.11    0.31
   4  -3 -20    0.05    0.23
  -4   3  20    0.08    0.21
   3  -3 -20   -0.14    0.21
  -3   3  20    0.02    0.19
   2  -3 -20   -0.12    0.20
  -1   3  20    0.17    0.21
   0   3  20    0.58    0.23
  -1  -3 -20    0.76    0.24
   1   3  20    0.57    0.23
  -2  -3 -20   -0.20    0.21
   2   3  20    0.11    0.23
  -3  -3 -20   -0.05    0.21
   3   3  20   -0.19    0.23
  -4  -3 -20    0.21    0.26
   4   3  20   -0.18    0.24
  -5  -3 -20   -0.05    0.29
   5   3  20   -0.22    0.26
  -6  -3 -20    1.46    0.33
   6   3  20    0.49    0.30
  -7   4  20   -0.41    0.37
  -6   4  20    0.49    0.29
   5  -4 -20    0.08    0.25
  -5   4  20    0.48    0.25
   4  -4 -20    0.13    0.27
  -4   4  20    0.06    0.22
   3  -4 -20   -0.04    0.22
  -3   4  20    0.07    0.22
  -1   4  20    0.62    0.23
   0  -4 -20    1.28    0.40
   0   4  20    1.06    0.25
  -1  -4 -20   -0.05    0.19
   1   4  20   -0.04    0.22
  -2  -4 -20    1.31    0.25
   2   4  20    0.87    0.26
  -3  -4 -20    0.38    0.22
   3   4  20    0.33    0.26
  -4  -4 -20    0.31    0.25
   4   4  20    0.15    0.26
  -5  -4 -20    0.59    0.28
   5   4  20    0.64    0.31
  -6  -4 -20    1.49    0.36
  -6   5  20    0.02    0.32
  -5   5  20    0.34    0.25
   4  -5 -20    0.20    0.27
  -4   5  20    0.07    0.22
   3  -5 -20    0.02    0.22
  -3   5  20   -0.13    0.20
  -2   5  20    0.67    0.24
  -1   5  20    5.16    0.53
   0  -5 -20   -0.04    0.20
   0   5  20    0.00    0.22
  -1  -5 -20    0.46    0.22
   1   5  20    0.50    0.28
  -2  -5 -20    0.16    0.25
   2   5  20    0.06    0.23
  -3  -5 -20    0.52    0.24
   3   5  20    0.49    0.26
  -4  -5 -20    0.31    0.25
   4   5  20    0.20    0.27
  -5  -5 -20    1.16    0.32
   5   5  20    0.50    0.35
  -6   6  20    0.12    0.32
  -5   6  20    0.83    0.29
  -4   6  20    0.09    0.27
   3  -6 -20    0.10    0.26
  -3   6  20    0.09    0.25
  -2   6  20   -0.07    0.22
  -1   6  20    1.43    0.28
   0  -6 -20    0.65    0.26
   0   6  20    1.28    0.27
  -1  -6 -20    0.13    0.22
   1   6  20    0.00    0.24
  -2  -6 -20    0.59    0.24
   2   6  20    0.96    0.28
  -3  -6 -20   -0.08    0.23
   3   6  20   -0.02    0.26
  -4  -6 -20    0.38    0.31
   4   6  20    0.33    0.29
  -5  -6 -20   -0.16    0.30
   5   6  20    0.19    0.31
  -6   7  20   -0.12    0.32
  -5   7  20    0.51    0.29
  -4   7  20    0.04    0.25
  -2   7  20    0.18    0.27
   1  -7 -20    0.20    0.24
  -1   7  20    0.26    0.24
   0  -7 -20    2.95    0.36
   0   7  20    2.47    0.36
  -1  -7 -20    0.37    0.28
   1   7  20    0.62    0.26
  -2  -7 -20   -0.01    0.25
   2   7  20    0.46    0.27
  -3  -7 -20    0.95    0.33
   3   7  20    1.23    0.31
  -4  -7 -20    0.40    0.30
   4   7  20    0.21    0.30
   5   7  20    1.08    0.40
  -5   8  20    0.93    0.34
  -4   8  20    0.13    0.32
   1  -8 -20    1.19    0.30
   0  -8 -20    0.02    0.24
   0   8  20   -0.09    0.27
  -1  -8 -20    0.13    0.26
   1   8  20   -0.01    0.29
  -2  -8 -20    0.07    0.30
   2   8  20   -0.11    0.31
  -3  -8 -20    0.48    0.33
   3   8  20    0.19    0.29
  -4  -8 -20    0.22    0.32
   4   8  20    0.25    0.32
  -5   9  20    1.11    0.38
   1  -9 -20    0.56    0.28
   0  -9 -20    0.28    0.27
  -1  -9 -20    0.41    0.33
   1   9  20    0.74    0.30
  -2  -9 -20    0.52    0.30
   2   9  20    0.20    0.29
  -3  -9 -20   -0.31    0.35
   3   9  20    0.06    0.31
   4   9  20   -0.06    0.34
   1 -10 -20    0.02    0.27
   0 -10 -20   -0.24    0.29
  -1 -10 -20    0.22    0.31
  -2 -10 -20    0.69    0.35
   2  10  20    0.57    0.39
   3  10  20   -0.22    0.33
   2 -11 -20    0.05    0.38
   1 -11 -20    0.30    0.37
   0 -11 -20    0.06    0.33
  -1 -11 -20    0.01    0.33
   2  11 -21   -0.07    0.36
   1  11 -21    0.09    0.35
  -1 -11  21   -0.37    0.40
   0 -11  21   -0.06    0.35
   3  10 -21    0.01    0.35
   2  10 -21    0.37    0.34
  -2 -10  21    0.39    0.34
   1  10 -21    0.10    0.32
  -1 -10  21    0.12    0.33
   0  10 -21    0.25    0.32
   0 -10  21    0.40    0.33
   3   9 -21    0.34    0.34
  -3  -9  21    0.17    0.32
   2   9 -21    1.06    0.35
  -2  -9  21    1.17    0.37
   1   9 -21    0.52    0.31
  -1  -9  21    0.45    0.35
   0   9 -21    0.19    0.30
   0  -9  21    0.08    0.29
  -1   9 -21    0.16    0.29
  -2   9 -21   -0.11    0.36
   4   8 -21   -0.06    0.32
  -4  -8  21    0.33    0.31
   3   8 -21   -0.18    0.30
  -3  -8  21    0.30    0.29
   2   8 -21   -0.09    0.28
  -2  -8  21    0.06    0.32
   1   8 -21    0.18    0.28
  -1  -8  21    0.10    0.27
   0   8 -21    0.47    0.29
   0  -8  21    0.36    0.31
  -1   8 -21    0.56    0.34
  -2   8 -21   -0.01    0.29
  -5  -7  21    0.14    0.32
   4   7 -21   -0.02    0.30
  -4  -7  21   -0.34    0.28
   3   7 -21    0.46    0.29
  -3  -7  21    0.28    0.27
   2   7 -21    0.58    0.28
  -2  -7  21    0.62    0.28
   1   7 -21    0.25    0.28
  -1  -7  21    0.01    0.24
   0   7 -21    0.10    0.26
   0  -7  21   -0.03    0.25
  -1   7 -21    1.51    0.32
  -2   7 -21    0.11    0.28
   3  -7  21   -0.08    0.29
   4  -7  21    1.31    0.35
   5   6 -21    0.00    0.31
  -5  -6  21    0.08    0.29
   4   6 -21    0.95    0.30
  -4  -6  21    0.49    0.27
   3   6 -21    0.09    0.26
  -3  -6  21    0.28    0.26
   2   6 -21    1.41    0.32
  -2  -6  21    1.23    0.29
   1   6 -21    0.05    0.26
  -1  -6  21    0.07    0.24
   0   6 -21    1.70    0.32
  -1   6 -21   -0.02    0.25
   2  -6  21    0.60    0.27
   3  -6  21    0.15    0.27
   4  -6  21    0.62    0.31
  -5   6 -21    0.45    0.50
   5  -6  21    0.06    0.34
   5   5 -21    0.17    0.30
  -5  -5  21    0.09    0.28
   4   5 -21    0.29    0.27
  -4  -5  21    0.12    0.26
   3   5 -21    0.47    0.27
  -3  -5  21    0.21    0.24
   2   5 -21    0.04    0.25
  -2  -5  21    0.25    0.22
   1   5 -21    0.40    0.26
  -1  -5  21    0.33    0.23
   0   5 -21    1.10    0.28
   1  -5  21    2.18    0.35
   2  -5  21    0.27    0.26
   3  -5  21    0.07    0.27
   4  -5  21    0.60    0.31
  -5   5 -21    0.43    0.30
   5  -5  21    1.11    0.39
   6   4 -21   -0.20    0.32
  -6  -4  21   -0.37    0.29
   5   4 -21    0.38    0.29
  -5  -4  21    0.12    0.25
   4   4 -21    0.46    0.28
  -4  -4  21    0.12    0.24
   3   4 -21    2.12    0.33
  -3  -4  21    1.63    0.30
   2   4 -21    0.15    0.23
  -2  -4  21   -0.02    0.21
   1   4 -21    0.16    0.24
  -1  -4  21    0.36    0.22
   0   4 -21    0.94    0.26
   1  -4  21    3.75    0.45
   2  -4  21   -0.09    0.25
   3  -4  21    0.27    0.27
  -4   4 -21    0.29    0.29
   4  -4  21    0.27    0.32
  -5   4 -21    0.20    0.29
   5  -4  21    0.18    0.32
  -6   4 -21    0.22    0.34
   6  -4  21   -0.30    0.35
   6   3 -21    0.49    0.31
  -6  -3  21   -0.26    0.28
   5   3 -21    0.09    0.28
  -5  -3  21    0.42    0.27
   4   3 -21    0.33    0.26
  -4  -3  21    0.07    0.23
   3   3 -21    0.55    0.25
  -3  -3  21    0.53    0.23
   2   3 -21    2.68    0.36
  -2  -3  21    2.44    0.33
   1   3 -21   -0.15    0.20
  -1  -3  21   -0.01    0.20
   0  -3  21    2.31    0.35
   1  -3  21    0.50    0.24
   2  -3  21    1.38    0.30
   3  -3  21    0.64    0.29
  -4   3 -21    0.53    0.24
   4  -3  21    0.91    0.31
  -5   3 -21   -0.07    0.27
   5  -3  21    0.14    0.30
  -6   3 -21   -0.03    0.32
   6  -3  21    0.31    0.38
   6   2 -21    0.24    0.31
  -6  -2  21    0.11    0.28
   5   2 -21    0.23    0.26
  -5  -2  21    0.15    0.24
   4   2 -21    0.06    0.25
  -4  -2  21    0.04    0.23
   3   2 -21    0.54    0.25
  -3  -2  21    0.26    0.22
   2   2 -21    0.40    0.24
  -2  -2  21    0.50    0.21
   1   2 -21   -0.04    0.20
   0  -2  21    1.04    0.26
   1  -2  21   -0.05    0.23
   2  -2  21    0.04    0.25
   3  -2  21    0.15    0.25
  -4   2 -21    0.16    0.23
   4  -2  21    0.00    0.27
  -5   2 -21    0.34    0.27
   5  -2  21    0.31    0.30
  -6   2 -21    0.06    0.35
   6  -2  21    0.21    0.33
   7   1 -21    0.19    0.43
   6   1 -21    0.31    0.31
  -6  -1  21    0.07    0.28
   5   1 -21   -0.04    0.26
  -5  -1  21   -0.18    0.24
   4   1 -21    0.14    0.25
  -4  -1  21    0.04    0.23
   3   1 -21    0.49    0.25
  -3  -1  21    0.39    0.22
   2   1 -21    0.37    0.24
  -2  -1  21    0.19    0.20
   1   1 -21    0.57    0.25
   0  -1  21   -0.08    0.22
   1  -1  21    4.84    0.52
   2  -1  21   -0.06    0.25
  -3   1 -21    0.28    0.24
   3  -1  21    0.31    0.26
  -4   1 -21   -0.06    0.23
   4  -1  21    0.43    0.27
  -5   1 -21    0.79    0.32
   5  -1  21    0.38    0.30
  -6   1 -21    0.31    0.31
   6  -1  21   -0.35    0.37
   7   0 -21   -0.20    0.34
   6   0 -21    1.00    0.33
  -6   0  21    1.44    0.32
   5   0 -21    0.45    0.27
  -5   0  21   -0.07    0.24
   4   0 -21    1.30    0.29
  -4   0  21    1.21    0.29
   3   0 -21   -0.01    0.23
  -3   0  21    0.19    0.21
   2   0 -21    0.45    0.24
  -2   0  21    0.70    0.24
  -1   0  21    0.04    0.23
   0   0  21    4.93    0.52
   1   0  21    0.25    0.23
   2   0  21    0.02    0.24
  -3   0 -21    0.21    0.22
   3   0  21    0.15    0.27
  -4   0 -21    3.33    0.39
   4   0  21    2.80    0.42
  -5   0 -21    0.13    0.30
   5   0  21    0.45    0.32
  -6   0 -21   -0.34    0.29
   6   0  21    0.01    0.36
   7  -1 -21   -0.03    0.33
   6  -1 -21    1.34    0.33
  -6   1  21    0.86    0.31
   5  -1 -21   -0.06    0.26
  -5   1  21    0.12    0.27
   4  -1 -21    0.17    0.25
  -4   1  21    0.00    0.22
   3  -1 -21   -0.01    0.23
  -3   1  21   -0.01    0.20
   2  -1 -21    2.00    0.31
  -2   1  21    1.95    0.29
  -1   1  21    0.11    0.23
   0   1  21    0.42    0.24
   1   1  21    0.54    0.24
  -2  -1 -21    0.08    0.23
   2   1  21    0.06    0.26
  -3  -1 -21    0.50    0.23
   3   1  21    0.16    0.26
  -4  -1 -21    0.34    0.25
   4   1  21    0.18    0.27
  -5  -1 -21    0.23    0.28
   5   1  21    0.58    0.32
  -6  -1 -21    0.17    0.32
   7  -2 -21    0.14    0.34
   6  -2 -21    0.31    0.34
  -6   2  21   -0.23    0.27
   5  -2 -21   -0.07    0.29
  -5   2  21    0.33    0.24
   4  -2 -21    0.20    0.25
  -4   2  21    0.14    0.25
   3  -2 -21    0.04    0.23
  -3   2  21    0.03    0.19
   2  -2 -21    0.13    0.23
  -1   2  21    0.59    0.24
   0   2  21    0.08    0.23
   1   2  21    0.76    0.25
  -2  -2 -21    0.02    0.20
   2   2  21   -0.13    0.25
  -3  -2 -21    0.35    0.23
   3   2  21    0.64    0.29
  -4  -2 -21    0.28    0.26
   4   2  21    0.33    0.28
  -5  -2 -21   -0.03    0.27
   5   2  21    0.12    0.30
  -6  -2 -21    0.13    0.36
   6  -3 -21    0.59    0.31
  -6   3  21    1.06    0.33
   5  -3 -21   -0.01    0.30
  -5   3  21    0.20    0.29
   4  -3 -21   -0.13    0.25
  -4   3  21    0.06    0.22
   3  -3 -21    0.00    0.23
  -3   3  21   -0.05    0.22
   2  -3 -21    0.88    0.26
  -1   3  21    0.85    0.26
   0   3  21   -0.02    0.22
   1   3  21    0.84    0.27
  -2  -3 -21    0.24    0.25
   2   3  21    0.93    0.32
  -3  -3 -21   -0.05    0.23
   3   3  21   -0.16    0.25
  -4  -3 -21    0.68    0.27
   4   3  21    1.15    0.31
  -5  -3 -21   -0.08    0.28
   5   3  21   -0.01    0.29
  -6   4  21    0.32    0.31
   5  -4 -21   -0.11    0.30
  -5   4  21    0.01    0.26
   4  -4 -21    0.24    0.26
  -4   4  21    0.16    0.23
   3  -4 -21    0.13    0.27
  -3   4  21    0.11    0.21
   2  -4 -21    0.22    0.23
  -1   4  21    0.16    0.24
   0   4  21    1.28    0.28
  -1  -4 -21    0.58    0.23
   1   4  21    1.07    0.28
  -2  -4 -21    0.07    0.24
   2   4  21    0.02    0.25
  -3  -4 -21    0.04    0.24
   3   4  21    0.18    0.28
  -4  -4 -21    0.36    0.31
   4   4  21    0.61    0.30
  -5  -4 -21   -0.15    0.29
   5   4  21   -0.03    0.31
  -6   5  21    0.20    0.32
  -5   5  21    0.07    0.31
   4  -5 -21    0.36    0.27
  -4   5  21   -0.05    0.27
   3  -5 -21    0.63    0.27
   2  -5 -21   -0.02    0.24
  -1   5  21    0.29    0.24
   0   5  21    0.05    0.25
  -1  -5 -21    4.21    0.49
   1   5  21    5.44    0.53
  -2  -5 -21    0.19    0.24
   2   5  21    0.06    0.26
  -3  -5 -21    0.40    0.26
   3   5  21    0.80    0.34
  -4  -5 -21   -0.03    0.27
   4   5  21    0.20    0.30
  -5  -5 -21    0.30    0.31
  -6   6  21    0.31    0.34
  -5   6  21   -0.06    0.33
  -4   6  21    0.56    0.26
   3  -6 -21    0.14    0.29
  -2   6  21    1.60    0.32
  -1   6  21    0.20    0.25
   0  -6 -21    1.35    0.28
   0   6  21    0.68    0.27
  -1  -6 -21    0.11    0.28
   1   6  21    0.10    0.26
  -2  -6 -21    0.54    0.30
   2   6  21    0.52    0.28
  -3  -6 -21    0.05    0.31
   3   6  21   -0.21    0.29
  -4  -6 -21    0.01    0.30
   4   6  21    0.28    0.32
  -5   7  21   -0.16    0.31
  -4   7  21    0.22    0.28
  -1   7  21   -0.07    0.29
   0  -7 -21    1.12    0.28
   0   7  21    1.02    0.33
  -1  -7 -21    0.51    0.27
   1   7  21    0.80    0.30
  -2  -7 -21    0.99    0.33
   2   7  21    0.62    0.30
  -3  -7 -21    0.06    0.28
   3   7  21   -0.15    0.31
  -4  -7 -21    0.02    0.32
   4   7  21    0.05    0.32
  -5   8  21    0.82    0.40
   0  -8 -21    0.03    0.26
   0   8  21    0.45    0.29
  -1  -8 -21    1.36    0.37
   1   8  21    1.95    0.36
  -2  -8 -21    0.39    0.31
   2   8  21    0.18    0.33
  -3  -8 -21    0.01    0.32
   3   8  21   -0.06    0.38
   0  -9 -21    0.27    0.29
  -1  -9 -21    0.49    0.32
   1   9  21    0.10    0.32
  -2  -9 -21    0.50    0.34
   2   9  21    0.06    0.36
   3   9  21    0.14    0.34
   1 -10 -21    0.03    0.32
   0 -10 -21    0.02    0.33
  -1 -10 -21    0.38    0.35
   1  10 -22   -0.05    0.35
  -1 -10  22   -0.37    0.35
   0  10 -22   -0.18    0.40
   0 -10  22    0.23    0.36
   2   9 -22    0.00    0.34
  -2  -9  22   -0.35    0.32
   1   9 -22    0.46    0.35
  -1  -9  22    0.57    0.37
   0   9 -22    0.36    0.34
  -1   9 -22   -0.04    0.38
  -2   9 -22    0.54    0.38
   3   8 -22    0.53    0.35
  -3  -8  22    0.79    0.35
   2   8 -22    0.20    0.33
  -2  -8  22    0.41    0.31
   1   8 -22    2.11    0.39
  -1  -8  22    1.62    0.36
   0   8 -22    0.05    0.31
  -1   8 -22    0.53    0.32
  -2   8 -22    0.18    0.32
  -3   8 -22   -0.46    0.40
  -4  -7  22    0.64    0.33
   3   7 -22    0.47    0.37
  -3  -7  22    0.13    0.30
   2   7 -22    0.17    0.31
  -2  -7  22    0.12    0.29
   1   7 -22    1.03    0.32
  -1  -7  22    0.28    0.28
   0   7 -22    0.43    0.30
  -1   7 -22    0.09    0.30
  -2   7 -22    0.70    0.33
   3  -7  22    0.08    0.37
   4  -7  22   -0.13    0.39
   4   6 -22    0.40    0.32
  -4  -6  22    0.58    0.31
   3   6 -22    0.52    0.31
  -3  -6  22    0.56    0.29
   2   6 -22    1.43    0.33
  -2  -6  22    1.34    0.31
   1   6 -22    0.34    0.29
  -1  -6  22    0.03    0.29
   0   6 -22    0.42    0.33
  -1   6 -22    0.10    0.27
   2  -6  22    0.83    0.31
   3  -6  22    0.43    0.32
   4  -6  22   -0.08    0.34
  -5  -5  22    0.39    0.31
   4   5 -22    0.26    0.30
  -4  -5  22    0.14    0.29
   3   5 -22    0.28    0.29
  -3  -5  22   -0.02    0.29
   2   5 -22    0.15    0.28
  -2  -5  22   -0.01    0.28
   1   5 -22    1.47    0.34
  -1  -5  22    1.70    0.30
   0   5 -22   -0.18    0.25
  -1   5 -22    0.34    0.28
   2  -5  22    0.09    0.28
   3  -5  22    0.59    0.35
   4  -5  22    0.40    0.34
   5  -5  22    0.18    0.37
   5   4 -22    0.18    0.31
  -5  -4  22    0.45    0.30
   4   4 -22    0.00    0.29
  -4  -4  22    0.29    0.27
   3   4 -22   -0.29    0.25
  -3  -4  22    0.07    0.25
   2   4 -22    0.51    0.27
  -2  -4  22    0.48    0.25
   1   4 -22    1.64    0.33
   0   4 -22    0.58    0.27
   1  -4  22   -0.08    0.26
   2  -4  22    2.30    0.37
   3  -4  22    0.44    0.34
   4  -4  22   -0.10    0.31
  -5   4 -22   -0.24    0.36
   5  -4  22    0.28    0.34
   5   3 -22    0.03    0.30
  -5  -3  22    0.08    0.29
   4   3 -22    0.78    0.31
  -4  -3  22    0.89    0.27
   3   3 -22    0.47    0.29
  -3  -3  22    0.77    0.29
   2   3 -22    1.58    0.30
  -2  -3  22    0.61    0.28
   1   3 -22    0.07    0.24
   0   3 -22    2.47    0.37
   1  -3  22    0.13    0.26
   2  -3  22    1.23    0.32
   3  -3  22   -0.14    0.29
   4  -3  22    0.77    0.33
  -5   3 -22    0.21    0.34
   5  -3  22    0.19    0.35
  -6  -2  22   -0.27    0.35
   5   2 -22    0.81    0.32
  -5  -2  22    0.96    0.30
   4   2 -22   -0.06    0.27
  -4  -2  22    0.08    0.26
   3   2 -22   -0.04    0.25
  -3  -2  22    0.33    0.24
   2   2 -22    0.26    0.26
  -2  -2  22   -0.08    0.21
   1   2 -22    1.00    0.28
   0  -2  22    0.14    0.25
   1  -2  22    0.17    0.24
   2  -2  22   -0.14    0.26
   3  -2  22    1.22    0.33
  -4   2 -22    0.07    0.26
   4  -2  22    0.14    0.31
  -5   2 -22    0.35    0.30
   5  -2  22    0.21    0.34
   6   1 -22    0.73    0.33
  -6  -1  22    0.46    0.32
   5   1 -22    0.52    0.30
  -5  -1  22    0.45    0.29
   4   1 -22    0.59    0.28
  -4  -1  22    0.42    0.25
   3   1 -22   -0.21    0.26
  -3  -1  22   -0.10    0.22
   2   1 -22    0.10    0.25
  -2  -1  22   -0.03    0.21
   1   1 -22    1.59    0.30
   0  -1  22    0.36    0.25
   1  -1  22   -0.06    0.24
   2  -1  22    2.21    0.37
   3  -1  22    1.98    0.37
  -4   1 -22    0.23    0.26
   4  -1  22    0.31    0.32
  -5   1 -22    0.43    0.34
   5  -1  22    0.17    0.32
   6   0 -22    0.53    0.33
  -6   0  22   -0.17    0.30
   5   0 -22    0.00    0.29
  -5   0  22    0.37    0.27
   4   0 -22    0.68    0.30
  -4   0  22    0.76    0.26
   3   0 -22   -0.08    0.25
  -3   0  22    0.11    0.25
   2   0 -22    0.25    0.24
   1   0 -22    0.29    0.25
   0   0  22    1.22    0.29
   1   0  22   -0.03    0.24
   2   0  22    4.22    0.49
  -3   0 -22   -0.06    0.26
   3   0  22    0.02    0.28
  -4   0 -22    0.18    0.30
   4   0  22    0.12    0.29
  -5   0 -22    0.27    0.31
   5   0  22   -0.28    0.32
   6  -1 -22   -0.24    0.32
  -6   1  22   -0.08    0.30
   5  -1 -22    0.06    0.29
  -5   1  22   -0.15    0.26
   4  -1 -22    1.20    0.31
  -4   1  22    0.42    0.26
   3  -1 -22    0.47    0.27
  -3   1  22    0.28    0.22
   2  -1 -22   -0.08    0.25
  -1   1  22    0.37    0.26
   0   1  22    0.55    0.27
   1   1  22    0.63    0.27
   2   1  22    0.04    0.25
  -3  -1 -22    1.25    0.28
   3   1  22    1.39    0.34
  -4  -1 -22   -0.30    0.29
   4   1  22    0.01    0.29
  -5  -1 -22    0.24    0.31
   5   1  22    0.05    0.36
   6  -2 -22    0.27    0.33
  -6   2  22    0.15    0.31
   5  -2 -22    0.11    0.29
  -5   2  22    0.10    0.27
   4  -2 -22    0.26    0.29
  -4   2  22    0.15    0.27
   3  -2 -22    0.95    0.29
  -3   2  22    1.51    0.30
   2  -2 -22    0.35    0.25
  -1   2  22    0.85    0.28
   0   2  22    0.11    0.24
   1   2  22    0.15    0.25
   2   2  22    1.39    0.35
  -3  -2 -22    0.15    0.24
   3   2  22    0.23    0.28
  -4  -2 -22   -0.11    0.30
   4   2  22    0.01    0.32
  -5  -2 -22    0.04    0.35
   6  -3 -22    0.11    0.37
  -6   3  22    0.03    0.32
   5  -3 -22    0.08    0.34
  -5   3  22    0.03    0.31
   4  -3 -22    2.00    0.35
  -4   3  22    1.94    0.35
   3  -3 -22    0.25    0.27
   2  -3 -22    0.38    0.25
  -1   3  22    1.31    0.30
   0   3  22   -0.11    0.25
   1   3  22    0.30    0.27
  -2  -3 -22    1.65    0.29
   2   3  22    1.62    0.34
  -3  -3 -22    0.06    0.25
   3   3  22   -0.03    0.28
  -4  -3 -22    0.16    0.28
   4   3  22   -0.28    0.36
  -5  -3 -22    0.25    0.32
  -6   4  22   -0.04    0.38
   5  -4 -22    0.18    0.30
  -5   4  22    0.24    0.29
   4  -4 -22    0.28    0.33
  -4   4  22    0.01    0.25
   3  -4 -22    0.52    0.32
   2  -4 -22    1.29    0.31
  -1   4  22   -0.04    0.26
   0   4  22    0.05    0.26
   1   4  22    0.20    0.28
  -2  -4 -22    0.89    0.27
   2   4  22    0.84    0.32
  -3  -4 -22    0.16    0.27
   3   4  22    0.31    0.29
  -4  -4 -22    0.06    0.29
   4   4  22   -0.14    0.37
  -5   5  22   -0.14    0.31
   4  -5 -22   -0.25    0.29
  -4   5  22    0.13    0.31
   3  -5 -22    0.14    0.32
   2  -5 -22    0.41    0.27
  -1   5  22    1.17    0.30
   0   5  22    0.01    0.27
  -1  -5 -22    0.28    0.31
   1   5  22    0.24    0.27
  -2  -5 -22    0.15    0.26
   2   5  22   -0.20    0.29
  -3  -5 -22    0.30    0.28
   3   5  22   -0.14    0.34
  -4  -5 -22    0.00    0.31
   4   5  22    0.13    0.34
  -5   6  22    0.04    0.32
   3  -6 -22    0.37    0.29
   2  -6 -22    0.05    0.28
  -1   6  22    0.45    0.29
   0   6  22    0.41    0.28
  -1  -6 -22   -0.02    0.30
   1   6  22    0.28    0.29
  -2  -6 -22    1.06    0.30
   2   6  22    0.44    0.31
  -3  -6 -22   -0.04    0.34
   3   6  22   -0.12    0.32
  -4  -6 -22   -0.11    0.33
   2  -7 -22    0.88    0.57
  -1   7  22    0.06    0.29
   0   7  22   -0.02    0.34
  -1  -7 -22   -0.04    0.28
   1   7  22    0.12    0.30
  -2  -7 -22    0.42    0.31
   2   7  22    0.38    0.32
  -3  -7 -22    0.47    0.33
   3   7  22    0.10    0.35
   0   8  22    0.05    0.31
  -1  -8 -22    0.09    0.32
   1   8  22    0.27    0.32
  -2  -8 -22    0.36    0.34
   2   8  22    0.16    0.39
   0  -9 -22    0.95    0.35
  -1  -9 -22    0.08    0.34
   1   9  22   -0.14    0.41
   2   9  22    0.09    0.41
   0   9 -23    1.22    0.45
  -2  -8  23    0.65    0.39
   1   8 -23   -0.15    0.35
  -1  -8  23   -0.02    0.38
   0   8 -23    0.42    0.37
  -1   8 -23    0.22    0.36
  -2   8 -23   -0.22    0.36
  -3  -7  23    0.11    0.33
   2   7 -23   -0.12    0.33
  -2  -7  23    0.40    0.36
   1   7 -23    0.31    0.34
   0   7 -23    0.73    0.35
  -1   7 -23    0.28    0.39
  -2   7 -23   -0.04    0.33
   3  -7  23   -0.03    0.41
  -4  -6  23    0.23    0.32
   3   6 -23   -0.23    0.37
  -3  -6  23    0.00    0.31
   2   6 -23    0.19    0.34
  -2  -6  23    0.10    0.29
   1   6 -23   -0.15    0.31
   0   6 -23    0.59    0.33
  -1   6 -23    1.08    0.35
   3  -6  23   -0.38    0.34
  -4  -5  23    0.17    0.30
   3   5 -23    0.43    0.33
  -3  -5  23    1.01    0.32
   2   5 -23    0.12    0.32
  -2  -5  23   -0.45    0.30
   1   5 -23    0.29    0.31
   0   5 -23    0.35    0.31
  -1   5 -23    0.49    0.36
   2  -5  23    0.26    0.36
   3  -5  23    0.78    0.36
   4  -5  23    0.06    0.41
   4   4 -23    0.03    0.32
  -4  -4  23    0.19    0.30
   3   4 -23    0.99    0.35
  -3  -4  23    0.78    0.34
   2   4 -23    0.13    0.30
  -2  -4  23    0.00    0.30
   1   4 -23    0.06    0.29
   0   4 -23    0.95    0.31
   1  -4  23    0.00    0.30
   2  -4  23    0.34    0.31
   3  -4  23    0.09    0.32
   4  -4  23    1.05    0.39
  -5  -3  23   -0.09    0.30
   4   3 -23    1.27    0.34
  -4  -3  23    0.79    0.31
   3   3 -23   -0.03    0.28
  -3  -3  23    0.23    0.26
   2   3 -23    0.84    0.31
  -2  -3  23    0.35    0.41
   1   3 -23    0.09    0.28
   0   3 -23    0.46    0.30
   1  -3  23    1.18    0.33
   2  -3  23    0.96    0.32
   3  -3  23    0.04    0.33
   4  -3  23    0.80    0.35
   5   2 -23    0.48    0.37
  -5  -2  23    0.24    0.31
   4   2 -23   -0.05    0.29
  -4  -2  23    0.08    0.27
   3   2 -23    1.38    0.32
  -3  -2  23    0.78    0.28
   2   2 -23   -0.15    0.27
   1   2 -23    0.03    0.27
   0  -2  23   -0.03    0.28
   1  -2  23    0.45    0.30
   2  -2  23    0.22    0.28
   3  -2  23   -0.19    0.31
   4  -2  23    0.04    0.32
   5   1 -23    0.03    0.31
  -5  -1  23    0.19    0.31
   4   1 -23    0.07    0.31
  -4  -1  23   -0.01    0.27
   3   1 -23    0.55    0.30
  -3  -1  23    0.70    0.30
   2   1 -23    1.15    0.32
   1   1 -23   -0.09    0.27
   0  -1  23    0.58    0.29
   1  -1  23    0.08    0.27
   2  -1  23    0.53    0.32
   3  -1  23    0.10    0.31
   4  -1  23    0.59    0.35
  -5   1 -23    0.42    0.33
   5   0 -23   -0.17    0.32
  -5   0  23    0.03    0.29
   4   0 -23    0.71    0.36
  -4   0  23    0.71    0.33
   3   0 -23    0.23    0.29
  -3   0  23    0.15    0.25
   2   0 -23    1.55    0.33
   1   0 -23   -0.01    0.26
   0   0  23    1.77    0.33
   1   0  23    0.26    0.29
   2   0  23    0.23    0.33
   3   0  23   -0.17    0.30
  -4   0 -23    0.90    0.31
   4   0  23    1.04    0.37
  -5   0 -23    0.15    0.39
   5  -1 -23   -0.15    0.33
  -5   1  23    0.75    0.32
   4  -1 -23    0.01    0.34
  -4   1  23    0.34    0.30
   3  -1 -23    0.55    0.30
   2  -1 -23    0.07    0.31
   1  -1 -23    0.07    0.27
   0   1  23   -0.06    0.27
   1   1  23    0.79    0.31
   2   1  23    0.06    0.29
   3   1  23    0.70    0.33
  -4  -1 -23   -0.23    0.29
   4   1  23    0.04    0.32
   5  -2 -23    0.72    0.35
  -5   2  23    0.08    0.31
   4  -2 -23    0.14    0.31
  -4   2  23    0.19    0.30
   3  -2 -23    1.27    0.33
   2  -2 -23    0.95    0.30
  -1   2  23   -0.11    0.27
   0   2  23    0.03    0.28
   1   2  23    0.54    0.34
   2   2  23   -0.09    0.30
  -3  -2 -23    0.36    0.28
   3   2  23    0.21    0.33
  -4  -2 -23    0.28    0.35
   5  -3 -23    0.05    0.33
  -5   3  23    0.49    0.36
   4  -3 -23   -0.02    0.35
  -4   3  23    0.23    0.28
   3  -3 -23   -0.34    0.29
   2  -3 -23    0.66    0.33
  -1   3  23    0.63    0.30
   0   3  23    0.43    0.30
   1   3  23    0.09    0.29
   2   3  23    0.21    0.31
  -3  -3 -23    0.31    0.29
   3   3  23    0.06    0.34
  -4  -3 -23    0.32    0.32
   5  -4 -23   -0.01    0.34
  -5   4  23    0.10    0.31
   4  -4 -23    0.14    0.31
   3  -4 -23    0.54    0.31
   2  -4 -23    0.36    0.29
  -1   4  23    0.16    0.29
   0   4  23    0.38    0.30
   1   4  23    0.02    0.29
   2   4  23    0.15    0.32
  -3  -4 -23    0.02    0.33
   3   4  23    0.02    0.34
  -4  -4 -23    0.39    0.34
   4  -5 -23   -0.22    0.36
   3  -5 -23    0.47    0.32
   2  -5 -23    0.21    0.29
  -1   5  23    0.22    0.30
   0   5  23   -0.07    0.34
   1   5  23    0.20    0.31
  -2  -5 -23   -0.01    0.33
   2   5  23   -0.17    0.33
  -3  -5 -23    0.70    0.33
   3   5  23    0.55    0.45
   2  -6 -23   -0.08    0.31
  -1   6  23    0.31    0.30
   0   6  23    0.38    0.37
   1   6  23    0.20    0.37
  -2  -6 -23    0.11    0.32
   2   6  23    0.36    0.36
  -3  -6 -23   -0.21    0.33
  -1   7  23    0.31    0.37
   0   7  23    1.07    0.40
   1   7  23   -0.24    0.34
  -2  -7 -23   -0.11    0.33
   2   7  23   -0.23    0.37
   0   8  23    0.09    0.35
  -1  -8 -23    0.18    0.40
   1   8  23   -0.02    0.35
  -2  -6  24    0.12    0.33
   1   6 -24    0.08    0.41
   0   6 -24    0.32    0.36
  -1   6 -24    0.39    0.37
  -3  -5  24   -0.06    0.32
   2   5 -24   -0.08    0.38
   1   5 -24    0.77    0.35
   0   5 -24    0.71    0.35
  -1   5 -24    0.11    0.34
   2  -5  24    0.07    0.35
  -4  -4  24   -0.10    0.32
  -3  -4  24    0.23    0.31
   2   4 -24    0.87    0.36
   1   4 -24    0.37    0.33
   0   4 -24    0.71    0.33
  -1   4 -24   -0.20    0.34
   2  -4  24    0.42    0.34
  -4  -3  24    0.82    0.34
   3   3 -24    0.04    0.32
  -3  -3  24    0.07    0.29
   2   3 -24    0.43    0.33
   1   3 -24    0.33    0.32
   0   3 -24    0.24    0.31
   1  -3  24    0.15    0.32
   2  -3  24    0.53    0.34
  -4  -2  24   -0.35    0.31
   3   2 -24   -0.19    0.30
  -3  -2  24   -0.02    0.28
   2   2 -24    0.02    0.32
   1   2 -24    0.87    0.34
   0   2 -24    0.21    0.32
   1  -2  24   -0.06    0.31
   2  -2  24    0.07    0.31
   3  -2  24    1.05    0.43
   4   1 -24    0.57    0.39
  -4  -1  24    0.42    0.32
   3   1 -24   -0.07    0.31
   2   1 -24    1.71    0.38
   1   1 -24    0.24    0.31
   0  -1  24    0.35    0.32
   1  -1  24    0.13    0.32
   2  -1  24    0.31    0.33
   4   0 -24    0.44    0.35
  -4   0  24    0.68    0.32
   3   0 -24   -0.04    0.32
   2   0 -24    1.99    0.38
   1   0 -24    0.55    0.31
   0   0  24    0.23    0.30
   1   0  24   -0.16    0.31
   2   0  24    0.61    0.34
   4  -1 -24    0.16    0.35
  -4   1  24    0.13    0.29
   3  -1 -24    0.06    0.33
   2  -1 -24    0.33    0.31
   1  -1 -24    1.30    0.35
   0   1  24   -0.01    0.31
   1   1  24    0.33    0.32
   2   1  24    0.33    0.35
   4  -2 -24    0.03    0.33
   3  -2 -24    0.18    0.34
   2  -2 -24    0.77    0.33
   0   2  24    1.11    0.35
   1   2  24   -0.30    0.36
   2   2  24    0.64    0.35
   4  -3 -24    0.73    0.36
   3  -3 -24   -0.23    0.38
   2  -3 -24    0.45    0.32
  -1   3  24    0.66    0.34
   0   3  24    1.02    0.36
   1   3  24   -0.12    0.31
   2   3  24    0.14    0.35
   4  -4 -24   -0.14    0.34
   3  -4 -24    0.16    0.35
   2  -4 -24    0.43    0.33
  -1   4  24    0.74    0.35
   0   4  24    0.63    0.36
   1   4  24    0.15    0.39
   2   4  24   -0.13    0.39
  -3  -4 -24   -0.12    0.39
   3  -5 -24   -0.07    0.40
   2  -5 -24    0.28    0.33
  -1   5  24    0.11    0.34
   0   5  24    0.21    0.39
   1   5  24    0.53    0.37
   2  -6 -24    0.50    0.36
  -1   6  24   -0.34    0.35
   0   6  24    0.74    0.42
   1   6  24    0.21    0.38
   1   1 -25    0.36    0.40
   0   1 -25    1.73    0.44
   2   0 -25    0.76    0.41
   1   0 -25   -0.02    0.33
   0   0  25    0.54    0.36
   2  -1 -25    0.25    0.39
   1  -1 -25    0.23    0.33
   0   1  25    0.17    0.34
   2  -2 -25    0.60    0.36
   1  -2 -25    0.43    0.35
   0   2  25    1.12    0.38
   2  -3 -25    0.37    0.37
   1  -3 -25   -0.02    0.35
   0   3  25    1.97    0.47
   2  -4 -25    0.00    0.39
  -1   4  25   -0.07    0.47
   0   0   0    0.00    0.00
;
_shelx_hkl_checksum              95542
_shelx_res_file
;
    JTM708_0m.res created by SHELXL-2014/7
TITL JTM708_0m_a.res in P-1
REM Old TITL JTM708_0m in P-1
REM SHELXT solution in P-1
REM R1 0.171,  Rweak 0.008,  Alpha 0.041,  Orientation as input
REM Formula found by SHELXT:  C57 N3 O4 S2
CELL  0.71073   8.7383  14.1443  19.2405   90.732   92.181   91.394
ZERR    4.000   0.0006   0.0009   0.0013    0.001    0.001    0.001
LATT  1
SFAC C H N O S
UNIT 116 96 8 4 4
TEMP 25
SIZE 0.14 0.17 0.26
L.S. 5
BOND $H
LIST 4
FMAP 2
PLAN 5
CONF
OMIT 0 -1 2
EADP C5A C5B
EADP C6A C6B
EADP C7A C7B
EADP C8A C8B
EADP C9A C9B
EADP C10A C10B
ACTA 55
EQIV $1 -x, -y+1, -z+1
HTAB C11 S2_$1
WGHT    0.066700
FVAR       0.15916   0.71334
S1    5    0.100048    0.343379    0.198310    11.00000    0.06500    0.05171 =
         0.05442    0.00388    0.00486    0.00221
O1    4   -0.075641    0.423279    0.433218    11.00000    0.08813    0.06827 =
         0.07611   -0.01586    0.01845    0.02652
N1    3    0.149324    0.275527    0.327834    11.00000    0.05536    0.04583 =
         0.04999   -0.00270    0.00497    0.00964
N2    3   -0.000864    0.403423    0.321048    11.00000    0.05384    0.04110 =
         0.06120   -0.00182    0.00279    0.00984
C1    1    0.088308    0.336588    0.288263    11.00000    0.04653    0.04153 =
         0.05483   -0.00322    0.00179    0.00121
C2    1    0.103731    0.298218    0.399487    11.00000    0.05696    0.04466 =
         0.05071   -0.00586    0.00435    0.00853
C3    1   -0.003169    0.382492    0.390599    11.00000    0.05598    0.04623 =
         0.06500   -0.00907    0.00476    0.00672
C4    1    0.216781    0.242376    0.180865    11.00000    0.06133    0.06258 =
         0.06563   -0.00722    0.01641    0.00073
AFIX  23
H4A   2    0.252889    0.247211    0.133960    11.00000   -1.20000
H4B   2    0.305906    0.245069    0.212525    11.00000   -1.20000
AFIX  66
PART 1
C5A   1    0.136824    0.147969    0.187915    21.00000    0.05172    0.04961 =
         0.05062   -0.00454    0.00164    0.01270
C6A   1    0.205751    0.089394    0.236720    21.00000    0.06977    0.05460 =
         0.05808   -0.00298    0.00506    0.01458
AFIX  43
H6A   2    0.292459    0.110582    0.262412    21.00000   -1.20000
AFIX  65
C7A   1    0.145083   -0.000849    0.247127    21.00000    0.07578    0.06145 =
         0.07778    0.00741   -0.00330    0.01947
AFIX  43
H7A   2    0.191200   -0.040039    0.279781    21.00000   -1.20000
AFIX  65
C8A   1    0.015488   -0.032518    0.208728    21.00000    0.08800    0.06418 =
         0.09589    0.01595   -0.00366   -0.00017
AFIX  43
H8A   2   -0.025103   -0.092897    0.215691    21.00000   -1.20000
AFIX  65
C9A   1   -0.053440    0.026056    0.159923    21.00000    0.07794    0.06676 =
         0.09831    0.01809   -0.01731   -0.01568
AFIX  43
H9A   2   -0.140148    0.004867    0.134232    21.00000   -1.20000
AFIX  65
C10A  1    0.007226    0.116300    0.149516    21.00000    0.06047    0.06201 =
         0.07569    0.01269   -0.00646   -0.00303
AFIX  43
H10A  2   -0.038892    0.155490    0.116862    21.00000   -1.20000
AFIX  66
PART 2
C5B   1    0.150335    0.142536    0.190775   -21.00000    0.05172    0.04961 =
         0.05062   -0.00454    0.00164    0.01270
C6B   1    0.162304    0.080563    0.246095   -21.00000    0.06977    0.05460 =
         0.05808   -0.00298    0.00506    0.01458
AFIX  43
H6B   2    0.223416    0.096910    0.285243   -21.00000   -1.20000
AFIX  65
C7B   1    0.082933   -0.005844    0.242906   -21.00000    0.07578    0.06145 =
         0.07778    0.00741   -0.00330    0.01947
AFIX  43
H7B   2    0.090942   -0.047308    0.279919   -21.00000   -1.20000
AFIX  65
C8B   1   -0.008406   -0.030279    0.184396   -21.00000    0.08800    0.06418 =
         0.09589    0.01595   -0.00366   -0.00017
AFIX  43
H8B   2   -0.061510   -0.088091    0.182262   -21.00000   -1.20000
AFIX  65
C9B   1   -0.020376    0.031694    0.129074   -21.00000    0.07794    0.06676 =
         0.09831    0.01809   -0.01731   -0.01568
AFIX  43
H9B   2   -0.081489    0.015346    0.089927   -21.00000   -1.20000
AFIX  65
C10B  1    0.058993    0.118101    0.132263   -21.00000    0.06047    0.06201 =
         0.07569    0.01269   -0.00646   -0.00303
AFIX  43
H10B  2    0.050984    0.159565    0.095249   -21.00000   -1.20000
AFIX   0
PART 0
C11   1   -0.081790    0.482046    0.289138    11.00000    0.05308    0.04518 =
         0.07984    0.00226   -0.01024    0.01252
AFIX  23
H11A  2   -0.165004    0.499424    0.318330    11.00000   -1.20000
H11B  2   -0.126318    0.461205    0.244424    11.00000   -1.20000
AFIX   0
C12   1    0.019430    0.568188    0.278654    11.00000    0.05282    0.04471 =
         0.06399    0.00031    0.00002    0.01668
C13   1    0.107416    0.607194    0.333211    11.00000    0.07166    0.05072 =
         0.06767    0.00151   -0.00385    0.00402
AFIX  43
H13   2    0.105370    0.579497    0.376755    11.00000   -1.20000
AFIX   0
C14   1    0.197884    0.686275    0.324112    11.00000    0.07399    0.05682 =
         0.09307   -0.00726   -0.00497    0.00062
AFIX  43
H14   2    0.257574    0.710998    0.361385    11.00000   -1.20000
AFIX   0
C15   1    0.201448    0.729133    0.261106    11.00000    0.07401    0.05117 =
         0.11442    0.00893    0.00986    0.00732
AFIX  43
H15   2    0.262499    0.783052    0.255433    11.00000   -1.20000
AFIX   0
C16   1    0.114650    0.692178    0.206512    11.00000    0.08697    0.07040 =
         0.08926    0.02934    0.01639    0.02360
AFIX  43
H16   2    0.116394    0.721133    0.163414    11.00000   -1.20000
AFIX   0
C17   1    0.023422    0.611382    0.214855    11.00000    0.07003    0.06522 =
         0.06860    0.00490   -0.00451    0.01945
AFIX  43
H17   2   -0.035051    0.586430    0.177280    11.00000   -1.20000
AFIX   0
C18   1    0.013858    0.216009    0.430569    11.00000    0.05476    0.04680 =
         0.05782    0.00017    0.00576    0.00777
C19   1   -0.017950    0.215817    0.500137    11.00000    0.08269    0.06736 =
         0.06425   -0.00704    0.01528   -0.00958
AFIX  43
H19   2    0.017022    0.266028    0.528622    11.00000   -1.20000
AFIX   0
C20   1   -0.100942    0.142280    0.528320    11.00000    0.08763    0.08605 =
         0.07656    0.00657    0.02323   -0.00649
AFIX  43
H20   2   -0.121280    0.143099    0.575415    11.00000   -1.20000
AFIX   0
C21   1   -0.153016    0.068382    0.486794    11.00000    0.07561    0.06833 =
         0.10259    0.00841    0.01995   -0.00882
AFIX  43
H21   2   -0.208288    0.018489    0.505563    11.00000   -1.20000
AFIX   0
C22   1   -0.123866    0.068093    0.418320    11.00000    0.08539    0.06871 =
         0.09222   -0.01192    0.00503   -0.02094
AFIX  43
H22   2   -0.159719    0.017707    0.390213    11.00000   -1.20000
AFIX   0
C23   1   -0.041576    0.141483    0.389293    11.00000    0.06899    0.06543 =
         0.06716   -0.00576    0.00245   -0.00741
AFIX  43
H23   2   -0.023675    0.140528    0.341954    11.00000   -1.20000
AFIX   0
C24   1    0.248936    0.325124    0.443941    11.00000    0.05946    0.05196 =
         0.05195    0.00611    0.00201   -0.00413
C25   1    0.249562    0.394221    0.495209    11.00000    0.08588    0.05556 =
         0.05693    0.00104   -0.00459   -0.01091
AFIX  43
H25   2    0.160505    0.426392    0.503775    11.00000   -1.20000
AFIX   0
C26   1    0.382330    0.415454    0.533673    11.00000    0.12437    0.07369 =
         0.06827    0.01637   -0.02284   -0.03107
AFIX  43
H26   2    0.381661    0.461756    0.568408    11.00000   -1.20000
AFIX   0
C27   1    0.513291    0.370408    0.521945    11.00000    0.09643    0.10696 =
         0.07878    0.03706   -0.03210   -0.03888
AFIX  43
H27   2    0.602317    0.386424    0.547903    11.00000   -1.20000
AFIX   0
C28   1    0.514884    0.300248    0.471157    11.00000    0.06695    0.12674 =
         0.08127    0.03860   -0.00531    0.00226
AFIX  43
H28   2    0.604541    0.268359    0.463249    11.00000   -1.20000
AFIX   0
C29   1    0.382229    0.277877    0.432239    11.00000    0.06401    0.08713 =
         0.06158    0.01143    0.00225    0.00940
AFIX  43
H29   2    0.382817    0.230822    0.398051    11.00000   -1.20000
AFIX   0
S2    5    0.379016    0.347010    0.712152    11.00000    0.06944    0.04856 =
         0.05095    0.00680    0.00105    0.00413
O2    4    0.600941    0.405724    0.950670    11.00000    0.06692    0.06062 =
         0.06826   -0.01087   -0.00899   -0.01394
N3    3    0.358444    0.262320    0.836549    11.00000    0.05751    0.04207 =
         0.04368   -0.00059    0.00151   -0.00309
N4    3    0.508778    0.395425    0.836774    11.00000    0.05058    0.03956 =
         0.05553    0.00092    0.00259   -0.00197
C30   1    0.412184    0.329501    0.800669    11.00000    0.04822    0.03958 =
         0.04931   -0.00113    0.00470    0.00386
C31   1    0.413897    0.280597    0.909331    11.00000    0.05325    0.04309 =
         0.04666   -0.00097    0.00132   -0.00390
C32   1    0.521592    0.367969    0.905278    11.00000    0.05095    0.04444 =
         0.05416   -0.00515    0.00403    0.00049
C33   1    0.255827    0.245048    0.690599    11.00000    0.05406    0.05974 =
         0.05596   -0.00270   -0.00626    0.00612
AFIX  23
H33A  2    0.192619    0.231546    0.729806    11.00000   -1.20000
H33B  2    0.188178    0.260392    0.651434    11.00000   -1.20000
AFIX   0
C34   1    0.341417    0.158303    0.672756    11.00000    0.04690    0.05422 =
         0.05820   -0.00784    0.00285   -0.00353
C35   1    0.401448    0.150611    0.607600    11.00000    0.08550    0.06923 =
         0.07725   -0.01505    0.02379   -0.01108
AFIX  43
H35   2    0.385194    0.198189    0.575425    11.00000   -1.20000
AFIX   0
C36   1    0.484235    0.074089    0.589918    11.00000    0.08790    0.10585 =
         0.11146   -0.04140    0.03086   -0.00093
AFIX  43
H36   2    0.525230    0.070311    0.546095    11.00000   -1.20000
AFIX   0
C37   1    0.507138    0.003518    0.635805    11.00000    0.10025    0.09070 =
         0.13729   -0.04131   -0.00763    0.03747
AFIX  43
H37   2    0.563754   -0.048499    0.623437    11.00000   -1.20000
AFIX   0
C38   1    0.446907    0.008713    0.700488    11.00000    0.12179    0.07681 =
         0.11591   -0.00214   -0.03336    0.03071
AFIX  43
H38   2    0.461376   -0.040154    0.731763    11.00000   -1.20000
AFIX   0
C39   1    0.363903    0.087432    0.719276    11.00000    0.07923    0.06357 =
         0.07309   -0.00079   -0.01138    0.00787
AFIX  43
H39   2    0.324042    0.091623    0.763313    11.00000   -1.20000
AFIX   0
C40   1    0.591620    0.476364    0.808670    11.00000    0.04971    0.04657 =
         0.07551    0.00381    0.01147   -0.00340
AFIX  23
H40A  2    0.635294    0.457433    0.765186    11.00000   -1.20000
H40B  2    0.675565    0.494632    0.840876    11.00000   -1.20000
AFIX   0
C41   1    0.492832    0.561055    0.795901    11.00000    0.04710    0.04146 =
         0.06033    0.00341    0.00560   -0.00748
C42   1    0.415414    0.601085    0.849963    11.00000    0.06072    0.05365 =
         0.05911    0.00019    0.00690    0.00017
AFIX  43
H42   2    0.422257    0.574878    0.894024    11.00000   -1.20000
AFIX   0
C43   1    0.328326    0.679616    0.838598    11.00000    0.06233    0.05976 =
         0.07855   -0.00738    0.01077    0.00230
AFIX  43
H43   2    0.276305    0.705775    0.875182    11.00000   -1.20000
AFIX   0
C44   1    0.317036    0.719910    0.774183    11.00000    0.06094    0.05386 =
         0.09773    0.00984    0.00346    0.00268
AFIX  43
H44   2    0.257856    0.772907    0.766919    11.00000   -1.20000
AFIX   0
C45   1    0.394039    0.680965    0.720963    11.00000    0.07101    0.06970 =
         0.07374    0.02538    0.00072   -0.00437
AFIX  43
H45   2    0.387778    0.708036    0.677184    11.00000   -1.20000
AFIX   0
C46   1    0.481425    0.601619    0.731305    11.00000    0.06128    0.05888 =
         0.06355    0.00383    0.01433   -0.00524
AFIX  43
H46   2    0.532664    0.575606    0.694425    11.00000   -1.20000
AFIX   0
C47   1    0.271912    0.302468    0.950705    11.00000    0.05335    0.04942 =
         0.04396    0.00521   -0.00176   -0.00157
C48   1    0.151431    0.237894    0.946763    11.00000    0.07269    0.07587 =
         0.06457   -0.00281    0.00955   -0.01490
AFIX  43
H48   2    0.160881    0.180754    0.923049    11.00000   -1.20000
AFIX   0
C49   1    0.014728    0.258586    0.978579    11.00000    0.06707    0.11991 =
         0.06973    0.01121    0.00861   -0.02581
AFIX  43
H49   2   -0.067547    0.215601    0.975231    11.00000   -1.20000
AFIX   0
C50   1    0.001579    0.341603    1.014518    11.00000    0.06629    0.12427 =
         0.06273    0.02076    0.01496    0.01944
AFIX  43
H50   2   -0.089916    0.355516    1.035122    11.00000   -1.20000
AFIX   0
C51   1    0.123062    0.404256    1.020184    11.00000    0.07936    0.08012 =
         0.06389    0.00465    0.01093    0.02058
AFIX  43
H51   2    0.114597    0.460131    1.045599    11.00000   -1.20000
AFIX   0
C52   1    0.258013    0.385321    0.988545    11.00000    0.06183    0.05522 =
         0.05718    0.00258    0.00338    0.00727
AFIX  43
H52   2    0.340016    0.428439    0.992669    11.00000   -1.20000
AFIX   0
C53   1    0.505174    0.198339    0.938063    11.00000    0.05369    0.04399 =
         0.05248    0.00119   -0.00093   -0.00301
C54   1    0.573366    0.135244    0.893923    11.00000    0.07400    0.06268 =
         0.05952   -0.00092    0.00504    0.00894
AFIX  43
H54   2    0.559430    0.141311    0.846042    11.00000   -1.20000
AFIX   0
C55   1    0.661675    0.063543    0.920163    11.00000    0.08284    0.06501 =
         0.08908   -0.00495    0.00408    0.02453
AFIX  43
H55   2    0.706145    0.021357    0.889936    11.00000   -1.20000
AFIX   0
C56   1    0.684212    0.054152    0.990512    11.00000    0.07650    0.06282 =
         0.09379    0.00957   -0.01315    0.01269
AFIX  43
H56   2    0.743803    0.005774    1.008193    11.00000   -1.20000
AFIX   0
C57   1    0.618385    0.116486    1.034557    11.00000    0.08809    0.07675 =
         0.06655    0.01340   -0.01511    0.01003
AFIX  43
H57   2    0.634027    0.110501    1.082364    11.00000   -1.20000
AFIX   0
C58   1    0.529284    0.187953    1.008976    11.00000    0.07875    0.06285 =
         0.05710   -0.00191   -0.00550    0.00827
AFIX  43
H58   2    0.484903    0.229619    1.039616    11.00000   -1.20000
AFIX   0
HKLF 4
REM  JTM708_0m_a.res in P-1
REM R1 =  0.0553 for    6260 Fo > 4sig(Fo)  and  0.1064 for all   11555 data
REM    590 parameters refined using      0 restraints
END
WGHT      0.0667      0.0000
REM Highest difference peak  0.416,  deepest hole -0.167,  1-sigma level  0.043
Q1    1   0.1646  0.1706  0.1856  11.00000  0.05    0.23
Q2    1   0.4411 -0.0265  0.6727  11.00000  0.05    0.22
Q3    1   0.0385 -0.0206  0.2331  11.00000  0.05    0.21
Q4    1   0.3875 -0.0166  0.7418  11.00000  0.05    0.21
Q5    1   0.4613  0.3275  0.6986  11.00000  0.05    0.21
;
_shelx_res_checksum              59907
loop_
_space_group_symop_operation_xyz
'x, y, z'
'-x, -y, -z'
loop_
_atom_site_type_symbol
_atom_site_label
_atom_site_fract_x
_atom_site_fract_y
_atom_site_fract_z
_atom_site_U_iso_or_equiv
_atom_site_adp_type
_atom_site_calc_flag
_atom_site_occupancy
_atom_site_disorder_assembly
_atom_site_disorder_group
S S1 0.10005(6) 0.34338(4) 0.19831(3) 0.05694(16) Uani d 1 . .
O O1 -0.07564(18) 0.42328(11) 0.43322(8) 0.0769(5) Uani d 1 . .
N N1 0.14932(18) 0.27553(11) 0.32783(8) 0.0502(4) Uani d 1 . .
N N2 -0.00086(18) 0.40342(10) 0.32105(8) 0.0519(4) Uani d 1 . .
C C1 0.0883(2) 0.33659(13) 0.28826(10) 0.0477(4) Uani d 1 . .
C C2 0.1037(2) 0.29822(13) 0.39949(10) 0.0507(5) Uani d 1 . .
C C3 -0.0032(2) 0.38249(14) 0.39060(11) 0.0557(5) Uani d 1 . .
C C4 0.2168(2) 0.24238(14) 0.18086(11) 0.0629(6) Uani d 1 . .
H H4A 0.2529 0.2472 0.1340 0.075 Uiso calc 1 A 1
H H4B 0.3059 0.2451 0.2125 0.075 Uiso calc 1 A 1
C C5A 0.1368(4) 0.1480(2) 0.1879(2) 0.0505(6) Uani d 0.713(9) B 1
C C6A 0.2058(4) 0.0894(3) 0.2367(2) 0.0606(10) Uani d 0.713(9) B 1
H H6A 0.2925 0.1106 0.2624 0.073 Uiso calc 0.713(9) B 1
C C7A 0.1451(6) -0.0008(3) 0.24713(16) 0.0715(12) Uani d 0.713(9) B 1
H H7A 0.1912 -0.0400 0.2798 0.086 Uiso calc 0.713(9) B 1
C C8A 0.0155(4) -0.0325(2) 0.2087(3) 0.0828(12) Uani d 0.713(9) B 1
H H8A -0.0251 -0.0929 0.2157 0.099 Uiso calc 0.713(9) B 1
C C9A -0.0534(3) 0.0261(2) 0.1599(3) 0.0817(14) Uani d 0.713(9) B 1
H H9A -0.1401 0.0049 0.1342 0.098 Uiso calc 0.713(9) B 1
C C10A 0.0072(5) 0.1163(2) 0.1495(2) 0.0663(11) Uani d 0.713(9) B 1
H H10A -0.0389 0.1555 0.1169 0.080 Uiso calc 0.713(9) B 1
C C5B 0.1503(11) 0.1425(7) 0.1908(6) 0.0505(6) Uani d 0.287(9) B 2
C C6B 0.1623(14) 0.0806(9) 0.2461(5) 0.0606(10) Uani d 0.287(9) B 2
H H6B 0.2234 0.0969 0.2852 0.073 Uiso calc 0.287(9) B 2
C C7B 0.0829(14) -0.0058(8) 0.2429(5) 0.0715(12) Uani d 0.287(9) B 2
H H7B 0.0909 -0.0473 0.2799 0.086 Uiso calc 0.287(9) B 2
C C8B -0.0084(12) -0.0303(6) 0.1844(6) 0.0828(12) Uani d 0.287(9) B 2
H H8B -0.0615 -0.0881 0.1823 0.099 Uiso calc 0.287(9) B 2
C C9B -0.0204(13) 0.0317(7) 0.1291(6) 0.0817(14) Uani d 0.287(9) B 2
H H9B -0.0815 0.0153 0.0899 0.098 Uiso calc 0.287(9) B 2
C C10B 0.0590(13) 0.1181(7) 0.1323(5) 0.0663(11) Uani d 0.287(9) B 2
H H10B 0.0510 0.1596 0.0952 0.080 Uiso calc 0.287(9) B 2
C C11 -0.0818(2) 0.48205(13) 0.28914(12) 0.0595(5) Uani d 1 . .
H H11A -0.1650 0.4994 0.3183 0.071 Uiso calc 1 . .
H H11B -0.1263 0.4612 0.2444 0.071 Uiso calc 1 . .
C C12 0.0194(2) 0.56819(13) 0.27865(11) 0.0536(5) Uani d 1 . .
C C13 0.1074(3) 0.60719(14) 0.33321(12) 0.0635(6) Uani d 1 . .
H H13 0.1054 0.5795 0.3768 0.076 Uiso calc 1 . .
C C14 0.1979(3) 0.68627(16) 0.32411(14) 0.0749(7) Uani d 1 . .
H H14 0.2576 0.7110 0.3614 0.090 Uiso calc 1 . .
C C15 0.2014(3) 0.72913(17) 0.26111(16) 0.0795(7) Uani d 1 . .
H H15 0.2625 0.7831 0.2554 0.095 Uiso calc 1 . .
C C16 0.1147(3) 0.69218(18) 0.20651(15) 0.0813(7) Uani d 1 . .
H H16 0.1164 0.7211 0.1634 0.098 Uiso calc 1 . .
C C17 0.0234(3) 0.61138(16) 0.21486(12) 0.0678(6) Uani d 1 . .
H H17 -0.0351 0.5864 0.1773 0.081 Uiso calc 1 . .
C C18 0.0139(2) 0.21601(13) 0.43057(10) 0.0529(5) Uani d 1 . .
C C19 -0.0179(3) 0.21582(17) 0.50014(12) 0.0714(6) Uani d 1 . .
H H19 0.0170 0.2660 0.5286 0.086 Uiso calc 1 . .
C C20 -0.1009(3) 0.14228(19) 0.52832(14) 0.0830(7) Uani d 1 . .
H H20 -0.1213 0.1431 0.5754 0.100 Uiso calc 1 . .
C C21 -0.1530(3) 0.06838(18) 0.48679(15) 0.0819(7) Uani d 1 . .
H H21 -0.2083 0.0185 0.5056 0.098 Uiso calc 1 . .
C C22 -0.1239(3) 0.06809(17) 0.41832(14) 0.0825(7) Uani d 1 . .
H H22 -0.1597 0.0177 0.3902 0.099 Uiso calc 1 . .
C C23 -0.0416(3) 0.14148(15) 0.38929(12) 0.0674(6) Uani d 1 . .
H H23 -0.0237 0.1405 0.3420 0.081 Uiso calc 1 . .
C C24 0.2489(2) 0.32512(14) 0.44394(10) 0.0545(5) Uani d 1 . .
C C25 0.2496(3) 0.39422(15) 0.49521(11) 0.0665(6) Uani d 1 . .
H H25 0.1605 0.4264 0.5038 0.080 Uiso calc 1 . .
C C26 0.3823(4) 0.41545(19) 0.53367(13) 0.0899(9) Uani d 1 . .
H H26 0.3817 0.4618 0.5684 0.108 Uiso calc 1 . .
C C27 0.5133(4) 0.3704(2) 0.52195(15) 0.0953(10) Uani d 1 . .
H H27 0.6023 0.3864 0.5479 0.114 Uiso calc 1 . .
C C28 0.5149(3) 0.3002(2) 0.47116(15) 0.0915(9) Uani d 1 . .
H H28 0.6045 0.2684 0.4632 0.110 Uiso calc 1 . .
C C29 0.3822(3) 0.27788(18) 0.43224(12) 0.0707(6) Uani d 1 . .
H H29 0.3828 0.2308 0.3981 0.085 Uiso calc 1 . .
S S2 0.37902(6) 0.34701(4) 0.71215(3) 0.05625(16) Uani d 1 . .
O O2 0.60094(16) 0.40572(10) 0.95067(7) 0.0659(4) Uani d 1 . .
N N3 0.35844(18) 0.26232(10) 0.83655(7) 0.0478(4) Uani d 1 . .
N N4 0.50878(17) 0.39542(10) 0.83677(8) 0.0486(4) Uani d 1 . .
C C30 0.4122(2) 0.32950(12) 0.80067(9) 0.0456(4) Uani d 1 . .
C C31 0.4139(2) 0.28060(12) 0.90933(9) 0.0478(4) Uani d 1 . .
C C32 0.5216(2) 0.36797(13) 0.90528(10) 0.0499(5) Uani d 1 . .
C C33 0.2558(2) 0.24505(14) 0.69060(10) 0.0568(5) Uani d 1 . .
H H33A 0.1926 0.2315 0.7298 0.068 Uiso calc 1 . .
H H33B 0.1882 0.2604 0.6514 0.068 Uiso calc 1 . .
C C34 0.3414(2) 0.15830(14) 0.67276(10) 0.0532(5) Uani d 1 . .
C C35 0.4014(3) 0.15061(17) 0.60760(13) 0.0771(7) Uani d 1 . .
H H35 0.3852 0.1982 0.5754 0.093 Uiso calc 1 . .
C C36 0.4842(3) 0.0741(2) 0.58992(17) 0.1015(10) Uani d 1 . .
H H36 0.5252 0.0703 0.5461 0.122 Uiso calc 1 . .
C C37 0.5071(4) 0.0035(2) 0.6358(2) 0.1095(11) Uani d 1 . .
H H37 0.5638 -0.0485 0.6234 0.131 Uiso calc 1 . .
C C38 0.4469(4) 0.0087(2) 0.70049(18) 0.1054(10) Uani d 1 . .
H H38 0.4614 -0.0402 0.7318 0.126 Uiso calc 1 . .
C C39 0.3639(3) 0.08743(16) 0.71928(13) 0.0722(6) Uani d 1 . .
H H39 0.3240 0.0916 0.7633 0.087 Uiso calc 1 . .
C C40 0.5916(2) 0.47636(13) 0.80867(11) 0.0571(5) Uani d 1 . .
H H40A 0.6353 0.4574 0.7652 0.068 Uiso calc 1 . .
H H40B 0.6756 0.4946 0.8409 0.068 Uiso calc 1 . .
C C41 0.4928(2) 0.56105(13) 0.79590(10) 0.0497(5) Uani d 1 . .
C C42 0.4154(2) 0.60108(14) 0.84996(11) 0.0577(5) Uani d 1 . .
H H42 0.4223 0.5749 0.8940 0.069 Uiso calc 1 . .
C C43 0.3283(2) 0.67962(16) 0.83860(12) 0.0667(6) Uani d 1 . .
H H43 0.2763 0.7058 0.8752 0.080 Uiso calc 1 . .
C C44 0.3170(3) 0.71991(16) 0.77418(14) 0.0707(6) Uani d 1 . .
H H44 0.2579 0.7729 0.7669 0.085 Uiso calc 1 . .
C C45 0.3940(3) 0.68097(17) 0.72096(13) 0.0714(6) Uani d 1 . .
H H45 0.3878 0.7080 0.6772 0.086 Uiso calc 1 . .
C C46 0.4814(2) 0.60162(15) 0.73131(11) 0.0610(5) Uani d 1 . .
H H46 0.5327 0.5756 0.6944 0.073 Uiso calc 1 . .
C C47 0.2719(2) 0.30247(13) 0.95070(9) 0.0490(5) Uani d 1 . .
C C48 0.1514(3) 0.23789(17) 0.94676(11) 0.0712(6) Uani d 1 . .
H H48 0.1609 0.1808 0.9230 0.085 Uiso calc 1 . .
C C49 0.0147(3) 0.2586(2) 0.97858(13) 0.0858(8) Uani d 1 . .
H H49 -0.0675 0.2156 0.9752 0.103 Uiso calc 1 . .
C C50 0.0016(3) 0.3416(2) 1.01452(13) 0.0837(8) Uani d 1 . .
H H50 -0.0899 0.3555 1.0351 0.100 Uiso calc 1 . .
C C51 0.1231(3) 0.40426(18) 1.02018(12) 0.0739(7) Uani d 1 . .
H H51 0.1146 0.4601 1.0456 0.089 Uiso calc 1 . .
C C52 0.2580(2) 0.38532(14) 0.98854(10) 0.0579(5) Uani d 1 . .
H H52 0.3400 0.4284 0.9927 0.070 Uiso calc 1 . .
C C53 0.5052(2) 0.19834(13) 0.93806(10) 0.0502(5) Uani d 1 . .
C C54 0.5734(2) 0.13524(15) 0.89392(11) 0.0652(6) Uani d 1 . .
H H54 0.5594 0.1413 0.8460 0.078 Uiso calc 1 . .
C C55 0.6617(3) 0.06354(17) 0.92016(14) 0.0786(7) Uani d 1 . .
H H55 0.7061 0.0214 0.8899 0.094 Uiso calc 1 . .
C C56 0.6842(3) 0.05415(17) 0.99051(14) 0.0779(7) Uani d 1 . .
H H56 0.7438 0.0058 1.0082 0.093 Uiso calc 1 . .
C C57 0.6184(3) 0.11649(18) 1.03456(13) 0.0774(7) Uani d 1 . .
H H57 0.6340 0.1105 1.0824 0.093 Uiso calc 1 . .
C C58 0.5293(3) 0.18795(15) 1.00898(11) 0.0664(6) Uani d 1 . .
H H58 0.4849 0.2296 1.0396 0.080 Uiso calc 1 . .
loop_
_atom_site_aniso_label
_atom_site_aniso_U_11
_atom_site_aniso_U_22
_atom_site_aniso_U_33
_atom_site_aniso_U_12
_atom_site_aniso_U_13
_atom_site_aniso_U_23
S1 0.0650(3) 0.0517(3) 0.0544(3) 0.0022(3) 0.0049(2) 0.0039(2)
O1 0.0881(11) 0.0683(10) 0.0761(10) 0.0265(9) 0.0185(9) -0.0159(8)
N1 0.0554(10) 0.0458(9) 0.0500(9) 0.0096(8) 0.0050(8) -0.0027(7)
N2 0.0538(10) 0.0411(9) 0.0612(10) 0.0098(7) 0.0028(8) -0.0018(8)
C1 0.0465(11) 0.0415(10) 0.0548(11) 0.0012(9) 0.0018(9) -0.0032(9)
C2 0.0570(12) 0.0447(11) 0.0507(11) 0.0085(9) 0.0043(9) -0.0059(9)
C3 0.0560(12) 0.0462(11) 0.0650(14) 0.0067(10) 0.0048(10) -0.0091(10)
C4 0.0613(13) 0.0626(13) 0.0656(13) 0.0007(11) 0.0164(11) -0.0072(11)
C5A 0.0517(13) 0.0496(12) 0.0506(12) 0.0127(11) 0.0016(10) -0.0045(10)
C6A 0.070(3) 0.0546(17) 0.0581(17) 0.0146(19) 0.0051(19) -0.0030(14)
C7A 0.076(4) 0.0615(18) 0.0778(19) 0.019(2) -0.003(2) 0.0074(14)
C8A 0.088(2) 0.0642(17) 0.096(4) -0.0002(16) -0.004(3) 0.016(2)
C9A 0.078(2) 0.0668(18) 0.098(4) -0.0157(18) -0.017(2) 0.018(3)
C10A 0.060(3) 0.0620(15) 0.076(3) -0.0030(19) -0.006(2) 0.0127(16)
C5B 0.0517(13) 0.0496(12) 0.0506(12) 0.0127(11) 0.0016(10) -0.0045(10)
C6B 0.070(3) 0.0546(17) 0.0581(17) 0.0146(19) 0.0051(19) -0.0030(14)
C7B 0.076(4) 0.0615(18) 0.0778(19) 0.019(2) -0.003(2) 0.0074(14)
C8B 0.088(2) 0.0642(17) 0.096(4) -0.0002(16) -0.004(3) 0.016(2)
C9B 0.078(2) 0.0668(18) 0.098(4) -0.0157(18) -0.017(2) 0.018(3)
C10B 0.060(3) 0.0620(15) 0.076(3) -0.0030(19) -0.006(2) 0.0127(16)
C11 0.0531(12) 0.0452(11) 0.0798(15) 0.0125(10) -0.0102(10) 0.0023(10)
C12 0.0528(12) 0.0447(11) 0.0640(13) 0.0167(9) 0.0000(10) 0.0003(10)
C13 0.0717(14) 0.0507(12) 0.0677(14) 0.0040(11) -0.0039(11) 0.0015(10)
C14 0.0740(16) 0.0568(14) 0.0931(18) 0.0006(12) -0.0050(13) -0.0073(13)
C15 0.0740(17) 0.0512(13) 0.114(2) 0.0073(12) 0.0099(16) 0.0089(14)
C16 0.0870(18) 0.0704(16) 0.0893(18) 0.0236(15) 0.0164(15) 0.0293(14)
C17 0.0700(15) 0.0652(14) 0.0686(14) 0.0194(12) -0.0045(12) 0.0049(12)
C18 0.0548(12) 0.0468(11) 0.0578(12) 0.0078(10) 0.0058(10) 0.0002(9)
C19 0.0827(16) 0.0674(14) 0.0642(14) -0.0096(13) 0.0153(12) -0.0070(11)
C20 0.0876(18) 0.0861(18) 0.0766(16) -0.0065(15) 0.0232(14) 0.0066(14)
C21 0.0756(17) 0.0683(16) 0.103(2) -0.0088(13) 0.0200(15) 0.0084(15)
C22 0.0854(18) 0.0687(16) 0.0922(19) -0.0209(14) 0.0050(15) -0.0119(14)
C23 0.0690(14) 0.0654(14) 0.0672(14) -0.0074(12) 0.0024(11) -0.0058(11)
C24 0.0595(13) 0.0520(12) 0.0520(12) -0.0041(10) 0.0020(10) 0.0061(9)
C25 0.0859(16) 0.0556(13) 0.0569(13) -0.0109(12) -0.0046(12) 0.0010(10)
C26 0.124(2) 0.0737(17) 0.0683(16) -0.0311(18) -0.0228(17) 0.0164(13)
C27 0.096(2) 0.107(2) 0.0788(19) -0.0389(19) -0.0321(17) 0.0371(17)
C28 0.0670(16) 0.127(2) 0.0813(18) 0.0023(17) -0.0053(14) 0.0386(18)
C29 0.0640(14) 0.0871(17) 0.0616(14) 0.0094(13) 0.0022(11) 0.0114(12)
S2 0.0694(4) 0.0486(3) 0.0510(3) 0.0041(2) 0.0011(2) 0.0068(2)
O2 0.0669(9) 0.0606(9) 0.0683(9) -0.0139(8) -0.0090(8) -0.0109(7)
N3 0.0575(10) 0.0421(8) 0.0437(9) -0.0031(7) 0.0015(7) -0.0006(7)
N4 0.0506(9) 0.0396(8) 0.0555(10) -0.0020(7) 0.0026(7) 0.0009(7)
C30 0.0482(11) 0.0396(10) 0.0493(11) 0.0039(9) 0.0047(8) -0.0011(8)
C31 0.0532(11) 0.0431(10) 0.0467(11) -0.0039(9) 0.0013(9) -0.0010(8)
C32 0.0509(11) 0.0444(11) 0.0542(12) 0.0005(9) 0.0040(9) -0.0051(9)
C33 0.0541(12) 0.0597(13) 0.0560(12) 0.0061(10) -0.0063(9) -0.0027(10)
C34 0.0469(11) 0.0542(12) 0.0582(12) -0.0035(9) 0.0028(9) -0.0078(10)
C35 0.0855(17) 0.0692(15) 0.0772(16) -0.0111(14) 0.0238(13) -0.0150(13)
C36 0.088(2) 0.106(2) 0.111(2) -0.0009(18) 0.0309(18) -0.041(2)
C37 0.100(2) 0.091(2) 0.137(3) 0.0375(19) -0.008(2) -0.041(2)
C38 0.122(2) 0.0768(19) 0.116(3) 0.0307(18) -0.033(2) -0.0021(18)
C39 0.0792(16) 0.0636(14) 0.0731(15) 0.0079(13) -0.0114(12) -0.0008(12)
C40 0.0497(11) 0.0466(11) 0.0755(14) -0.0034(9) 0.0115(10) 0.0038(10)
C41 0.0471(11) 0.0415(10) 0.0603(12) -0.0075(9) 0.0056(9) 0.0034(9)
C42 0.0607(13) 0.0537(12) 0.0591(12) 0.0002(10) 0.0069(10) 0.0002(10)
C43 0.0623(14) 0.0598(13) 0.0786(16) 0.0023(11) 0.0108(12) -0.0074(12)
C44 0.0609(14) 0.0539(13) 0.0977(18) 0.0027(11) 0.0035(13) 0.0098(13)
C45 0.0710(15) 0.0697(15) 0.0737(15) -0.0044(13) 0.0007(12) 0.0254(13)
C46 0.0613(13) 0.0589(13) 0.0636(13) -0.0052(11) 0.0143(10) 0.0038(11)
C47 0.0534(11) 0.0494(11) 0.0440(11) -0.0016(9) -0.0018(9) 0.0052(9)
C48 0.0727(15) 0.0759(16) 0.0646(14) -0.0149(13) 0.0096(12) -0.0028(12)
C49 0.0671(16) 0.120(2) 0.0697(16) -0.0258(16) 0.0086(13) 0.0112(16)
C50 0.0663(16) 0.124(2) 0.0627(15) 0.0194(17) 0.0150(12) 0.0208(16)
C51 0.0794(17) 0.0801(17) 0.0639(15) 0.0206(14) 0.0109(13) 0.0046(12)
C52 0.0618(13) 0.0552(12) 0.0572(12) 0.0073(10) 0.0034(10) 0.0026(10)
C53 0.0537(12) 0.0440(10) 0.0525(12) -0.0030(9) -0.0009(9) 0.0012(9)
C54 0.0740(15) 0.0627(14) 0.0595(13) 0.0089(12) 0.0050(11) -0.0009(11)
C55 0.0828(17) 0.0650(15) 0.0891(19) 0.0245(13) 0.0041(14) -0.0049(13)
C56 0.0765(16) 0.0628(15) 0.0938(19) 0.0127(13) -0.0131(14) 0.0096(14)
C57 0.0881(17) 0.0768(16) 0.0665(15) 0.0100(14) -0.0151(13) 0.0134(13)
C58 0.0787(15) 0.0629(14) 0.0571(13) 0.0083(12) -0.0055(11) -0.0019(11)
loop_
_atom_type_symbol
_atom_type_description
_atom_type_scat_dispersion_real
_atom_type_scat_dispersion_imag
_atom_type_scat_source
C C 0.0033 0.0016 'International Tables Vol C Tables 4.2.6.8 and 6.1.1.4'
H H 0.0000 0.0000 'International Tables Vol C Tables 4.2.6.8 and 6.1.1.4'
N N 0.0061 0.0033 'International Tables Vol C Tables 4.2.6.8 and 6.1.1.4'
O O 0.0106 0.0060 'International Tables Vol C Tables 4.2.6.8 and 6.1.1.4'
S S 0.1246 0.1234 'International Tables Vol C Tables 4.2.6.8 and 6.1.1.4'
loop_
_geom_angle_atom_site_label_1
_geom_angle_atom_site_label_2
_geom_angle_atom_site_label_3
_geom_angle
C1 S1 C4 100.73(10)
C1 N1 C2 106.73(15)
C3 N2 C1 108.21(15)
C3 N2 C11 124.11(16)
C1 N2 C11 127.67(17)
N1 C1 N2 115.74(17)
N1 C1 S1 126.99(15)
N2 C1 S1 117.24(14)
N1 C2 C18 111.41(15)
N1 C2 C3 104.30(15)
C18 C2 C3 108.69(15)
N1 C2 C24 108.53(15)
C18 C2 C24 111.90(15)
C3 C2 C24 111.78(15)
O1 C3 N2 125.46(19)
O1 C3 C2 129.7(2)
N2 C3 C2 104.85(16)
C5A C4 S1 114.8(2)
C5B C4 S1 119.4(4)
C5A C4 H4A 108.6
S1 C4 H4A 108.6
C5A C4 H4B 108.6
S1 C4 H4B 108.6
H4A C4 H4B 107.5
C6A C5A C10A 120.0
C6A C5A C4 114.3(3)
C10A C5A C4 125.7(3)
C7A C6A C5A 120.0
C7A C6A H6A 120.0
C5A C6A H6A 120.0
C6A C7A C8A 120.0
C6A C7A H7A 120.0
C8A C7A H7A 120.0
C9A C8A C7A 120.0
C9A C8A H8A 120.0
C7A C8A H8A 120.0
C8A C9A C10A 120.0
C8A C9A H9A 120.0
C10A C9A H9A 120.0
C9A C10A C5A 120.0
C9A C10A H10A 120.0
C5A C10A H10A 120.0
C6B C5B C10B 120.0
C6B C5B C4 131.7(7)
C10B C5B C4 108.2(7)
C5B C6B C7B 120.0
C5B C6B H6B 120.0
C7B C6B H6B 120.0
C6B C7B C8B 120.0
C6B C7B H7B 120.0
C8B C7B H7B 120.0
C9B C8B C7B 120.0
C9B C8B H8B 120.0
C7B C8B H8B 120.0
C8B C9B C10B 120.0
C8B C9B H9B 120.0
C10B C9B H9B 120.0
C9B C10B C5B 120.0
C9B C10B H10B 120.0
C5B C10B H10B 120.0
N2 C11 C12 113.47(15)
N2 C11 H11A 108.9
C12 C11 H11A 108.9
N2 C11 H11B 108.9
C12 C11 H11B 108.9
H11A C11 H11B 107.7
C13 C12 C17 118.3(2)
C13 C12 C11 120.70(19)
C17 C12 C11 120.98(19)
C14 C13 C12 120.9(2)
C14 C13 H13 119.6
C12 C13 H13 119.6
C15 C14 C13 120.8(2)
C15 C14 H14 119.6
C13 C14 H14 119.6
C16 C15 C14 119.3(2)
C16 C15 H15 120.3
C14 C15 H15 120.3
C15 C16 C17 120.4(2)
C15 C16 H16 119.8
C17 C16 H16 119.8
C12 C17 C16 120.2(2)
C12 C17 H17 119.9
C16 C17 H17 119.9
C19 C18 C23 118.23(19)
C19 C18 C2 120.87(18)
C23 C18 C2 120.86(18)
C18 C19 C20 121.1(2)
C18 C19 H19 119.4
C20 C19 H19 119.4
C21 C20 C19 119.8(2)
C21 C20 H20 120.1
C19 C20 H20 120.1
C22 C21 C20 119.7(2)
C22 C21 H21 120.1
C20 C21 H21 120.1
C21 C22 C23 121.1(2)
C21 C22 H22 119.4
C23 C22 H22 119.4
C18 C23 C22 120.0(2)
C18 C23 H23 120.0
C22 C23 H23 120.0
C25 C24 C29 119.2(2)
C25 C24 C2 122.1(2)
C29 C24 C2 118.72(19)
C26 C25 C24 119.9(3)
C26 C25 H25 120.1
C24 C25 H25 120.1
C27 C26 C25 121.3(3)
C27 C26 H26 119.4
C25 C26 H26 119.4
C26 C27 C28 119.8(3)
C26 C27 H27 120.1
C28 C27 H27 120.1
C29 C28 C27 119.6(3)
C29 C28 H28 120.2
C27 C28 H28 120.2
C24 C29 C28 120.3(2)
C24 C29 H29 119.9
C28 C29 H29 119.9
C30 S2 C33 100.11(9)
C30 N3 C31 106.47(15)
C32 N4 C30 107.94(15)
C32 N4 C40 124.05(16)
C30 N4 C40 127.90(16)
N3 C30 N4 116.01(16)
N3 C30 S2 126.77(14)
N4 C30 S2 117.22(13)
N3 C31 C53 111.69(14)
N3 C31 C47 106.37(15)
C53 C31 C47 113.66(15)
N3 C31 C32 104.60(14)
C53 C31 C32 108.77(15)
C47 C31 C32 111.38(15)
O2 C32 N4 126.24(18)
O2 C32 C31 129.04(18)
N4 C32 C31 104.72(15)
C34 C33 S2 113.61(14)
C34 C33 H33A 108.8
S2 C33 H33A 108.8
C34 C33 H33B 108.8
S2 C33 H33B 108.8
H33A C33 H33B 107.7
C39 C34 C35 119.2(2)
C39 C34 C33 121.96(19)
C35 C34 C33 118.8(2)
C36 C35 C34 120.8(3)
C36 C35 H35 119.6
C34 C35 H35 119.6
C37 C36 C35 120.4(3)
C37 C36 H36 119.8
C35 C36 H36 119.8
C36 C37 C38 120.1(3)
C36 C37 H37 120.0
C38 C37 H37 120.0
C37 C38 C39 119.9(3)
C37 C38 H38 120.1
C39 C38 H38 120.1
C34 C39 C38 119.7(2)
C34 C39 H39 120.1
C38 C39 H39 120.1
N4 C40 C41 113.60(15)
N4 C40 H40A 108.8
C41 C40 H40A 108.8
N4 C40 H40B 108.8
C41 C40 H40B 108.8
H40A C40 H40B 107.7
C46 C41 C42 118.73(19)
C46 C41 C40 121.05(18)
C42 C41 C40 120.19(18)
C43 C42 C41 120.1(2)
C43 C42 H42 119.9
C41 C42 H42 119.9
C44 C43 C42 121.1(2)
C44 C43 H43 119.5
C42 C43 H43 119.5
C45 C44 C43 118.9(2)
C45 C44 H44 120.5
C43 C44 H44 120.5
C44 C45 C46 120.8(2)
C44 C45 H45 119.6
C46 C45 H45 119.6
C41 C46 C45 120.3(2)
C41 C46 H46 119.8
C45 C46 H46 119.8
C48 C47 C52 119.34(19)
C48 C47 C31 117.69(18)
C52 C47 C31 122.90(18)
C47 C48 C49 119.7(2)
C47 C48 H48 120.2
C49 C48 H48 120.2
C50 C49 C48 120.3(2)
C50 C49 H49 119.9
C48 C49 H49 119.9
C49 C50 C51 119.9(2)
C49 C50 H50 120.1
C51 C50 H50 120.1
C50 C51 C52 120.5(2)
C50 C51 H51 119.7
C52 C51 H51 119.7
C51 C52 C47 120.2(2)
C51 C52 H52 119.9
C47 C52 H52 119.9
C58 C53 C54 118.22(19)
C58 C53 C31 120.74(17)
C54 C53 C31 120.94(17)
C55 C54 C53 120.7(2)
C55 C54 H54 119.6
C53 C54 H54 119.6
C56 C55 C54 120.3(2)
C56 C55 H55 119.8
C54 C55 H55 119.8
C57 C56 C55 119.4(2)
C57 C56 H56 120.3
C55 C56 H56 120.3
C56 C57 C58 120.8(2)
C56 C57 H57 119.6
C58 C57 H57 119.6
C57 C58 C53 120.5(2)
C57 C58 H58 119.7
C53 C58 H58 119.7
loop_
_geom_bond_atom_site_label_1
_geom_bond_atom_site_label_2
_geom_bond_distance
S1 C1 1.7414(19)
S1 C4 1.811(2)
O1 C3 1.205(2)
N1 C1 1.272(2)
N1 C2 1.483(2)
N2 C3 1.375(2)
N2 C1 1.399(2)
N2 C11 1.462(2)
C2 C18 1.528(3)
C2 C3 1.539(3)
C2 C24 1.540(3)
C4 C5A 1.502(3)
C4 C5B 1.531(8)
C4 H4A 0.9700
C4 H4B 0.9700
C5A C6A 1.3900
C5A C10A 1.3900
C6A C7A 1.3900
C6A H6A 0.9300
C7A C8A 1.3900
C7A H7A 0.9300
C8A C9A 1.3900
C8A H8A 0.9300
C9A C10A 1.3900
C9A H9A 0.9300
C10A H10A 0.9300
C5B C6B 1.3900
C5B C10B 1.3900
C6B C7B 1.3900
C6B H6B 0.9300
C7B C8B 1.3900
C7B H7B 0.9300
C8B C9B 1.3900
C8B H8B 0.9300
C9B C10B 1.3900
C9B H9B 0.9300
C10B H10B 0.9300
C11 C12 1.508(3)
C11 H11A 0.9700
C11 H11B 0.9700
C12 C13 1.379(3)
C12 C17 1.379(3)
C13 C14 1.371(3)
C13 H13 0.9300
C14 C15 1.363(3)
C14 H14 0.9300
C15 C16 1.363(3)
C15 H15 0.9300
C16 C17 1.392(3)
C16 H16 0.9300
C17 H17 0.9300
C18 C19 1.377(3)
C18 C23 1.379(3)
C19 C20 1.382(3)
C19 H19 0.9300
C20 C21 1.366(3)
C20 H20 0.9300
C21 C22 1.351(3)
C21 H21 0.9300
C22 C23 1.384(3)
C22 H22 0.9300
C23 H23 0.9300
C24 C25 1.379(3)
C24 C29 1.381(3)
C25 C26 1.377(3)
C25 H25 0.9300
C26 C27 1.348(4)
C26 H26 0.9300
C27 C28 1.385(4)
C27 H27 0.9300
C28 C29 1.384(3)
C28 H28 0.9300
C29 H29 0.9300
S2 C30 1.7386(19)
S2 C33 1.813(2)
O2 C32 1.205(2)
N3 C30 1.273(2)
N3 C31 1.482(2)
N4 C32 1.380(2)
N4 C30 1.402(2)
N4 C40 1.460(2)
C31 C53 1.524(3)
C31 C47 1.535(3)
C31 C32 1.540(3)
C33 C34 1.495(3)
C33 H33A 0.9700
C33 H33B 0.9700
C34 C39 1.365(3)
C34 C35 1.381(3)
C35 C36 1.363(4)
C35 H35 0.9300
C36 C37 1.355(4)
C36 H36 0.9300
C37 C38 1.371(4)
C37 H37 0.9300
C38 C39 1.395(4)
C38 H38 0.9300
C39 H39 0.9300
C40 C41 1.511(3)
C40 H40A 0.9700
C40 H40B 0.9700
C41 C46 1.377(3)
C41 C42 1.385(3)
C42 C43 1.377(3)
C42 H42 0.9300
C43 C44 1.372(3)
C43 H43 0.9300
C44 C45 1.364(3)
C44 H44 0.9300
C45 C46 1.385(3)
C45 H45 0.9300
C46 H46 0.9300
C47 C48 1.376(3)
C47 C52 1.382(3)
C48 C49 1.398(3)
C48 H48 0.9300
C49 C50 1.365(4)
C49 H49 0.9300
C50 C51 1.366(4)
C50 H50 0.9300
C51 C52 1.378(3)
C51 H51 0.9300
C52 H52 0.9300
C53 C58 1.383(3)
C53 C54 1.385(3)
C54 C55 1.379(3)
C54 H54 0.9300
C55 C56 1.369(3)
C55 H55 0.9300
C56 C57 1.367(3)
C56 H56 0.9300
C57 C58 1.376(3)
C57 H57 0.9300
C58 H58 0.9300
loop_
_geom_hbond_atom_site_label_D
_geom_hbond_atom_site_label_H
_geom_hbond_atom_site_label_A
_geom_hbond_site_symmetry_A
_geom_hbond_distance_DH
_geom_hbond_distance_HA
_geom_hbond_distance_DA
_geom_hbond_angle_DHA
C11 H11A S2 2_566 0.97 2.95 3.591(2) 125
C4 H4B Cg8 2_666 0.97 2.97 3.693(2) 133
C11 H11B Cg9 2_566 0.97 2.83 3.524(2) 129
C22 H22 Cg8 2_556 0.93 2.77 3.554(3) 143
C35 H35 Cg5 . 0.93 2.77 3.697(3) 172
C40 H40A Cg3 2_666 0.97 2.81 3.556(2) 134
C55 H55 Cg2 2_656 0.93 2.84 3.725(3) 160
loop_
_geom_torsion_atom_site_label_1
_geom_torsion_atom_site_label_2
_geom_torsion_atom_site_label_3
_geom_torsion_atom_site_label_4
_geom_torsion
C2 N1 C1 N2 -0.7(2)
C2 N1 C1 S1 -178.81(14)
C3 N2 C1 N1 -2.0(2)
C11 N2 C1 N1 178.89(17)
C3 N2 C1 S1 176.27(13)
C11 N2 C1 S1 -2.8(2)
C4 S1 C1 N1 0.5(2)
C4 S1 C1 N2 -177.61(14)
C1 N1 C2 C18 119.89(17)
C1 N1 C2 C3 2.81(19)
C1 N1 C2 C24 -116.48(17)
C1 N2 C3 O1 -176.15(19)
C11 N2 C3 O1 3.0(3)
C1 N2 C3 C2 3.60(19)
C11 N2 C3 C2 -177.29(16)
N1 C2 C3 O1 175.8(2)
C18 C2 C3 O1 56.9(3)
C24 C2 C3 O1 -67.1(3)
N1 C2 C3 N2 -3.92(19)
C18 C2 C3 N2 -122.86(17)
C24 C2 C3 N2 113.14(17)
C1 S1 C4 C5A 72.3(2)
C1 S1 C4 C5B 68.6(5)
S1 C4 C5A C6A -121.1(2)
S1 C4 C5A C10A 60.5(4)
C10A C5A C6A C7A 0.0
C4 C5A C6A C7A -178.5(3)
C5A C6A C7A C8A 0.0
C6A C7A C8A C9A 0.0
C7A C8A C9A C10A 0.0
C8A C9A C10A C5A 0.0
C6A C5A C10A C9A 0.0
C4 C5A C10A C9A 178.3(4)
S1 C4 C5B C6B -96.4(7)
S1 C4 C5B C10B 80.7(7)
C10B C5B C6B C7B 0.0
C4 C5B C6B C7B 176.8(10)
C5B C6B C7B C8B 0.0
C6B C7B C8B C9B 0.0
C7B C8B C9B C10B 0.0
C8B C9B C10B C5B 0.0
C6B C5B C10B C9B 0.0
C4 C5B C10B C9B -177.5(8)
C3 N2 C11 C12 99.0(2)
C1 N2 C11 C12 -82.1(2)
N2 C11 C12 C13 -52.8(3)
N2 C11 C12 C17 128.9(2)
C17 C12 C13 C14 -0.7(3)
C11 C12 C13 C14 -179.06(19)
C12 C13 C14 C15 0.9(3)
C13 C14 C15 C16 -0.5(4)
C14 C15 C16 C17 -0.1(4)
C13 C12 C17 C16 0.1(3)
C11 C12 C17 C16 178.43(19)
C15 C16 C17 C12 0.3(3)
N1 C2 C18 C19 169.36(18)
C3 C2 C18 C19 -76.3(2)
C24 C2 C18 C19 47.7(2)
N1 C2 C18 C23 -12.6(3)
C3 C2 C18 C23 101.7(2)
C24 C2 C18 C23 -134.4(2)
C23 C18 C19 C20 1.1(3)
C2 C18 C19 C20 179.1(2)
C18 C19 C20 C21 -0.2(4)
C19 C20 C21 C22 -0.5(4)
C20 C21 C22 C23 0.1(4)
C19 C18 C23 C22 -1.4(3)
C2 C18 C23 C22 -179.4(2)
C21 C22 C23 C18 0.8(4)
N1 C2 C24 C25 143.97(18)
C18 C2 C24 C25 -92.7(2)
C3 C2 C24 C25 29.5(3)
N1 C2 C24 C29 -36.5(2)
C18 C2 C24 C29 86.8(2)
C3 C2 C24 C29 -150.99(19)
C29 C24 C25 C26 0.3(3)
C2 C24 C25 C26 179.80(19)
C24 C25 C26 C27 0.5(4)
C25 C26 C27 C28 -1.1(4)
C26 C27 C28 C29 0.8(4)
C25 C24 C29 C28 -0.5(3)
C2 C24 C29 C28 179.9(2)
C27 C28 C29 C24 0.0(4)
C31 N3 C30 N4 2.8(2)
C31 N3 C30 S2 -177.60(14)
C32 N4 C30 N3 0.5(2)
C40 N4 C30 N3 176.89(16)
C32 N4 C30 S2 -179.09(13)
C40 N4 C30 S2 -2.7(2)
C33 S2 C30 N3 -0.84(19)
C33 S2 C30 N4 178.71(13)
C30 N3 C31 C53 -122.17(16)
C30 N3 C31 C47 113.29(17)
C30 N3 C31 C32 -4.69(19)
C30 N4 C32 O2 176.50(18)
C40 N4 C32 O2 0.0(3)
C30 N4 C32 C31 -3.46(19)
C40 N4 C32 C31 179.99(15)
N3 C31 C32 O2 -175.02(19)
C53 C31 C32 O2 -55.6(3)
C47 C31 C32 O2 70.5(3)
N3 C31 C32 N4 4.94(19)
C53 C31 C32 N4 124.40(16)
C47 C31 C32 N4 -109.57(17)
C30 S2 C33 C34 -87.24(16)
S2 C33 C34 C39 101.1(2)
S2 C33 C34 C35 -77.9(2)
C39 C34 C35 C36 -1.0(3)
C33 C34 C35 C36 178.0(2)
C34 C35 C36 C37 0.9(4)
C35 C36 C37 C38 0.0(5)
C36 C37 C38 C39 -0.9(5)
C35 C34 C39 C38 0.1(3)
C33 C34 C39 C38 -178.9(2)
C37 C38 C39 C34 0.9(4)
C32 N4 C40 C41 -104.9(2)
C30 N4 C40 C41 79.3(2)
N4 C40 C41 C46 -124.3(2)
N4 C40 C41 C42 57.7(2)
C46 C41 C42 C43 0.4(3)
C40 C41 C42 C43 178.47(18)
C41 C42 C43 C44 -0.4(3)
C42 C43 C44 C45 -0.1(3)
C43 C44 C45 C46 0.5(3)
C42 C41 C46 C45 0.0(3)
C40 C41 C46 C45 -178.05(18)
C44 C45 C46 C41 -0.5(3)
N3 C31 C47 C48 53.6(2)
C53 C31 C47 C48 -69.7(2)
C32 C31 C47 C48 167.01(17)
N3 C31 C47 C52 -123.34(18)
C53 C31 C47 C52 113.3(2)
C32 C31 C47 C52 -9.9(2)
C52 C47 C48 C49 2.6(3)
C31 C47 C48 C49 -174.44(19)
C47 C48 C49 C50 -1.2(4)
C48 C49 C50 C51 -0.8(4)
C49 C50 C51 C52 1.5(4)
C50 C51 C52 C47 -0.1(3)
C48 C47 C52 C51 -2.0(3)
C31 C47 C52 C51 174.91(18)
N3 C31 C53 C58 -161.27(18)
C47 C31 C53 C58 -40.9(2)
C32 C31 C53 C58 83.8(2)
N3 C31 C53 C54 22.4(2)
C47 C31 C53 C54 142.79(18)
C32 C31 C53 C54 -92.5(2)
C58 C53 C54 C55 0.6(3)
C31 C53 C54 C55 177.0(2)
C53 C54 C55 C56 -0.5(4)
C54 C55 C56 C57 0.0(4)
C55 C56 C57 C58 0.4(4)
C56 C57 C58 C53 -0.3(4)
C54 C53 C58 C57 -0.2(3)
C31 C53 C58 C57 -176.6(2)

_cod_database_fobs_code 1545035
