#------------------------------------------------------------------------------
#$Date: 2017-03-05 09:39:16 +0200 (Sun, 05 Mar 2017) $
#$Revision: 193957 $
#$URL: file:///home/coder/svn-repositories/cod/cif/1/54/54/1545495.cif $
#------------------------------------------------------------------------------
#
# This file is available in the Crystallography Open Database (COD),
# http://www.crystallography.net/. The original data for this entry
# were provided by IUCr Journals, http://journals.iucr.org/.
#
# The file may be used within the scientific community so long as
# proper attribution is given to the journal article from which the
# data were obtained.
#
data_1545495
loop_
_publ_author_name
'Ellouz, Mohamed'
'Sebbar, Nada Kheira'
'Ouzidan, Younes'
'Essassi, El Mokhtar'
'Mague, Joel T.'
_publ_section_title
;
 4-Methyl-3,4-dihydro-2<i>H</i>-1,4-benzothiazin-3-one
;
_journal_coeditor_code           HB4112
_journal_issue                   2
_journal_name_full               IUCrData
_journal_page_first              x170097
_journal_paper_doi               10.1107/S2414314617000979
_journal_volume                  2
_journal_year                    2017
_chemical_formula_iupac          'C9 H9 N O S'
_chemical_formula_moiety         'C9 H9 N O S'
_chemical_formula_sum            'C9 H9 N O S'
_chemical_formula_weight         179.23
_chemical_name_systematic
;
4-Methyl-3,4-dihydro-2<i>H</i>-1,4-benzothiazin-3-one
;
_space_group_crystal_system      orthorhombic
_space_group_IT_number           61
_space_group_name_Hall           '-P 2ac 2ab'
_space_group_name_H-M_alt        'P b c a'
_symmetry_space_group_name_Hall  '-P 2ac 2ab'
_symmetry_space_group_name_H-M   'P b c a'
_atom_sites_solution_hydrogens   difmap
_atom_sites_solution_primary     direct
_atom_sites_solution_secondary   difmap
_audit_creation_method           SHELXL-2014/7
_cell_angle_alpha                90
_cell_angle_beta                 90
_cell_angle_gamma                90
_cell_formula_units_Z            8
_cell_length_a                   7.3148(6)
_cell_length_b                   8.4030(6)
_cell_length_c                   27.670(2)
_cell_measurement_reflns_used    9930
_cell_measurement_temperature    150(2)
_cell_measurement_theta_max      72.39
_cell_measurement_theta_min      3.19
_cell_volume                     1700.8(2)
_computing_cell_refinement
;
<i>SAINT</i> (Bruker, 2016)
;
_computing_data_collection
;
<i>APEX3</i> (Bruker, 2016)
;
_computing_data_reduction
;
<i>SAINT</i>  (Bruker, 2016)
;
_computing_molecular_graphics
;
<i>DIAMOND</i> (Brandenburg & Putz, 2012)
;
_computing_publication_material
;
<i>SHELXTL</i> (Sheldrick, 2008)
;
_computing_structure_refinement
;
<i>SHELXL2014</i> (Sheldrick, 2015<i>b</i>)
;
_computing_structure_solution
;
<i>SHELXT</i> (Sheldrick, 2015<i>a</i>)
;
_diffrn_ambient_temperature      150(2)
_diffrn_detector_area_resol_mean 10.4167
_diffrn_measured_fraction_theta_full 0.999
_diffrn_measured_fraction_theta_max 0.999
_diffrn_measurement_device_type  'Bruker D8 VENTURE PHOTON 100 CMOS'
_diffrn_measurement_method       '\w scans'
_diffrn_radiation_monochromator  mirror
_diffrn_radiation_type           CuK\a
_diffrn_radiation_wavelength     1.54178
_diffrn_reflns_av_R_equivalents  0.0402
_diffrn_reflns_limit_h_max       9
_diffrn_reflns_limit_h_min       -8
_diffrn_reflns_limit_k_max       10
_diffrn_reflns_limit_k_min       -10
_diffrn_reflns_limit_l_max       30
_diffrn_reflns_limit_l_min       -34
_diffrn_reflns_number            16139
_diffrn_reflns_theta_full        72.200
_diffrn_reflns_theta_max         72.220
_diffrn_reflns_theta_min         3.194
_exptl_absorpt_coefficient_mu    2.945
_exptl_absorpt_correction_T_max  0.88
_exptl_absorpt_correction_T_min  0.63
_exptl_absorpt_correction_type   multi-scan
_exptl_absorpt_process_details
;
(<i>SADABS</i>; Bruker, 2016)
;
_exptl_crystal_colour            colourless
_exptl_crystal_density_diffrn    1.400
_exptl_crystal_density_method    'not measured'
_exptl_crystal_description       plate
_exptl_crystal_F_000             752
_exptl_crystal_size_max          0.331
_exptl_crystal_size_mid          0.311
_exptl_crystal_size_min          0.043
_refine_diff_density_max         0.285
_refine_diff_density_min         -0.237
_refine_ls_extinction_coef       0.0029(3)
_refine_ls_extinction_expression Fc^*^=kFc[1+0.001xFc^2^\l^3^/sin(2\q)]^-1/4^
_refine_ls_extinction_method
;
<i>SHELXL2014</i> (Sheldrick, 2015<i>b</i>)
;
_refine_ls_goodness_of_fit_ref   1.042
_refine_ls_hydrogen_treatment    refall
_refine_ls_matrix_type           full
_refine_ls_number_parameters     146
_refine_ls_number_reflns         1674
_refine_ls_number_restraints     0
_refine_ls_restrained_S_all      1.042
_refine_ls_R_factor_all          0.0298
_refine_ls_R_factor_gt           0.0292
_refine_ls_shift/su_max          0.002
_refine_ls_shift/su_mean         0.000
_refine_ls_structure_factor_coef Fsqd
_refine_ls_weighting_details
'w=1/[\s^2^(Fo^2^)+(0.0383P)^2^+0.7672P] where P=(Fo^2^+2Fc^2^)/3'
_refine_ls_weighting_scheme      calc
_refine_ls_wR_factor_gt          0.0755
_refine_ls_wR_factor_ref         0.0761
_reflns_number_gt                1628
_reflns_number_total             1674
_reflns_threshold_expression     'I > 2\s(I)'
_cod_data_source_file            hb4112sup1.cif
_cod_data_source_block           I
_cod_database_code               1545495
_shelx_space_group_comment
;
The symmetry employed for this shelxl refinement is uniquely defined
by the following loop, which should always be used as a source of
symmetry information in preference to the above space-group names.
They are only intended as comments.
;
_shelx_estimated_absorpt_t_min   0.442
_shelx_estimated_absorpt_t_max   0.884
_shelx_hkl_file
;
  -1   0   0    0.04    0.01
   2   0   0   50.07    2.19
  -2   0   0   41.13    2.19
   3   0   0    2.68    0.15
   4   0   0    7.68    0.40
   5   0   0   -0.05    0.05
  -5   0   0   -0.02    0.04
   5   0   0    0.04    0.10
   6   0   0   14.53    0.75
  -6   0   0   15.83    0.76
   6   0   0   14.30    0.77
   7   0   0   -0.05    0.10
  -7   0   0    0.04    0.06
   7   0   0   -0.01    0.04
   8   0   0   44.43    2.24
  -8   0   0   47.58    2.25
  -8   0   0   46.71    2.24
   9   0   0   -0.01    0.02
   1   1   0    0.05    0.02
  -1   1   0    0.06    0.02
  -1  -1   0    0.07    0.02
  -2   1   0  192.08    9.42
   2   1   0  208.91    9.44
   2  -1   0  206.98    9.43
  -2  -1   0  176.65    9.40
   3  -1   0    0.30    0.05
  -3   1   0    0.08    0.05
   4   1   0  340.22   16.18
  -4  -1   0  336.39   16.17
   4  -1   0  332.12   16.16
   5  -1   0    0.00    0.05
   5   1   0    0.03    0.12
   5  -1   0    0.01    0.07
  -5  -1   0    0.08    0.04
   5   1   0    0.07    0.08
   5   1   0    0.05    0.06
   6  -1   0   80.84    3.79
  -6   1   0   84.14    3.80
   6  -1   0   72.13    3.80
  -6  -1   0   82.43    3.80
   6   1   0   72.42    3.80
   6   1   0   79.01    3.79
  -7  -1   0    0.09    0.06
   7   1   0    0.19    0.10
   7   1   0    0.02    0.04
  -7   1   0    0.02    0.05
   8   1   0   19.94    1.01
  -8   1   0   21.09    1.01
  -8  -1   0   21.29    1.02
  -8   1   0   20.01    1.00
   8   1   0   19.96    1.00
   8  -1   0   20.02    1.01
  -8  -1   0   20.45    1.00
   0   2   0   77.62    3.74
   1   2   0    0.03    0.02
  -1   2   0    0.08    0.03
  -1  -2   0    0.07    0.03
   2   2   0  135.01    6.39
   2  -2   0  145.49    6.38
  -2  -2   0  132.63    6.34
  -2   2   0  115.89    6.34
   3  -2   0    0.06    0.03
  -3  -2   0    0.05    0.03
   3  -2   0    0.00    0.03
   3   2   0    0.02    0.03
   4   2   0  115.13    5.47
  -4  -2   0  111.58    5.46
   4  -2   0  111.57    5.46
   4  -2   0  116.46    5.46
   5  -2   0   -0.08    0.07
  -5  -2   0    0.06    0.05
   5  -2   0   -0.02    0.05
   5   2   0   -0.02    0.10
   5   2   0    0.00    0.06
  -5  -2   0    0.01    0.05
   5   2   0    0.01    0.06
   6   2   0    7.06    0.39
   6  -2   0    7.07    0.38
  -6  -2   0    7.27    0.38
   6   2   0    7.79    0.40
  -6  -2   0    6.99    0.39
   6  -2   0    6.87    0.39
  -6   2   0    7.38    0.39
   7  -2   0    0.06    0.04
  -7  -2   0   -0.05    0.06
  -7  -2   0    0.06    0.05
   7   2   0    0.13    0.05
  -7   2   0    0.06    0.06
  -8  -2   0    4.61    0.26
  -8   2   0    3.96    0.26
  -8  -2   0    4.55    0.24
   8   2   0    4.54    0.24
   8   2   0    4.21    0.26
  -8   2   0    4.44    0.25
   8  -2   0    4.60    0.24
   0   3   0    0.00    0.02
   1  -3   0    0.03    0.04
   1   3   0    0.03    0.03
  -1  -3   0    0.04    0.03
   2  -3   0    6.93    0.36
  -2  -3   0    7.45    0.36
   2   3   0    6.90    0.36
   3   3   0    0.03    0.04
  -3  -3   0    0.08    0.04
   3  -3   0    0.01    0.04
   4  -3   0    8.15    0.41
   4   3   0    7.72    0.42
  -4  -3   0    8.16    0.41
  -4  -3   0    7.35    0.41
   5   3   0    0.48    0.17
   5  -3   0    0.43    0.11
   5   3   0    0.47    0.10
   6   3   0    7.73    0.40
   6   3   0    7.35    0.39
  -6  -3   0    7.19    0.40
  -6   3   0    6.91    0.39
  -6  -3   0    7.29    0.39
   6  -3   0    7.09    0.39
   6  -3   0    7.37    0.39
  -7   3   0   -0.03    0.08
  -7  -3   0    0.01    0.05
   7  -3   0    0.02    0.04
   7   3   0   -0.01    0.06
  -7  -3   0    0.09    0.04
   7   3   0    0.01    0.04
   8   3   0    1.78    0.14
  -8  -3   0    2.04    0.12
   8   3   0    1.94    0.12
  -8  -3   0    2.12    0.15
   8  -3   0    1.88    0.13
   0   4   0   37.71    1.67
   0  -4   0   30.84    1.67
  -1   4   0    0.15    0.05
   1  -4   0    0.14    0.05
  -1  -4   0    0.12    0.04
  -2   4   0    0.92    0.08
   2   4   0    0.71    0.08
  -2  -4   0    0.90    0.08
   2  -4   0    0.89    0.09
   3  -4   0    0.09    0.05
  -3  -4   0    0.04    0.04
   3   4   0    0.09    0.06
   4  -4   0   51.16    2.36
  -4  -4   0   46.66    2.36
   4   4   0   46.57    2.36
   4   4   0   50.72    2.38
   4  -4   0   46.96    2.36
  -4  -4   0   53.36    2.37
  -4  -4   0   46.42    2.36
   4  -4   0   46.42    2.36
  -4  -4   0   49.57    2.36
  -5  -4   0    0.18    0.09
   5  -4   0    0.08    0.06
  -5  -4   0   -0.02    0.05
  -5  -4   0    0.12    0.05
   5   4   0    0.04    0.05
   5  -4   0    0.06    0.07
   5   4   0   -0.03    0.06
  -6  -4   0   39.62    1.91
   6   4   0   39.10    1.91
  -6  -4   0   37.52    1.92
   6  -4   0   40.30    1.92
   6   4   0   39.47    1.92
  -7  -4   0    0.09    0.04
   7   4   0    0.03    0.04
   7  -4   0    0.04    0.05
  -7   4   0    0.05    0.12
   7   4   0    0.09    0.05
  -7  -4   0    0.04    0.05
   8   4   0    0.07    0.03
   8   4   0    0.07    0.05
   8  -4   0    0.16    0.05
  -8  -4   0    0.16    0.04
   0   5   0   -0.01    0.05
   0  -5   0   -0.05    0.06
  -2  -5   0    2.34    0.19
  -2   5   0    2.80    0.18
   2  -5   0    2.64    0.17
   2   5   0    2.61    0.18
  -2  -5   0    2.24    0.18
  -2  -5   0    2.83    0.17
  -2  -5   0    2.63    0.19
  -2  -5   0    2.44    0.18
   3   5   0    0.04    0.08
  -3  -5   0    0.02    0.06
  -3  -5   0    0.03    0.05
  -3  -5   0   -0.03    0.05
  -3  -5   0    0.18    0.08
  -3  -5   0    0.01    0.07
   3  -5   0    0.09    0.05
  -3  -5   0   -0.08    0.08
   3  -5   0    0.03    0.09
  -4  -5   0   51.32    2.20
  -4  -5   0   44.34    2.18
  -4  -5   0   45.63    2.18
   4  -5   0   46.15    2.18
  -4  -5   0   45.87    2.18
   4  -5   0   42.97    2.18
   4   5   0   43.22    2.18
   4  -5   0   39.38    2.19
   5  -5   0   -0.17    0.08
  -5  -5   0   -0.02    0.05
   5   5   0    0.02    0.07
  -5  -5   0   -0.07    0.07
  -5  -5   0    0.04    0.05
  -6  -5   0    1.82    0.12
   6  -5   0    1.69    0.17
  -6   5   0    1.53    0.16
   6   5   0    1.73    0.13
   6   5   0    1.64    0.14
  -6  -5   0    1.71    0.14
   7   5   0    0.06    0.04
  -7  -5   0    0.25    0.10
  -7  -5   0    0.07    0.04
   7   5   0    0.08    0.04
   7  -5   0    0.00    0.07
   0  -6   0   82.17    4.00
   0  -6   0   86.30    4.00
   0   6   0   88.42    4.02
   0  -6   0   82.35    4.01
   0  -6   0   74.81    4.01
   0  -6   0   85.08    4.01
   0  -6   0   81.39    4.00
  -1  -6   0    0.15    0.09
   1  -6   0    0.03    0.06
   1  -6   0    0.05    0.12
  -1  -6   0    0.06    0.07
   1  -6   0    0.02    0.11
   1   6   0    0.15    0.10
   1  -6   0    0.04    0.06
  -1  -6   0    0.17    0.09
  -1  -6   0    0.00    0.06
  -1  -6   0    0.13    0.08
   1  -6   0    0.07    0.06
  -1   6   0    0.17    0.10
  -2  -6   0    2.88    0.20
  -2  -6   0    3.18    0.20
  -2  -6   0    2.99    0.19
   2  -6   0    2.68    0.19
  -2  -6   0    3.03    0.20
  -2   6   0    2.57    0.25
   2   6   0    2.73    0.23
   2  -6   0    2.97    0.23
   2  -6   0    2.75    0.20
   2  -6   0    2.96    0.20
  -2  -6   0    3.12    0.20
   2  -6   0    2.78    0.22
  -2  -6   0    3.32    0.21
   3  -6   0    0.08    0.10
  -3  -6   0    0.03    0.05
  -3  -6   0    0.02    0.06
   3  -6   0    0.11    0.07
  -3  -6   0   -0.02    0.07
  -3  -6   0   -0.02    0.05
  -3  -6   0    0.03    0.06
   3  -6   0    0.02    0.09
  -4  -6   0    1.05    0.11
  -4  -6   0    0.76    0.10
  -4  -6   0    0.78    0.12
  -4  -6   0    1.07    0.10
  -4  -6   0    0.79    0.13
   4  -6   0    0.98    0.12
  -5  -6   0    0.03    0.06
   5   6   0    0.01    0.05
  -5  -6   0    0.03    0.05
  -5  -6   0    0.01    0.07
  -6  -6   0   14.51    0.73
  -6  -6   0   14.96    0.75
   6   6   0   14.58    0.74
   7   6   0    0.01    0.03
  -7  -6   0   -0.02    0.03
   0  -7   0    0.06    0.05
   0  -7   0    0.06    0.06
   0  -7   0   -0.03    0.05
   0  -7   0    0.31    0.11
   0  -7   0   -0.08    0.09
   0  -7   0    0.22    0.10
  -1  -7   0    0.03    0.08
  -1  -7   0    0.07    0.05
   1  -7   0    0.08    0.10
   1  -7   0    0.03    0.07
  -1  -7   0    0.02    0.08
   1  -7   0   -0.01    0.05
   1  -7   0    0.04    0.05
  -1  -7   0   -0.02    0.05
   1  -7   0    0.02    0.09
  -1  -7   0    0.09    0.09
  -1  -7   0    0.07    0.06
   1  -7   0   -0.12    0.10
   2  -7   0    1.99    0.17
   2  -7   0    2.28    0.15
   2  -7   0    2.11    0.18
  -2  -7   0    1.93    0.15
   2  -7   0    1.95    0.17
  -2  -7   0    1.99    0.15
  -2  -7   0    1.96    0.17
  -2  -7   0    1.75    0.18
  -2  -7   0    2.20    0.16
  -2  -7   0    1.92    0.14
   2  -7   0    2.00    0.15
  -3  -7   0    0.11    0.06
  -3  -7   0    0.04    0.05
   3  -7   0   -0.05    0.09
  -3  -7   0    0.02    0.05
   3  -7   0    0.11    0.09
   3  -7   0   -0.04    0.07
   3  -7   0    0.02    0.11
  -3  -7   0    0.12    0.09
  -4  -7   0   18.06    0.88
  -4  -7   0   18.00    0.87
  -4  -7   0   15.19    0.90
  -4  -7   0   18.97    0.89
  -4  -7   0   18.36    0.88
   5   7   0   -0.01    0.04
  -5  -7   0   -0.05    0.09
  -5  -7   0    0.02    0.04
  -5  -7   0    0.02    0.04
  -6  -7   0    6.49    0.33
   6   7   0    6.24    0.33
   0  -8   0   27.91    1.42
   0  -8   0   29.13    1.41
   0  -8   0   29.79    1.41
   0  -8   0   27.37    1.41
   0  -8   0   29.97    1.41
   0  -8   0   27.97    1.42
   1  -8   0    0.00    0.09
   1  -8   0   -0.08    0.04
  -1  -8   0   -0.02    0.04
  -1  -8   0    0.03    0.04
  -1  -8   0    0.19    0.10
  -1  -8   0   -0.02    0.05
   1  -8   0    0.16    0.15
   1  -8   0   -0.01    0.06
  -1  -8   0   -0.06    0.08
  -1  -8   0    0.08    0.08
   1  -8   0    0.03    0.05
  -2  -8   0   35.27    1.68
   2  -8   0   33.94    1.67
   2  -8   0   36.65    1.67
  -2  -8   0   31.15    1.70
  -2  -8   0   34.78    1.67
  -2  -8   0   34.08    1.67
   2  -8   0   34.99    1.67
  -2  -8   0   33.59    1.69
  -3  -8   0    0.06    0.11
  -3  -8   0    0.03    0.04
  -3  -8   0    0.05    0.04
  -3  -8   0   -0.03    0.04
   3  -8   0   -0.01    0.08
  -3  -8   0    0.00    0.06
  -4  -8   0    0.04    0.04
  -4  -8   0    0.07    0.05
  -4  -8   0    0.01    0.12
  -4  -8   0    0.03    0.03
  -4  -8   0    0.00    0.05
  -5  -8   0    0.01    0.04
   5   8   0    0.01    0.03
  -5  -8   0    0.08    0.04
   0  -9   0    0.01    0.04
   0  -9   0   -0.07    0.07
   0  -9   0   -0.01    0.04
   0  -9   0   -0.01    0.03
   1  -9   0   -0.03    0.03
  -1  -9   0    0.03    0.07
   1  -9   0    0.04    0.04
  -1  -9   0    0.03    0.03
   1  -9   0   -0.02    0.04
  -1  -9   0    0.02    0.03
  -1  -9   0    0.05    0.03
   1  -9   0   -0.04    0.07
   2  -9   0    1.70    0.11
   2  -9   0    1.74    0.12
   2  -9   0    1.54    0.13
  -2  -9   0    1.72    0.13
  -2  -9   0    1.75    0.11
  -2  -9   0    1.69    0.11
  -2  -9   0    1.57    0.11
  -3  -9   0    0.00    0.03
  -3  -9   0    0.02    0.03
  -3  -9   0    0.02    0.03
  -3  -9   0    0.03    0.05
  -4  -9   0   15.41    0.86
   4   9   0   18.52    0.85
  -4  -9   0   18.45    0.85
   0 -10   0   19.73    0.98
   0 -10   0   20.85    0.98
   0 -10   0   19.94    0.98
   1 -10   0    0.00    0.03
  -1 -10   0    0.05    0.03
   1 -10   0   -0.02    0.04
  -1 -10   0    0.02    0.03
  -1 -10   0   -0.01    0.02
   1 -10   0   -0.04    0.04
  -2 -10   0    5.45    0.27
  -2 -10   0    5.37    0.27
  -2 -10   0    5.09    0.27
   1   0   1    0.05    0.01
  -1   0  -1    0.05    0.01
   2   0  -1    0.01    0.02
   2   0   1    0.02    0.01
  -2   0  -1    0.01    0.02
  -2   0   1    0.06    0.02
   3   0  -1    0.02    0.03
   3   0   1    0.03    0.02
  -3   0  -1    0.09    0.05
   4   0  -1   -0.06    0.06
   4   0   1    0.04    0.05
  -4   0   1    0.01    0.03
   5   0  -1    0.13    0.05
   5   0  -1    0.15    0.11
  -5   0   1    0.03    0.04
   5   0  -1   -0.12    0.09
   6   0  -1    0.14    0.10
   6   0   1    0.00    0.04
   6   0  -1    0.01    0.05
   6   0   1    0.24    0.12
  -6   0  -1   -0.01    0.05
  -6   0   1   -0.05    0.04
   7   0  -1    0.01    0.10
  -7   0   1    0.12    0.05
  -7   0  -1   -0.01    0.05
  -7   0   1   -0.06    0.05
   7   0  -1   -0.02    0.04
   7   0   1    0.14    0.11
   7   0   1    0.06    0.04
  -8   0  -1    0.00    0.06
   8   0  -1    0.02    0.03
   8   0   1    0.03    0.03
  -8   0  -1    0.01    0.04
  -8   0   1   -0.03    0.07
  -8   0   1    0.01    0.05
   9   0   1    0.02    0.02
   9   0  -1    0.04    0.02
   0  -1   1    0.01    0.01
   0   1  -1    0.05    0.01
   0   1   1    0.01    0.01
  -1  -1  -1  514.14   23.46
  -1   1   1  444.29   23.44
  -1  -1   1  483.36   23.45
   1  -1  -1  514.33   23.44
  -2  -1  -1    5.52    0.27
  -2   1   1    4.98    0.27
   2  -1   1    5.49    0.26
  -2   1  -1    5.26    0.26
   2   1   1    5.46    0.27
   2  -1  -1    5.79    0.27
  -2  -1   1    4.62    0.27
   3  -1   1    1.18    0.08
  -3  -1  -1    1.13    0.08
   3  -1   1    1.25    0.07
   3   1  -1    1.08    0.08
  -3  -1   1    1.07    0.08
  -3   1  -1    1.00    0.08
   3  -1  -1    1.27    0.08
   3   1   1    1.14    0.08
   4  -1   1    0.09    0.04
  -4  -1  -1    0.07    0.04
   4   1  -1    0.02    0.04
   4  -1  -1    0.16    0.07
   4   1   1    0.16    0.06
  -4  -1   1    0.14    0.05
   5  -1   1    2.59    0.18
  -5  -1  -1    2.94    0.17
   5   1  -1    2.47    0.19
   5  -1   1    2.74    0.18
  -5   1   1    2.75    0.17
   5   1  -1    2.66    0.18
   5   1  -1    2.61    0.23
   5   1   1    2.81    0.20
   5  -1  -1    2.52    0.18
  -5  -1   1    2.81    0.16
   5   1   1    2.58    0.19
   5  -1  -1    2.56    0.19
   5  -1  -1    2.08    0.26
  -6   1   1    8.45    0.43
  -6  -1  -1    8.66    0.43
   6   1  -1    7.84    0.43
   6  -1   1    8.05    0.43
   6   1  -1    7.68    0.44
   6  -1  -1    7.65    0.43
  -6   1  -1    8.62    0.43
   6   1   1    7.84    0.43
   6  -1  -1    7.04    0.46
  -6  -1   1    8.63    0.43
   6   1   1    7.85    0.44
  -7   1   1    7.54    0.44
  -7  -1  -1    7.92    0.44
   7   1  -1    8.38    0.46
   7  -1   1    8.46    0.44
  -7  -1  -1    8.59    0.43
   7   1  -1    8.44    0.44
   7   1   1    8.00    0.46
   7  -1  -1    8.72    0.44
  -7  -1   1    8.75    0.43
  -7  -1   1    7.73    0.44
  -7   1  -1    7.93    0.44
   7   1   1    8.45    0.44
   8   1  -1    3.36    0.22
  -8   1   1    3.62    0.20
  -8  -1  -1    3.73    0.20
  -8  -1  -1    3.75    0.22
   8   1  -1    3.47    0.20
  -8   1   1    3.59    0.22
   8  -1   1    3.60    0.21
  -8  -1   1    3.63    0.20
   8   1   1    3.53    0.21
  -8  -1   1    3.76    0.22
   8  -1  -1    3.50    0.20
  -8   1  -1    3.51    0.22
  -8   1  -1    3.54    0.20
   0   2   1   16.42    0.84
   0   2  -1   18.28    0.84
  -1   2   1  106.33    5.14
   1   2  -1  102.43    5.16
   1  -2  -1  115.48    5.17
  -1  -2   1  102.51    5.14
  -1   2  -1  108.38    5.15
   2  -2   1   26.44    1.31
   2   2  -1   27.06    1.31
  -2  -2  -1   28.17    1.31
   2  -2   1   30.56    1.31
  -2   2   1   25.46    1.32
   2   2   1   26.42    1.31
  -2   2  -1   25.40    1.31
  -2  -2   1   25.70    1.31
   2  -2  -1   28.44    1.31
  -3  -2  -1  140.61    6.78
   3  -2   1  147.15    6.78
   3  -2   1  150.90    6.79
   3   2  -1  138.75    6.82
   3  -2  -1  140.29    6.78
  -3  -2   1  142.66    6.78
   3  -2  -1  141.60    6.78
   3   2   1  140.43    6.80
  -3   2  -1  130.35    6.78
   4  -2   1    0.20    0.06
   4   2  -1    0.06    0.05
   4  -2   1   -0.04    0.05
  -4  -2  -1    0.06    0.04
   4  -2  -1    0.05    0.05
   4   2   1    0.17    0.07
  -4  -2   1    0.17    0.05
   5   2  -1    0.15    0.07
  -5  -2  -1    0.26    0.07
   5  -2   1    0.33    0.10
   5  -2   1    0.14    0.05
   5   2  -1    0.10    0.10
   5  -2  -1    0.13    0.05
   5   2   1    0.27    0.07
  -5  -2   1    0.15    0.06
  -5  -2   1    0.29    0.06
   5   2   1    0.19    0.07
   5   2   1    0.40    0.12
   6   2  -1    2.94    0.19
  -6  -2  -1    3.11    0.18
   6   2  -1    3.08    0.20
   6  -2   1    2.75    0.19
  -6  -2  -1    2.89    0.19
  -6   2   1    2.87    0.19
   6  -2   1    2.79    0.19
   6   2   1    3.20    0.20
   6   2   1    2.83    0.19
   6  -2  -1    2.85    0.19
  -6   2  -1    2.80    0.19
  -6  -2   1    2.91    0.18
  -6  -2   1    2.56    0.18
  -7  -2  -1    1.10    0.11
   7   2  -1    1.12    0.10
   7  -2   1    1.30    0.11
  -7   2   1    0.99    0.11
  -7  -2  -1    1.29    0.10
   7   2  -1    1.19    0.13
  -7  -2   1    1.18    0.10
   7   2   1    1.21    0.14
   7  -2  -1    1.10    0.11
  -7  -2   1    1.05    0.11
  -7   2  -1    1.10    0.12
   7   2   1    1.10    0.11
   8   2  -1    1.38    0.10
  -8  -2  -1    1.60    0.13
   8   2  -1    1.36    0.13
   8  -2   1    1.54    0.11
  -8   2   1    1.28    0.16
  -8  -2  -1    1.41    0.10
   8   2   1    1.37    0.14
  -8  -2   1    1.45    0.13
  -8  -2   1    1.36    0.10
   8  -2  -1    1.32    0.10
  -8   2  -1    1.30    0.11
  -8   2  -1    1.38    0.14
   8   2   1    1.43    0.10
   0  -3   1    0.00    0.04
   1   3  -1   60.56    3.16
  -1  -3  -1   71.95    3.16
   1  -3   1   60.37    3.16
  -1   3  -1   65.90    3.16
  -1  -3   1   70.95    3.16
   1   3   1   64.45    3.16
  -2  -3  -1    5.60    0.29
   2   3  -1    5.26    0.29
   2  -3   1    5.60    0.29
  -2  -3   1    5.72    0.29
   2  -3  -1    5.69    0.29
   2   3   1    5.50    0.29
  -3  -3  -1   11.05    0.53
   3  -3   1   10.49    0.53
   3   3  -1   10.00    0.53
   3   3   1   10.13    0.53
   3  -3  -1   10.67    0.53
  -3  -3   1   10.64    0.53
   4  -3   1   25.43    1.22
  -4  -3  -1   24.07    1.22
   4   3  -1   24.56    1.23
  -4  -3  -1   26.48    1.22
  -4  -3   1   22.56    1.22
  -4  -3   1   25.91    1.22
   4   3   1   24.51    1.23
   4  -3  -1   25.52    1.22
  -5  -3  -1  131.34    6.36
   5   3  -1  129.68    6.36
   5  -3   1  133.24    6.35
   5   3  -1  135.35    6.38
   5   3  -1  130.65    6.36
  -5  -3  -1  142.35    6.37
   5  -3   1  134.38    6.36
   5   3   1  131.81    6.36
   5   3   1  130.38    6.36
   5   3   1  134.30    6.38
   5  -3  -1  126.90    6.35
   5  -3  -1  128.78    6.36
  -5  -3   1  133.20    6.36
  -5  -3   1  128.74    6.35
  -6  -3  -1    4.37    0.26
   6   3  -1    4.25    0.26
   6  -3   1    4.61    0.26
  -6  -3  -1    4.24    0.25
   6  -3   1    4.32    0.26
   6   3  -1    4.83    0.26
  -6   3   1    4.27    0.26
   6  -3  -1    4.46    0.26
  -6  -3   1    4.41    0.25
   6   3   1    4.28    0.26
   6  -3  -1    3.88    0.26
  -6  -3   1    4.30    0.26
   6   3   1    4.83    0.27
  -7  -3  -1   12.51    0.68
   7  -3   1   13.96    0.67
  -7  -3  -1   13.55    0.67
   7   3  -1   13.90    0.68
  -7   3   1   12.19    0.67
   7   3  -1   13.12    0.67
   7   3   1   13.82    0.68
   7   3   1   13.25    0.67
  -7   3  -1   12.73    0.68
  -7  -3   1   13.78    0.67
  -7  -3   1   12.20    0.67
   7  -3  -1   13.84    0.67
  -8  -3  -1   14.23    0.68
   8  -3   1   13.32    0.68
  -8  -3  -1   14.77    0.70
   8   3  -1   12.41    0.69
   8   3  -1   13.92    0.68
   8   3   1   12.84    0.69
   8   3   1   13.62    0.68
  -8  -3   1   13.77    0.68
  -8  -3   1   13.98    0.69
   8  -3  -1   14.30    0.68
   0   4   1    1.28    0.09
   0  -4   1    1.24    0.11
   0  -4  -1    1.00    0.11
   0   4  -1    1.41    0.09
  -1  -4  -1  137.54    6.26
   1   4  -1  132.24    6.27
  -1   4   1  133.59    6.27
   1  -4   1  120.16    6.26
   1   4   1  120.58    6.26
   1  -4  -1  132.79    6.26
  -1   4  -1  128.77    6.26
  -1  -4   1  137.39    6.26
   2  -4   1   30.99    1.44
   2   4  -1   27.38    1.44
  -2  -4   1   30.60    1.44
   2   4   1   29.38    1.45
  -2   4  -1   31.39    1.44
   2  -4  -1   27.50    1.44
   3   4  -1   67.03    3.43
   3  -4   1   70.92    3.42
  -3  -4  -1   73.81    3.43
  -3   4  -1   78.05    3.43
   3   4   1   64.59    3.43
   3  -4  -1   71.55    3.42
  -3  -4   1   70.67    3.42
   4   4  -1   33.22    1.65
  -4  -4  -1   34.77    1.63
  -4  -4  -1   37.86    1.65
   4   4  -1   31.21    1.64
   4  -4   1   36.18    1.64
  -4  -4  -1   31.13    1.64
  -4  -4  -1   31.13    1.63
   4  -4   1   32.65    1.64
   4  -4   1   32.94    1.63
  -4  -4   1   36.53    1.64
  -4  -4   1   31.03    1.63
  -4  -4   1   33.71    1.63
   4   4   1   31.75    1.64
   4   4   1   34.11    1.65
   4  -4  -1   33.48    1.64
   4  -4  -1   36.30    1.64
  -4  -4   1   31.06    1.63
   5   4  -1   27.73    1.33
   5  -4   1   28.27    1.32
  -5  -4  -1   26.08    1.33
  -5  -4  -1   28.19    1.33
   5   4  -1   27.97    1.33
  -5  -4  -1   26.71    1.32
   5  -4   1   23.54    1.33
  -5  -4   1   25.63    1.33
   5  -4  -1   28.47    1.33
  -5  -4   1   26.71    1.32
  -6  -4  -1    1.87    0.15
   6   4  -1    1.79    0.15
  -6   4   1    1.86    0.16
   6   4  -1    1.97    0.14
   6  -4   1    1.84    0.15
  -6  -4  -1    1.91    0.13
   6  -4   1    1.70    0.15
  -6  -4   1    1.93    0.13
  -6  -4   1    1.84    0.14
   6  -4  -1    1.77    0.15
   6   4   1    1.67    0.14
   6   4   1    2.00    0.15
   7   4  -1    0.24    0.07
  -7  -4  -1    0.16    0.05
   7  -4   1    0.20    0.06
  -7  -4  -1    0.13    0.06
   7   4  -1    0.14    0.04
   7   4   1    0.24    0.08
  -7  -4   1    0.15    0.06
  -7  -4   1    0.19    0.05
   7  -4  -1    0.18    0.05
  -7   4  -1    0.47    0.13
   7   4   1    0.35    0.07
  -8  -4  -1    0.35    0.05
   8   4  -1    0.36    0.08
   8   4  -1    0.34    0.06
   8  -4   1    0.45    0.09
   8   4   1    0.38    0.09
   8   4   1    0.39    0.06
   8  -4  -1    0.42    0.08
  -8  -4   1    0.39    0.05
   0   5  -1   -0.06    0.05
   0  -5  -1   -0.01    0.06
   0   5   1    0.11    0.05
   0  -5   1   -0.02    0.06
  -1   5   1   11.13    0.55
   1   5  -1   10.21    0.55
   1  -5   1   10.52    0.54
  -1  -5  -1   10.00    0.55
  -1  -5   1   10.84    0.55
   1   5   1   10.19    0.55
  -1   5  -1   11.31    0.55
   1  -5  -1   10.42    0.54
  -2  -5  -1   11.28    0.55
  -2  -5  -1    9.69    0.54
  -2  -5  -1   10.29    0.55
  -2  -5  -1   10.28    0.54
   2   5  -1   10.66    0.55
  -2  -5  -1    9.90    0.55
  -2   5   1   11.27    0.55
   2  -5   1   10.96    0.54
  -2  -5   1    9.87    0.54
  -2  -5   1    9.92    0.55
   2   5   1   10.24    0.55
  -2   5  -1   11.19    0.55
   2  -5  -1   11.29    0.54
  -2  -5   1   10.00    0.54
  -2  -5   1   10.30    0.54
  -2  -5   1   11.44    0.55
  -3  -5  -1    9.43    0.52
  -3   5   1    9.89    0.54
  -3  -5  -1    9.43    0.52
   3   5  -1   10.12    0.53
   3  -5   1    9.43    0.52
  -3  -5  -1    9.76    0.51
  -3  -5  -1    9.39    0.51
   3  -5   1   10.63    0.52
  -3  -5  -1   10.71    0.52
  -3  -5  -1    9.61    0.52
  -3  -5   1   10.99    0.52
  -3  -5   1    9.86    0.52
  -3  -5   1    9.55    0.51
  -3  -5   1    9.54    0.52
   3  -5  -1   10.37    0.51
  -3  -5   1    9.88    0.51
   3   5   1    9.53    0.53
  -4  -5  -1   15.51    0.72
   4  -5   1   13.45    0.71
  -4  -5  -1   14.26    0.71
   4  -5   1   14.78    0.71
  -4  -5  -1   13.18    0.71
  -4  -5  -1   14.15    0.71
   4  -5  -1   14.36    0.71
  -4  -5   1   15.01    0.72
  -4  -5   1   13.63    0.71
  -4  -5   1   13.57    0.71
  -4  -5   1   13.63    0.70
   4  -5  -1   13.50    0.73
   4   5   1   13.13    0.71
  -5  -5  -1    0.19    0.07
   5  -5   1    0.24    0.10
   5  -5   1    0.29    0.08
   5   5  -1    0.06    0.05
  -5  -5  -1    0.08    0.15
  -5  -5  -1    0.13    0.05
  -5  -5  -1    0.18    0.07
   5   5  -1    0.19    0.08
   5   5   1    0.13    0.07
  -5  -5   1    0.39    0.12
  -5  -5   1    0.09    0.05
   5  -5  -1    0.02    0.08
  -5  -5   1    0.07    0.05
   6  -5   1   24.54    1.35
   6   5  -1   28.40    1.35
  -6  -5  -1   28.85    1.35
   6   5  -1   26.87    1.34
  -6  -5  -1   25.86    1.36
   6  -5  -1   27.59    1.35
   6   5   1   27.55    1.34
  -6  -5   1   26.26    1.35
  -6  -5   1   28.60    1.34
   6   5   1   29.14    1.35
  -7  -5  -1   25.56    1.20
   7   5  -1   23.20    1.19
  -7  -5  -1   25.37    1.22
   7  -5   1   23.80    1.20
   7   5  -1   26.10    1.21
  -7  -5   1   26.30    1.22
   7  -5  -1   22.34    1.20
   7   5   1   24.25    1.20
  -7  -5   1   24.98    1.20
   7   5   1   23.99    1.21
   0  -6  -1  104.17    4.85
   0  -6  -1  101.50    4.84
   0  -6   1   96.91    4.84
   0   6   1  102.28    4.86
   0  -6   1  105.67    4.84
   0  -6   1  106.73    4.84
   0  -6   1   91.30    4.85
   0  -6  -1  100.88    4.84
   0   6  -1  111.09    4.86
   0  -6  -1   92.71    4.84
   0  -6  -1   96.65    4.83
   0  -6   1   94.64    4.84
   1  -6   1    0.42    0.13
  -1   6   1    0.07    0.10
  -1  -6  -1    0.03    0.06
   1  -6   1    0.22    0.07
  -1  -6  -1    0.21    0.07
  -1  -6  -1    0.12    0.06
   1  -6   1    0.27    0.09
   1  -6   1    0.25    0.06
   1  -6   1    0.21    0.11
  -1  -6  -1    0.30    0.09
  -1  -6  -1    0.27    0.09
   1   6  -1    0.11    0.09
  -1  -6   1    0.31    0.09
   1  -6  -1    0.24    0.09
   1  -6  -1    0.39    0.12
  -1  -6   1    0.16    0.06
  -1  -6   1    0.23    0.07
   1  -6  -1    0.16    0.07
  -1  -6   1    0.12    0.06
  -1  -6   1    0.15    0.10
  -1   6  -1    0.21    0.11
   1   6   1    0.20    0.10
   1  -6  -1    0.39    0.10
   1  -6  -1    0.29    0.11
   1  -6  -1    0.39    0.12
  -1  -6   1    0.09    0.07
  -2  -6  -1   10.57    0.59
  -2  -6  -1   11.69    0.58
   2  -6   1   10.77    0.57
  -2  -6  -1   11.14    0.57
   2  -6   1   10.39    0.58
  -2  -6  -1   11.18    0.57
   2   6  -1   10.10    0.60
  -2  -6  -1   11.69    0.58
   2  -6   1   11.34    0.59
  -2  -6  -1   11.23    0.58
   2  -6   1   11.13    0.57
   2  -6   1   12.54    0.58
  -2  -6   1   11.16    0.57
   2  -6  -1   10.41    0.57
  -2  -6   1   11.10    0.57
   2  -6  -1   11.28    0.59
   2  -6  -1   10.90    0.58
  -2  -6   1   11.60    0.57
  -2  -6   1   11.73    0.59
  -2   6  -1    9.89    0.66
  -2  -6   1   10.92    0.58
   2   6   1   10.63    0.60
  -2  -6   1   11.96    0.58
   2  -6  -1   12.14    0.58
   2  -6  -1   10.87    0.57
   3  -6   1    4.55    0.25
   3  -6   1    4.24    0.25
  -3  -6  -1    3.33    0.23
  -3  -6  -1    3.49    0.24
  -3  -6  -1    4.19    0.24
   3  -6   1    3.94    0.25
  -3  -6  -1    4.19    0.26
  -3  -6  -1    3.85    0.24
  -3  -6  -1    4.22    0.25
  -3  -6   1    4.51    0.26
  -3  -6   1    3.92    0.24
  -3  -6   1    4.31    0.24
  -3  -6   1    3.58    0.24
   3  -6  -1    3.91    0.25
  -4  -6  -1    5.47    0.29
  -4  -6  -1    5.43    0.29
  -4  -6  -1    4.96    0.29
   4  -6   1    5.19    0.29
  -4  -6  -1    5.05    0.31
   4  -6   1    4.82    0.29
  -4  -6  -1    5.01    0.29
  -4  -6   1    4.93    0.29
  -4  -6   1    5.28    0.29
  -4  -6   1    5.14    0.30
  -4  -6   1    5.28    0.29
  -4  -6   1    4.92    0.29
   5   6  -1   11.06    0.55
  -5  -6  -1   11.08    0.55
  -5  -6  -1   10.73    0.54
  -5  -6  -1    9.84    0.56
   5   6   1   10.29    0.55
  -5  -6   1   10.26    0.56
  -5  -6   1   10.99    0.54
  -5  -6   1   10.43    0.54
   6   6  -1    0.19    0.06
  -6  -6  -1    0.25    0.06
  -6  -6  -1    0.15    0.08
  -6  -6   1    0.26    0.06
  -6  -6   1    0.15    0.08
   6   6   1    0.20    0.06
   7   6  -1    0.18    0.05
  -7  -6  -1    0.24    0.05
  -7  -6   1    0.18    0.05
   7   6   1    0.09    0.04
   0  -7  -1    0.04    0.07
   0  -7  -1    0.21    0.10
   0  -7  -1   -0.02    0.06
   0  -7   1    0.03    0.05
   0  -7   1   -0.03    0.10
   0  -7   1    0.44    0.13
   0  -7   1    0.05    0.05
   0  -7  -1    0.04    0.05
   0  -7  -1   -0.08    0.08
   0  -7  -1    0.11    0.06
   0  -7   1    0.05    0.06
   1  -7   1    1.00    0.16
  -1  -7  -1    1.00    0.10
   1  -7   1    0.89    0.13
   1  -7   1    1.37    0.12
  -1  -7  -1    1.33    0.12
   1  -7   1    1.38    0.13
  -1  -7  -1    0.90    0.15
   1  -7   1    1.20    0.11
  -1  -7  -1    0.96    0.15
  -1  -7  -1    1.15    0.12
  -1  -7  -1    1.14    0.14
  -1  -7   1    1.01    0.10
  -1  -7   1    1.19    0.14
   1  -7  -1    1.01    0.16
  -1  -7   1    0.84    0.14
   1  -7  -1    1.38    0.14
  -1  -7   1    1.20    0.11
   1  -7  -1    1.32    0.13
   1  -7  -1    1.36    0.11
   1  -7  -1    1.02    0.16
  -1  -7   1    1.19    0.12
  -1  -7   1    1.11    0.15
   1  -7  -1    1.25    0.12
  -2  -7  -1    5.84    0.32
   2  -7   1    5.73    0.33
  -2  -7  -1    5.77    0.32
   2  -7   1    5.86    0.33
   2  -7   1    5.86    0.32
  -2  -7  -1    5.74    0.32
   2  -7   1    6.00    0.34
  -2  -7  -1    5.88    0.33
  -2  -7  -1    5.26    0.35
   2  -7   1    6.03    0.32
  -2  -7  -1    5.94    0.33
  -2  -7   1    6.16    0.33
   2  -7  -1    5.58    0.33
  -2  -7   1    5.14    0.35
   2  -7  -1    5.91    0.33
   2  -7  -1    5.58    0.32
  -2  -7   1    5.71    0.32
   2  -7  -1    5.99    0.32
  -2  -7   1    6.03    0.32
  -2  -7   1    6.02    0.33
  -2  -7   1    5.89    0.32
  -3  -7  -1    4.62    0.26
   3  -7   1    4.51    0.27
   3  -7   1    4.84    0.27
  -3  -7  -1    4.80    0.27
  -3  -7  -1    4.57    0.26
  -3  -7  -1    4.76    0.27
   3  -7   1    4.46    0.28
  -3  -7  -1    3.92    0.29
  -3  -7   1    5.01    0.27
  -3  -7   1    4.46    0.26
  -3  -7   1    4.51    0.30
  -3  -7   1    4.54    0.26
  -3  -7   1    4.67    0.26
  -4  -7  -1    3.86    0.22
  -4  -7  -1    3.51    0.21
  -4  -7  -1    3.20    0.25
  -4  -7  -1    3.54    0.21
  -4  -7  -1    3.67    0.22
  -4  -7   1    3.44    0.24
  -4  -7   1    3.59    0.21
  -4  -7   1    3.62    0.22
  -4  -7   1    3.84    0.22
  -4  -7   1    3.67    0.21
  -5  -7  -1    1.35    0.11
   5   7  -1    1.40    0.10
  -5  -7  -1    1.15    0.15
  -5  -7  -1    1.13    0.10
  -5  -7   1    1.33    0.10
   5   7   1    1.30    0.10
  -5  -7   1    1.29    0.10
  -5  -7   1    1.44    0.15
   6   7  -1   13.23    0.67
  -6  -7  -1   13.36    0.67
   6   7   1   13.45    0.67
  -6  -7   1   14.16    0.67
   0  -8  -1    0.58    0.13
   0  -8   1    0.65    0.09
   0  -8   1    0.75    0.09
   0  -8  -1    0.66    0.09
   0  -8   1    0.59    0.13
   0  -8   1    0.71    0.10
   0  -8   1    0.88    0.14
   0  -8  -1    0.95    0.14
   0  -8  -1    0.86    0.11
   0  -8   1    0.99    0.14
   0  -8  -1    0.69    0.09
  -1  -8  -1    5.45    0.33
  -1  -8  -1    5.40    0.33
   1  -8   1    5.04    0.33
   1  -8   1    5.51    0.32
  -1  -8  -1    5.80    0.31
  -1  -8  -1    5.64    0.30
  -1  -8  -1    5.45    0.30
  -1  -8  -1    5.38    0.32
   1  -8   1    5.68    0.31
   1  -8   1    5.68    0.30
   1  -8   1    6.03    0.30
  -1  -8   1    5.25    0.33
  -1  -8   1    5.11    0.32
  -1  -8   1    5.69    0.30
   1  -8  -1    5.64    0.31
  -1  -8   1    5.61    0.32
  -1  -8   1    5.41    0.30
  -1  -8   1    5.52    0.31
   1  -8  -1    5.60    0.32
   1  -8  -1    5.57    0.30
   1  -8  -1    5.84    0.30
   2  -8   1    2.50    0.18
  -2  -8  -1    2.59    0.17
  -2  -8  -1    2.62    0.16
  -2  -8  -1    2.75    0.19
   2  -8   1    2.58    0.17
  -2  -8  -1    2.66    0.16
  -2  -8  -1    2.16    0.21
   2  -8   1    2.39    0.16
   2  -8   1    2.50    0.19
  -2  -8   1    2.40    0.16
  -2  -8   1    2.34    0.16
  -2  -8   1    2.34    0.16
   2  -8  -1    2.59    0.18
  -2  -8   1    2.89    0.19
   2  -8  -1    2.46    0.17
  -2  -8   1    2.35    0.21
   2  -8  -1    2.51    0.16
  -3  -8  -1    0.17    0.07
  -3  -8  -1    0.35    0.07
  -3  -8  -1    0.25    0.07
  -3  -8  -1    0.22    0.12
   3  -8   1    0.15    0.07
  -3  -8  -1    0.42    0.07
  -3  -8   1    0.23    0.11
  -3  -8   1    0.36    0.09
  -3  -8   1    0.25    0.06
  -3  -8   1    0.37    0.06
   4   8  -1    0.15    0.04
  -4  -8  -1    0.16    0.05
  -4  -8  -1    0.18    0.05
  -4  -8  -1    0.49    0.18
  -4  -8  -1    0.07    0.05
  -4  -8  -1    0.24    0.08
  -4  -8   1    0.19    0.06
  -4  -8   1    0.32    0.12
  -4  -8   1    0.27    0.06
  -4  -8   1    0.11    0.05
  -4  -8   1    0.23    0.07
  -5  -8  -1    0.52    0.06
  -5  -8  -1    0.50    0.07
   5   8  -1    0.49    0.06
  -5  -8   1    0.43    0.06
   5   8   1    0.40    0.06
  -5  -8   1    0.47    0.06
   0  -9   1   -0.02    0.03
   0  -9  -1   -0.01    0.03
   0  -9   1    0.00    0.06
   0  -9  -1   -0.01    0.07
   0  -9   1    0.00    0.04
   0  -9   1   -0.02    0.03
   0  -9  -1    0.01    0.04
   0  -9  -1    0.04    0.04
  -1  -9  -1    0.39    0.06
  -1  -9  -1    0.34    0.06
  -1  -9  -1    0.47    0.10
   1  -9   1    0.40    0.10
  -1  -9  -1    0.47    0.06
   1  -9   1    0.43    0.07
   1  -9   1    0.35    0.06
   1  -9   1    0.48    0.07
   1  -9  -1    0.46    0.07
  -1  -9   1    0.36    0.05
  -1  -9   1    0.30    0.06
   1  -9  -1    0.47    0.07
  -1  -9   1    0.35    0.06
  -1  -9   1    0.43    0.09
   1  -9  -1    0.44    0.06
   2  -9   1    0.04    0.05
  -2  -9  -1    0.05    0.04
  -2  -9  -1    0.03    0.03
   2  -9   1    0.02    0.05
   2  -9   1    0.03    0.04
  -2  -9  -1    0.02    0.03
  -2  -9  -1    0.02    0.07
   2  -9  -1    0.00    0.06
  -2  -9   1    0.01    0.06
   2  -9  -1    0.03    0.05
  -2  -9   1    0.02    0.03
   2  -9  -1    0.09    0.04
  -2  -9   1    0.06    0.03
  -3  -9  -1    0.70    0.09
  -3  -9  -1    0.60    0.06
  -3  -9  -1    0.66    0.06
   3   9  -1    0.68    0.07
  -3  -9  -1    0.63    0.07
  -3  -9   1    0.67    0.06
  -3  -9   1    0.66    0.06
  -3  -9   1    0.66    0.09
  -3  -9   1    0.67    0.07
   4   9  -1    1.73    0.11
  -4  -9  -1    1.84    0.10
  -4  -9  -1    1.69    0.12
  -4  -9   1    1.64    0.12
  -4  -9   1    1.78    0.10
   4   9   1    1.80    0.11
   0 -10  -1    4.69    0.25
   0 -10  -1    4.74    0.25
   0 -10   1    4.62    0.24
   0 -10   1    5.21    0.25
   0 -10   1    4.59    0.25
   0 -10  -1    4.82    0.25
   1 -10   1    0.38    0.06
  -1 -10  -1    0.25    0.05
  -1 -10  -1    0.23    0.05
  -1 -10  -1    0.28    0.04
   1 -10   1    0.35    0.07
   1 -10   1    0.22    0.04
   1 -10  -1    0.27    0.07
  -1 -10   1    0.34    0.09
  -1 -10   1    0.30    0.05
   1 -10  -1    0.27    0.05
  -1 -10   1    0.23    0.04
  -1 -10   1    0.38    0.05
   1 -10  -1    0.21    0.05
  -2 -10  -1    0.99    0.07
  -2 -10  -1    1.07    0.07
  -2 -10  -1    0.97    0.07
  -2 -10   1    1.03    0.07
  -2 -10   1    1.03    0.07
  -2 -10   1    0.87    0.12
  -2 -10   1    1.09    0.07
   0   0  -2   91.79    4.46
   0   0   2   93.77    4.46
   1   0  -2    5.04    0.24
   1   0   2    4.67    0.23
  -1   0   2    4.86    0.24
  -1   0  -2    4.77    0.23
  -2   0  -2    0.54    0.04
  -2   0   2    0.56    0.05
   2   0  -2    0.62    0.04
   2   0   2    0.54    0.04
  -3   0  -2  118.32    5.93
   3   0  -2  130.02    5.95
   3   0   2  122.69    5.95
  -4   0   2    0.06    0.04
   4   0   2    0.23    0.07
   4   0  -2    0.10    0.06
   5   0  -2   58.18    2.89
  -5   0   2   62.40    2.89
   5   0  -2   58.34    2.89
   5   0   2   58.61    2.89
  -5   0  -2   63.37    2.89
   5   0  -2   53.62    2.90
   5   0   2   63.19    2.89
   6   0  -2    6.20    0.34
   6   0   2    6.22    0.34
   6   0  -2    6.02    0.37
  -6   0   2    6.14    0.34
  -6   0  -2    6.68    0.35
   6   0   2    5.66    0.38
   7   0  -2    1.88    0.18
  -7   0   2    1.81    0.14
  -7   0  -2    1.85    0.15
   7   0  -2    1.97    0.14
   7   0   2    1.95    0.14
  -7   0   2    1.93    0.14
  -8   0  -2    0.14    0.07
   8   0   2    0.09    0.04
   8   0  -2    0.16    0.05
  -8   0   2    0.25    0.08
  -8   0  -2    0.14    0.04
   8   0  -2    0.25    0.08
  -8   0   2    0.08    0.05
   9   0   2   18.03    0.90
   9   0  -2   18.86    0.90
   0   1  -2    0.03    0.01
   0   1   2    0.03    0.01
   0  -1  -2    0.02    0.01
  -1   1   2   43.82    2.24
   1   1  -2   48.92    2.25
  -1  -1   2   41.24    2.24
  -1   1  -2   46.52    2.24
   1   1   2   48.36    2.26
   1  -1  -2   51.11    2.26
  -2  -1  -2   69.41    3.15
   2   1  -2   60.59    3.15
  -2   1   2   61.83    3.15
   2  -1   2   68.38    3.15
  -2  -1   2   58.54    3.15
  -2   1  -2   63.75    3.14
   2  -1  -2   69.56    3.15
   2   1   2   72.62    3.16
   3  -1   2   28.00    1.37
  -3  -1  -2   27.91    1.37
   3   1  -2   27.57    1.37
   3  -1   2   29.81    1.36
  -3   1  -2   28.00    1.36
  -3  -1   2   28.05    1.37
   3   1   2   28.63    1.37
   3  -1  -2   27.59    1.37
  -4  -1  -2   31.29    1.43
   4   1  -2   30.52    1.43
   4  -1   2   25.95    1.42
  -4  -1   2   29.42    1.43
   4  -1  -2   29.51    1.43
   4   1   2   29.42    1.43
  -5  -1  -2   53.02    2.41
   5  -1   2   49.60    2.41
   5  -1   2   50.58    2.40
   5   1  -2   48.71    2.42
   5   1  -2   50.68    2.41
  -5   1   2   50.56    2.40
   5   1  -2   50.15    2.41
  -5  -1   2   49.70    2.40
   5  -1  -2   52.33    2.41
   5   1   2   48.11    2.41
   5  -1  -2   46.82    2.42
   5  -1  -2   45.37    2.40
   5   1   2   49.13    2.41
  -6   1   2    7.25    0.36
   6   1  -2    6.50    0.36
   6   1  -2    6.54    0.36
   6  -1   2    6.65    0.36
  -6  -1  -2    5.34    0.35
   6  -1  -2    5.80    0.38
   6   1   2    6.29    0.38
   6  -1  -2    6.45    0.35
  -6   1  -2    6.93    0.36
  -6  -1   2    7.12    0.36
   6   1   2    6.28    0.36
   7   1  -2   33.83    1.57
  -7  -1  -2   33.58    1.55
  -7   1   2   29.72    1.56
   7   1  -2   31.44    1.55
   7  -1   2   33.27    1.56
  -7  -1  -2   30.87    1.56
   7  -1  -2   32.08    1.55
   7   1   2   32.77    1.56
   7   1   2   31.48    1.57
  -7   1  -2   29.95    1.56
  -7  -1   2   33.37    1.55
   7  -1  -2   30.44    1.56
  -7  -1   2   29.57    1.56
   8  -1   2    4.18    0.23
  -8  -1  -2    4.36    0.23
   8   1  -2    3.46    0.24
  -8   1   2    4.13    0.25
   8   1  -2    3.86    0.22
  -8  -1  -2    4.11    0.24
   8   1   2    3.93    0.23
  -8  -1   2    4.21    0.22
  -8   1  -2    4.17    0.22
  -8   1  -2    4.25    0.25
   8  -1  -2    4.05    0.23
  -8  -1   2    3.97    0.24
   0   2  -2    2.22    0.12
   0   2   2    2.25    0.12
   1   2  -2  187.47    9.58
  -1   2   2  191.89    9.56
  -1   2  -2  199.56    9.56
  -1   2  -2  226.13    9.57
   1   2   2  181.19    9.58
   1  -2  -2  217.39    9.60
  -1  -2   2  189.62    9.54
   2   2  -2   87.55    4.18
  -2  -2  -2   91.31    4.17
   2  -2   2   85.60    4.17
   2  -2  -2   90.59    4.17
   2   2   2   85.49    4.17
  -2  -2   2   83.99    4.17
  -2   2  -2   83.70    4.17
  -3  -2  -2   24.74    1.19
   3  -2   2   26.85    1.18
   3  -2   2   26.47    1.19
   3   2  -2   22.29    1.19
   3  -2  -2   24.81    1.19
   3  -2  -2   24.11    1.19
  -3  -2   2   24.27    1.19
   3   2   2   23.84    1.19
  -3   2  -2   22.35    1.18
  -4  -2  -2    6.21    0.32
   4   2  -2    5.95    0.32
   4  -2   2    6.21    0.32
  -4  -2   2    5.90    0.32
   4  -2  -2    5.80    0.32
   4   2   2    6.00    0.32
   5  -2   2    5.19    0.30
  -5  -2  -2    5.91    0.30
   5   2  -2    5.47    0.32
   5  -2   2    5.01    0.29
   5   2  -2    5.19    0.30
   5   2  -2    5.29    0.30
   5   2   2    5.39    0.30
   5  -2  -2    4.29    0.33
  -5  -2   2    4.88    0.29
   5   2   2    5.49    0.30
  -5  -2   2    5.67    0.29
   5  -2  -2    4.58    0.30
   5  -2  -2    5.52    0.29
  -6   2   2   16.72    0.87
   6  -2   2   17.86    0.87
   6  -2   2   18.01    0.87
   6   2  -2   17.67    0.88
   6   2  -2   17.14    0.87
  -6  -2  -2   18.00    0.87
  -6  -2  -2   17.26    0.88
  -6  -2   2   16.55    0.87
   6  -2  -2   17.50    0.87
   6   2   2   17.40    0.88
   6  -2  -2   16.12    0.88
   6   2   2   17.90    0.88
  -6   2  -2   17.77    0.88
  -6  -2   2   17.01    0.86
  -7  -2  -2    0.10    0.05
   7  -2   2    0.13    0.05
  -7   2   2    0.11    0.06
   7   2  -2    0.32    0.11
   7   2  -2    0.13    0.04
  -7  -2  -2    0.10    0.06
  -7   2  -2    0.10    0.07
   7  -2  -2    0.08    0.04
   7   2   2    0.12    0.08
   7   2   2    0.09    0.04
  -7  -2   2    0.08    0.05
  -7  -2   2    0.20    0.06
  -8  -2  -2    0.68    0.10
   8  -2   2    0.59    0.07
   8   2  -2    0.55    0.10
   8   2  -2    0.59    0.07
  -8  -2  -2    0.65    0.07
  -8   2  -2    0.52    0.12
   8  -2  -2    0.63    0.07
  -8  -2   2    0.58    0.10
  -8  -2   2    0.60    0.06
  -8   2  -2    0.61    0.08
   8   2   2    0.45    0.06
   8   2   2    0.45    0.13
   0   3   2    0.03    0.02
   0   3  -2    0.04    0.02
   0  -3   2   -0.02    0.04
   1  -3   2   10.45    0.60
  -1  -3  -2   12.31    0.59
   1   3  -2   12.19    0.59
   1   3   2   12.54    0.60
  -1   3  -2   12.02    0.59
  -1  -3   2   12.31    0.59
   2   3  -2    0.10    0.04
   2  -3   2    0.22    0.05
  -2  -3  -2    0.10    0.04
   2   3   2    0.12    0.04
  -2  -3   2    0.09    0.03
   2  -3  -2    0.09    0.04
   3  -3   2   21.01    0.97
  -3  -3  -2   20.87    0.97
   3   3  -2   18.31    0.97
   3  -3  -2   19.51    0.97
   3  -3  -2   18.99    0.97
  -3  -3   2   19.77    0.97
   3   3   2   19.83    0.97
   4  -3   2   11.23    0.56
   4   3  -2   10.84    0.56
  -4  -3  -2   10.41    0.55
  -4  -3  -2   11.86    0.56
  -4  -3   2   11.21    0.55
   4  -3  -2   10.50    0.56
   4  -3  -2   10.94    0.55
  -4  -3   2   10.12    0.55
   4   3   2   10.81    0.56
   5   3  -2   30.50    1.52
  -5  -3  -2   33.91    1.53
  -5  -3  -2   31.51    1.52
   5  -3   2   30.29    1.51
   5   3  -2   31.08    1.52
  -5  -3  -2   29.06    1.52
   5  -3   2   31.41    1.52
   5   3  -2   30.78    1.54
   5   3   2   31.07    1.52
   5   3   2   30.91    1.52
  -5  -3   2   29.62    1.51
  -5  -3   2   32.31    1.52
   5  -3  -2   31.66    1.52
   5   3   2   29.33    1.55
  -6   3   2    0.36    0.10
   6   3  -2    0.32    0.09
   6  -3   2    0.31    0.10
   6   3  -2    0.25    0.09
  -6  -3  -2    0.29    0.09
  -6  -3  -2    0.23    0.08
   6  -3  -2    0.27    0.08
  -6  -3   2    0.43    0.07
   6   3   2    0.30    0.09
  -6  -3   2    0.23    0.07
   7  -3   2   14.41    0.70
   7   3  -2   14.30    0.69
   7   3  -2   14.71    0.70
  -7   3   2   12.99    0.70
  -7  -3  -2   14.89    0.70
  -7  -3  -2   13.02    0.71
   7  -3  -2   14.30    0.70
   7   3   2   13.10    0.70
  -7  -3   2   14.06    0.69
  -7  -3   2   12.57    0.70
   7   3   2   14.01    0.70
  -7   3  -2   12.89    0.70
   8   3  -2    0.33    0.08
   8   3  -2    0.21    0.05
   8  -3   2    0.09    0.04
  -8  -3  -2    0.11    0.07
  -8  -3  -2    0.21    0.05
   8   3   2    0.23    0.07
   8   3   2    0.23    0.05
  -8  -3   2    0.20    0.07
   8  -3  -2    0.23    0.06
  -8  -3   2    0.16    0.05
   0  -4   2   25.50    1.19
   0  -4  -2   22.74    1.19
   0   4   2   23.46    1.19
   0   4  -2   25.12    1.19
  -1  -4  -2    5.57    0.31
  -1   4   2    5.87    0.31
   1  -4   2    5.18    0.31
   1   4  -2    5.68    0.30
   1  -4  -2    5.72    0.30
  -1  -4   2    6.29    0.31
   1   4   2    5.66    0.31
  -1   4  -2    5.86    0.30
  -2  -4  -2    3.68    0.20
   2  -4   2    3.65    0.20
   2   4  -2    3.25    0.20
  -2   4  -2    3.23    0.19
   2   4   2    3.27    0.20
  -2  -4   2    3.39    0.19
   2  -4  -2    3.36    0.20
  -3  -4  -2    2.67    0.16
   3  -4   2    2.58    0.16
   3   4  -2    2.41    0.16
  -3  -4   2    2.44    0.15
   3   4   2    2.39    0.17
   3  -4  -2    2.40    0.16
  -4  -4  -2    0.10    0.06
   4  -4   2    0.01    0.09
  -4  -4  -2    0.05    0.07
   4   4  -2    0.12    0.08
   4   4  -2    0.06    0.08
  -4  -4  -2    0.10    0.05
  -4  -4  -2    0.06    0.11
   4  -4   2    0.14    0.08
   4  -4  -2    0.08    0.06
  -4  -4   2    0.05    0.04
   4   4   2    0.30    0.12
  -4  -4   2    0.08    0.08
  -4  -4   2    0.15    0.05
   4  -4  -2    0.03    0.07
  -4  -4   2    0.16    0.09
   4   4   2    0.14    0.07
   5   4  -2    1.29    0.12
   5  -4   2    0.90    0.15
  -5  -4  -2    1.38    0.14
   5  -4   2    1.29    0.13
  -5  -4  -2    1.43    0.12
  -5  -4  -2    1.42    0.12
   5   4  -2    1.34    0.14
   5   4   2    1.20    0.13
   5  -4  -2    1.27    0.13
  -5  -4   2    1.24    0.11
  -5  -4   2    1.34    0.11
  -6  -4  -2    0.79    0.09
   6   4  -2    0.62    0.09
  -6   4   2    0.71    0.13
   6  -4   2    0.65    0.11
  -6  -4  -2    0.62    0.10
   6   4  -2    0.70    0.10
   6  -4   2    0.46    0.12
   6   4   2    0.65    0.10
  -6  -4   2    0.70    0.08
  -6  -4   2    0.63    0.09
   6   4   2    0.53    0.10
   6  -4  -2    0.63    0.10
   7   4  -2    4.11    0.22
  -7  -4  -2    3.95    0.21
   7  -4   2    3.60    0.23
  -7  -4  -2    3.73    0.23
   7   4  -2    3.72    0.21
  -7   4  -2    3.59    0.24
  -7  -4   2    3.31    0.22
   7   4   2    3.84    0.22
   7   4   2    3.66    0.22
  -7  -4   2    3.75    0.21
   7  -4  -2    4.04    0.22
   8   4  -2    0.07    0.05
  -8  -4  -2    0.13    0.04
   8   4  -2    0.05    0.04
   8  -4   2    0.11    0.06
   8  -4  -2    0.02    0.04
  -8  -4   2    0.12    0.03
   8   4   2    0.17    0.05
   8   4   2    0.12    0.06
   0  -5  -2    0.09    0.07
   0  -5   2    0.01    0.05
   0   5   2   -0.01    0.05
   0   5  -2   -0.01    0.05
  -1  -5  -2    7.46    0.40
   1   5  -2    7.29    0.40
  -1   5   2    7.35    0.40
   1  -5   2    6.58    0.39
   1  -5  -2    6.75    0.39
  -1   5  -2    8.16    0.40
   1   5   2    7.36    0.40
  -1  -5   2    8.31    0.40
  -2  -5  -2    2.57    0.17
  -2  -5  -2    2.11    0.17
  -2  -5  -2    2.26    0.19
  -2  -5  -2    2.13    0.17
  -2   5   2    2.36    0.17
  -2  -5  -2    2.39    0.19
   2  -5   2    2.42    0.16
   2   5  -2    2.27    0.17
  -2  -5   2    2.16    0.17
  -2  -5   2    2.44    0.16
  -2  -5   2    2.43    0.19
   2  -5  -2    2.46    0.16
   2   5   2    2.52    0.17
  -2  -5   2    2.34    0.16
  -2  -5   2    2.28    0.17
   3   5  -2    0.12    0.08
  -3  -5  -2    0.16    0.09
   3  -5   2    0.25    0.09
  -3   5   2    0.38    0.15
  -3  -5  -2    0.44    0.10
   3  -5   2    0.24    0.08
   3  -5   2    0.27    0.09
  -3  -5  -2    0.20    0.08
  -3  -5  -2    0.13    0.06
  -3  -5  -2    0.13    0.08
  -3  -5  -2    0.17    0.06
  -3  -5   2    0.15    0.05
  -3  -5   2    0.02    0.08
  -3  -5   2    0.17    0.07
   3   5   2    0.07    0.08
   3  -5  -2    0.19    0.07
   3   5   2    0.05    0.09
   3  -5  -2    0.01    0.11
  -3  -5   2    0.17    0.06
  -3  -5   2    0.25    0.07
  -4  -5  -2    0.43    0.13
   4  -5   2    0.65    0.10
  -4  -5  -2    0.93    0.11
  -4  -5  -2    0.69    0.10
  -4  -5  -2    0.61    0.10
   4  -5   2    0.56    0.12
   4   5   2    0.56    0.13
   4  -5  -2    1.14    0.17
  -4  -5   2    0.70    0.09
  -4  -5   2    0.73    0.09
  -4  -5   2    0.65    0.11
   4  -5  -2    0.82    0.11
  -4  -5   2    0.67    0.12
   5   5  -2    6.59    0.39
  -5  -5  -2    7.00    0.37
  -5  -5  -2    6.49    0.38
   5   5  -2    6.60    0.37
   5  -5   2    7.38    0.37
  -5  -5  -2    6.95    0.37
   5  -5  -2    7.26    0.39
   5   5   2    7.36    0.38
  -5  -5   2    6.49    0.38
  -5  -5   2    7.06    0.38
  -5  -5   2    7.02    0.37
  -6  -5  -2    5.81    0.35
   6   5  -2    6.60    0.34
   6   5  -2    6.55    0.34
  -6  -5  -2    6.48    0.34
   6   5   2    6.36    0.34
  -6  -5   2    5.49    0.35
   6  -5  -2    6.72    0.36
  -6  -5   2    6.26    0.33
   6   5   2    6.28    0.34
  -7  -5  -2    0.72    0.12
   7   5  -2    0.97    0.09
  -7  -5  -2    1.04    0.08
   7  -5  -2    0.94    0.11
  -7  -5   2    0.94    0.11
   7   5   2    0.84    0.09
   7   5   2    0.99    0.09
  -7  -5   2    0.97    0.08
   0  -6   2    1.52    0.12
   0   6  -2    1.60    0.16
   0  -6  -2    1.65    0.13
   0  -6  -2    1.40    0.20
   0  -6   2    1.40    0.14
   0  -6   2    1.24    0.14
   0  -6   2    1.24    0.14
   0   6   2    1.57    0.16
   0  -6  -2    1.36    0.16
   0  -6   2    1.51    0.16
   0  -6   2    1.35    0.20
   0  -6  -2    1.13    0.14
   0  -6  -2    1.66    0.15
   0  -6  -2    1.56    0.15
  -1  -6  -2   16.88    0.84
   1  -6   2   15.78    0.83
   1  -6   2   16.50    0.85
  -1  -6  -2   16.63    0.84
   1   6  -2   17.05    0.86
  -1  -6  -2   16.63    0.85
  -1  -6  -2   15.17    0.84
   1  -6   2   17.69    0.84
   1  -6   2   16.92    0.84
   1  -6   2   14.95    0.85
  -1  -6  -2   16.57    0.84
  -1   6   2   14.89    0.85
  -1  -6  -2   16.73    0.83
  -1   6  -2   17.54    0.86
  -1  -6   2   16.51    0.83
  -1  -6   2   17.44    0.84
   1  -6  -2   17.84    0.84
   1  -6  -2   15.76    0.84
   1  -6  -2   16.89    0.83
  -1  -6   2   17.21    0.84
  -1  -6   2   17.99    0.86
   1  -6  -2   17.07    0.84
   1  -6  -2   17.61    0.85
   1   6   2   16.78    0.86
   1  -6  -2   15.10    0.85
  -1  -6   2   17.39    0.84
  -2  -6  -2    7.98    0.45
   2  -6   2    8.82    0.47
   2   6  -2    8.35    0.48
  -2  -6  -2    8.52    0.45
   2  -6   2    8.31    0.44
   2  -6   2    8.29    0.45
  -2   6   2    7.93    0.49
  -2  -6  -2    7.79    0.46
  -2  -6  -2    8.80    0.46
   2  -6   2    7.92    0.46
  -2  -6  -2    8.72    0.46
  -2  -6  -2    8.65    0.46
   2  -6   2    8.84    0.46
  -2  -6   2    8.93    0.45
   2  -6  -2    8.61    0.47
  -2  -6   2    9.69    0.47
   2  -6  -2    8.09    0.45
  -2  -6   2    9.16    0.45
   2  -6  -2    8.08    0.45
   2  -6  -2    9.40    0.45
   2   6   2    8.13    0.48
  -2  -6   2    8.78    0.45
  -2  -6   2    8.97    0.45
  -2  -6   2    8.40    0.46
   2  -6  -2    8.35    0.47
  -3  -6  -2   20.21    1.06
   3  -6   2   20.22    1.04
  -3  -6  -2   21.10    1.05
   3  -6   2   22.13    1.05
  -3  -6  -2   20.71    1.04
   3  -6   2   20.36    1.05
  -3  -6  -2   20.48    1.04
  -3  -6  -2   21.05    1.05
  -3  -6   2   20.57    1.04
  -3  -6   2   21.05    1.04
  -3  -6   2   23.77    1.07
  -3  -6   2   20.72    1.04
  -4  -6  -2    9.16    0.46
   4  -6   2    8.87    0.47
   4  -6   2    8.86    0.46
  -4  -6  -2    8.02    0.48
  -4  -6  -2    8.78    0.46
  -4  -6  -2    9.23    0.46
  -4  -6  -2    8.52    0.46
  -4  -6   2    8.86    0.46
  -4  -6   2    8.53    0.45
  -4  -6   2    9.05    0.48
   4   6   2    8.34    0.47
  -4  -6   2    8.45    0.45
  -4  -6   2    8.75    0.45
   5   6  -2    0.26    0.07
   5  -6   2    0.14    0.08
  -5  -6  -2    0.20    0.06
  -5  -6  -2    0.06    0.06
  -5  -6  -2    0.24    0.09
  -5  -6  -2    0.10    0.08
   5   6   2    0.09    0.07
  -5  -6   2    0.33    0.09
   5  -6  -2    0.06    0.09
  -5  -6   2    0.16    0.05
  -5  -6   2    0.35    0.09
  -6  -6  -2    1.94    0.13
   6   6  -2    2.19    0.13
  -6  -6  -2    1.88    0.17
  -6  -6  -2    1.90    0.14
   6   6   2    2.11    0.14
   6  -6  -2    1.79    0.16
   6   6   2    2.00    0.14
  -6  -6   2    2.15    0.13
  -6  -6   2    2.11    0.16
  -7  -6  -2    0.03    0.03
   7   6  -2    0.07    0.03
  -7  -6   2    0.03    0.03
   7   6   2    0.02    0.04
   0  -7  -2    0.03    0.05
   0  -7   2    0.12    0.05
   0  -7  -2   -0.05    0.06
   0  -7   2    0.15    0.05
   0  -7  -2   -0.06    0.10
   0  -7   2    0.13    0.09
   0  -7  -2   -0.05    0.08
   0  -7  -2    0.05    0.08
   0  -7   2    0.02    0.10
   0  -7  -2    0.10    0.05
   0  -7   2   -0.07    0.07
   0  -7   2    0.03    0.06
  -1  -7  -2    3.62    0.22
  -1  -7  -2    3.57    0.22
  -1  -7  -2    3.52    0.21
   1  -7   2    3.95    0.23
  -1  -7  -2    3.52    0.24
  -1  -7  -2    3.98    0.24
   1  -7   2    3.74    0.21
  -1  -7  -2    2.94    0.24
   1  -7   2    2.94    0.24
   1  -7   2    3.56    0.21
   1  -7   2    3.64    0.24
   1  -7  -2    3.65    0.23
  -1  -7   2    3.46    0.21
  -1  -7   2    3.62    0.22
   1  -7  -2    3.68    0.22
   1  -7  -2    3.06    0.25
  -1  -7   2    3.67    0.21
  -1  -7   2    3.19    0.24
  -1  -7   2    3.21    0.23
   1  -7  -2    3.41    0.24
   1  -7  -2    3.49    0.21
  -1  -7   2    3.59    0.23
  -2  -7  -2    8.92    0.47
   2  -7   2    9.42    0.47
   2  -7   2    9.53    0.49
   2  -7   2    8.75    0.48
  -2  -7  -2    8.38    0.48
   2  -7   2    8.79    0.48
  -2  -7  -2    8.63    0.50
  -2  -7  -2    9.10    0.48
   2  -7   2    9.25    0.46
  -2  -7  -2    8.94    0.47
  -2  -7  -2    9.23    0.47
  -2  -7   2    8.55    0.50
  -2  -7   2    8.54    0.46
  -2  -7   2    9.59    0.48
  -2  -7   2    9.14    0.47
   2  -7  -2    9.09    0.48
   2  -7  -2    8.90    0.47
  -2  -7   2    8.99    0.47
   2  -7  -2    9.53    0.47
   2  -7  -2    8.33    0.49
   3  -7   2    7.47    0.39
  -3  -7  -2    7.39    0.38
  -3  -7  -2    6.70    0.38
   3  -7   2    7.15    0.39
  -3  -7  -2    6.97    0.39
   3  -7   2    6.99    0.38
  -3  -7  -2    6.50    0.41
  -3  -7  -2    7.11    0.38
  -3  -7   2    7.11    0.37
  -3  -7   2    7.62    0.38
  -3  -7   2    7.10    0.41
  -3  -7   2    6.96    0.38
  -3  -7   2    6.82    0.37
  -4  -7  -2    0.03    0.06
  -4  -7  -2    0.11    0.09
   4  -7   2    0.12    0.09
   4  -7   2    0.13    0.07
  -4  -7  -2    0.08    0.05
  -4  -7  -2    0.14    0.06
  -4  -7  -2    0.20    0.05
  -4  -7   2    0.09    0.05
  -4  -7   2    0.02    0.05
  -4  -7   2    0.10    0.05
  -4  -7   2    0.04    0.08
  -4  -7   2    0.08    0.06
   5   7  -2    9.17    0.47
  -5  -7  -2    9.30    0.47
  -5  -7  -2    8.52    0.49
  -5  -7  -2    9.26    0.46
  -5  -7   2    9.34    0.49
   5   7   2    9.05    0.47
  -5  -7   2    9.18    0.47
  -5  -7   2    8.74    0.46
  -6  -7  -2    0.22    0.05
   6   7  -2    0.16    0.05
   6   7   2    0.08    0.04
  -6  -7   2    0.07    0.04
   0  -8  -2    5.70    0.31
   0  -8  -2    5.66    0.32
   0  -8   2    5.15    0.33
   0  -8   2    5.62    0.30
   0  -8  -2    5.89    0.30
   0  -8   2    5.58    0.30
   0  -8   2    5.62    0.31
   0  -8  -2    5.21    0.31
   0  -8  -2    5.65    0.31
   0  -8   2    5.12    0.32
   1  -8   2   25.42    1.20
   1  -8   2   24.89    1.20
   1  -8   2   23.91    1.20
  -1  -8  -2   24.70    1.21
  -1  -8  -2   24.26    1.20
  -1  -8  -2   24.52    1.21
   1  -8   2   22.65    1.22
  -1  -8  -2   23.79    1.20
   1  -8   2   22.54    1.21
  -1  -8  -2   24.25    1.22
   1  -8  -2   24.63    1.21
  -1  -8   2   24.26    1.20
  -1  -8   2   24.20    1.20
   1  -8  -2   24.58    1.21
  -1  -8   2   24.62    1.20
   1  -8  -2   24.85    1.20
   1  -8  -2   26.46    1.20
  -1  -8   2   24.55    1.22
   2  -8   2    0.57    0.09
  -2  -8  -2    0.71    0.11
   2  -8   2    0.57    0.10
  -2  -8  -2    0.47    0.12
  -2  -8  -2    0.58    0.09
   2  -8   2    0.62    0.14
  -2  -8  -2    0.77    0.09
  -2  -8  -2    0.42    0.16
  -2  -8  -2    0.51    0.08
   2  -8   2    0.57    0.08
   2  -8   2    0.77    0.12
  -2  -8   2    0.60    0.07
  -2  -8   2    0.71    0.08
   2  -8  -2    0.50    0.08
  -2  -8   2    0.68    0.14
  -2  -8   2    0.60    0.08
   2  -8  -2    0.45    0.10
   2  -8  -2    0.73    0.11
  -2  -8   2    0.54    0.11
  -3  -8  -2    8.96    0.51
   3  -8   2    9.53    0.51
  -3  -8  -2   10.11    0.50
  -3  -8  -2   10.40    0.51
   3  -8   2    9.80    0.51
  -3  -8  -2    9.53    0.54
  -3  -8  -2   10.31    0.50
  -3  -8   2   10.16    0.51
  -3  -8   2   10.58    0.52
  -3  -8   2    8.68    0.54
  -3  -8   2   10.46    0.50
  -3  -8   2    9.87    0.50
  -4  -8  -2    1.37    0.11
  -4  -8  -2    1.58    0.21
  -4  -8  -2    1.35    0.10
  -4  -8  -2    1.29    0.12
  -4  -8  -2    1.46    0.11
   4   8  -2    1.42    0.11
  -4  -8   2    1.37    0.10
  -4  -8   2    1.54    0.11
  -4  -8   2    1.57    0.18
  -4  -8   2    1.36    0.10
  -4  -8   2    1.41    0.10
  -5  -8  -2   22.34    1.07
  -5  -8  -2   20.13    1.08
   5   8  -2   21.70    1.07
   5   8   2   22.66    1.08
  -5  -8   2   22.84    1.08
  -5  -8   2   22.33    1.07
   0  -9  -2   -0.02    0.04
   0  -9   2   -0.01    0.04
   0  -9  -2   -0.04    0.07
   0  -9   2   -0.02    0.03
   0  -9   2   -0.05    0.03
   0  -9   2    0.07    0.06
   0  -9  -2    0.01    0.03
   0  -9  -2    0.02    0.04
  -1  -9  -2    2.37    0.14
  -1  -9  -2    2.35    0.16
  -1  -9  -2    2.32    0.15
   1  -9   2    2.28    0.16
   1  -9   2    2.46    0.14
   1  -9   2    2.38    0.14
   1  -9   2    2.40    0.14
  -1  -9  -2    2.30    0.14
  -1  -9   2    2.28    0.14
   1  -9  -2    2.38    0.15
  -1  -9   2    2.38    0.22
  -1  -9   2    2.22    0.14
  -1  -9   2    2.29    0.16
   1  -9  -2    2.33    0.14
  -1  -9   2    2.03    0.14
   1  -9  -2    2.44    0.15
   2  -9   2    0.49    0.08
  -2  -9  -2    0.39    0.06
   2  -9   2    0.45    0.06
  -2  -9  -2    0.45    0.06
   2  -9   2    0.36    0.10
  -2  -9  -2    0.35    0.10
  -2  -9  -2    0.50    0.06
   2  -9  -2    0.33    0.07
  -2  -9   2    0.39    0.05
   2  -9  -2    0.42    0.08
  -2  -9   2    0.44    0.09
   2  -9  -2    0.32    0.09
  -2  -9   2    0.28    0.14
  -2  -9   2    0.42    0.06
  -2  -9   2    0.47    0.06
  -3  -9  -2   17.14    0.81
  -3  -9  -2   16.36    0.81
  -3  -9  -2   16.95    0.82
   3   9  -2   16.56    0.81
  -3  -9  -2   16.26    0.82
  -3  -9   2   16.60    0.81
  -3  -9   2   16.25    0.81
  -3  -9   2   16.20    0.82
  -3  -9   2   16.53    0.81
   4   9  -2    0.00    0.03
  -4  -9  -2   -0.03    0.05
  -4  -9  -2    0.04    0.03
  -4  -9   2    0.10    0.04
  -4  -9   2    0.07    0.03
   4   9   2    0.03    0.03
   0 -10  -2    0.58    0.07
   0 -10  -2    0.62    0.06
   0 -10   2    0.61    0.06
   0 -10   2    0.60    0.06
   0 -10   2    0.63    0.05
   0 -10  -2    0.63    0.06
   1 -10   2   18.87    0.90
  -1 -10  -2   19.08    0.90
  -1 -10  -2   17.78    0.90
   1 -10   2   17.74    0.89
  -1 -10  -2   18.75    0.90
  -1 -10   2   18.14    0.89
  -1 -10   2   17.92    0.90
  -1 -10   2   18.21    0.90
   1 -10  -2   18.62    0.89
   1 -10  -2   17.53    0.90
  -1 -10   2   18.96    0.90
   1 -10  -2   19.36    0.90
  -2 -10  -2    0.06    0.03
  -2 -10  -2    0.07    0.03
  -2 -10  -2    0.06    0.03
  -2 -10   2    0.07    0.03
  -2 -10   2    0.08    0.02
  -2 -10   2   -0.01    0.06
   2  10   2    0.08    0.05
  -1   0   3    0.00    0.01
   1   0  -3    0.01    0.01
   2   0  -3    0.00    0.02
  -2   0  -3    0.03    0.02
   2   0   3   -0.01    0.01
  -2   0   3    0.03    0.03
   3   0   3    0.05    0.03
   3   0  -3    0.06    0.03
  -3   0   3    0.05    0.03
   4   0   3    0.14    0.06
   4   0  -3   -0.03    0.06
  -4   0   3    0.00    0.03
   6   0   3   -0.01    0.04
  -6   0  -3   -0.05    0.05
  -6   0   3   -0.05    0.04
   6   0  -3    0.09    0.08
   6   0  -3   -0.01    0.04
   7   0  -3    0.00    0.04
  -7   0   3   -0.02    0.05
   7   0   3   -0.01    0.04
   7   0  -3    0.01    0.08
  -7   0  -3    0.01    0.05
  -7   0   3    0.06    0.06
  -8   0   3    0.08    0.06
   8   0  -3    0.02    0.03
  -8   0  -3    0.00    0.07
   8   0   3    0.01    0.03
   8   0  -3    0.12    0.07
  -8   0   3   -0.06    0.07
  -8   0  -3   -0.08    0.04
   9   0   3    0.04    0.03
   9   0  -3    0.00    0.02
   0  -1  -3    0.02    0.01
   0   1  -3    0.00    0.01
   0  -1   3    0.00    0.01
   0   1   3    0.01    0.01
  -1   1   3  187.65    9.60
   1   1  -3  207.99    9.60
  -1   1  -3  202.24    9.56
   1  -1  -3  193.48    9.60
  -1  -1   3  186.61    9.59
   1   1   3  213.35    9.60
  -1   1  -3  205.54    9.56
  -2   1   3    1.26    0.09
  -2  -1  -3    1.37    0.09
   2   1  -3    1.34    0.08
   2  -1   3    1.50    0.07
   2   1   3    1.49    0.08
   2  -1  -3    1.37    0.09
  -2   1  -3    1.43    0.07
   3  -1   3   67.49    3.09
   3   1  -3   61.07    3.10
  -3  -1  -3   64.98    3.10
   3  -1   3   64.08    3.10
  -3  -1   3   62.02    3.10
  -3   1  -3   65.59    3.09
   3   1   3   65.79    3.10
  -4  -1  -3   62.58    2.84
   4   1  -3   60.69    2.84
   4   1   3   56.53    2.84
  -4  -1   3   57.25    2.84
   4  -1  -3   57.01    2.84
   5   1  -3    0.06    0.12
   5  -1   3    0.03    0.06
   5  -1   3    0.00    0.06
   5   1  -3    0.01    0.05
  -5   1   3    0.04    0.04
   5   1  -3    0.09    0.07
  -5  -1  -3    0.10    0.05
   5  -1  -3    0.03    0.11
   5  -1  -3    0.11    0.10
   5   1   3   -0.03    0.11
   5   1   3    0.08    0.06
   5  -1  -3    0.05    0.04
  -5  -1   3    0.04    0.04
  -6   1   3   37.20    1.81
   6   1  -3   37.68    1.81
   6   1  -3   37.41    1.81
  -6  -1  -3   38.35    1.82
   6  -1   3   38.40    1.81
   6  -1   3   38.42    1.81
   6  -1  -3   38.35    1.81
   6   1   3   37.89    1.81
  -6  -1   3   38.97    1.81
   6  -1  -3   35.83    1.82
   6   1   3   33.51    1.81
  -6  -1   3   31.93    1.80
   7   1  -3   22.22    1.03
  -7   1   3   18.81    1.01
   7   1  -3   19.81    1.00
   7  -1   3   21.33    1.01
  -7  -1  -3   21.60    1.01
  -7  -1  -3   20.15    1.02
  -7   1   3   20.06    1.00
   7  -1  -3   18.18    1.01
  -7  -1   3   21.13    1.00
   7  -1  -3   20.39    1.01
  -7   1  -3   19.29    1.01
  -7  -1   3   18.90    1.01
   7   1   3   21.34    1.01
   8   1  -3    0.97    0.08
  -8  -1  -3    0.98    0.08
   8   1  -3    0.89    0.11
   8  -1   3    0.95    0.09
  -8   1   3    0.74    0.14
  -8  -1  -3    1.09    0.11
   8  -1  -3    0.88    0.08
  -8   1  -3    0.92    0.09
  -8   1  -3    0.76    0.12
  -8  -1   3    0.80    0.11
   8   1   3    0.97    0.09
  -8  -1   3    0.92    0.08
   0   2   3 1000.00   47.93
   1   2  -3  375.46   17.88
  -1   2   3  346.64   17.85
  -1   2  -3  382.03   17.86
   1  -2  -3  371.66   17.88
  -1   2  -3  401.49   17.86
   1   2   3  355.94   17.90
   2   2  -3    0.98    0.07
   2  -2   3    0.94    0.08
  -2  -2  -3    1.03    0.07
   2  -2  -3    1.13    0.07
  -2  -2   3    0.98    0.07
  -2   2  -3    1.06    0.07
   2   2   3    1.04    0.07
   3   2  -3    3.15    0.18
   3  -2   3    3.58    0.19
  -3  -2  -3    3.55    0.19
  -3   2  -3    3.16    0.18
   3  -2  -3    3.49    0.19
   3  -2  -3    3.33    0.19
   3   2   3    3.24    0.18
  -3  -2   3    3.22    0.18
   4   2  -3    8.62    0.46
   4  -2   3    9.51    0.46
  -4  -2  -3    9.42    0.46
   4   2   3    8.66    0.46
  -4  -2   3    8.75    0.46
   4  -2  -3    8.86    0.46
  -5   2   3   18.57    0.88
  -5  -2  -3   18.61    0.88
   5   2  -3   17.97    0.88
   5  -2   3   18.06    0.88
   5   2  -3   16.94    0.88
   5   2  -3   17.70    0.90
   5  -2   3   17.97    0.88
   5   2   3   18.00    0.89
   5  -2  -3   15.20    0.89
  -5  -2   3   17.65    0.87
  -5  -2   3   16.52    0.87
   5  -2  -3   17.59    0.88
   5   2   3   17.61    0.88
   6  -2   3   25.24    1.19
  -6  -2  -3   24.63    1.19
   6   2  -3   25.58    1.20
  -6   2   3   24.76    1.19
  -6  -2  -3   25.43    1.21
   6  -2   3   25.23    1.20
   6   2  -3   24.02    1.19
   6  -2  -3   23.77    1.19
   6   2   3   23.87    1.20
  -6  -2   3   22.33    1.19
   6  -2  -3   21.33    1.20
   6   2   3   23.55    1.20
  -6  -2   3   23.73    1.19
  -7  -2  -3   20.76    1.07
   7   2  -3   21.35    1.05
   7   2  -3   22.88    1.07
  -7  -2  -3   22.99    1.06
   7  -2   3   23.47    1.06
  -7   2   3   19.95    1.05
  -7   2  -3   20.64    1.06
   7   2   3   22.38    1.06
   7   2   3   19.01    1.06
  -7  -2   3   18.77    1.05
  -7  -2   3   21.48    1.05
   7  -2  -3   21.52    1.05
   8  -2   3    0.98    0.09
  -8  -2  -3    0.91    0.08
   8   2  -3    0.98    0.11
  -8  -2  -3    0.84    0.11
   8   2  -3    0.90    0.08
  -8  -2   3    0.93    0.08
   8  -2  -3    1.03    0.08
  -8  -2   3    0.93    0.11
  -8   2  -3    1.09    0.13
  -8   2  -3    0.98    0.09
   8   2   3    1.08    0.09
   1  -3   3   95.06    5.06
  -1  -3  -3  104.21    5.06
   1   3  -3  106.48    5.06
  -1  -3   3  111.36    5.06
   1   3   3  104.07    5.06
  -1   3  -3  116.57    5.07
  -1   3  -3   99.96    5.06
   2   3  -3  116.73    5.51
  -2  -3  -3  121.26    5.51
   2  -3   3  113.38    5.51
  -2  -3   3  116.15    5.51
   2   3   3  114.37    5.51
   2  -3  -3  116.81    5.51
  -2   3  -3  106.49    5.51
   2  -3  -3  112.52    5.50
  -3  -3  -3  127.94    5.92
   3  -3   3  125.40    5.92
   3   3  -3  115.92    5.92
  -3  -3   3  119.18    5.91
  -3   3  -3  137.01    5.91
   3   3   3  117.29    5.92
   3  -3  -3  121.35    5.91
   3  -3  -3  121.01    5.92
   4   3  -3   20.67    0.98
  -4  -3  -3   21.14    0.98
   4  -3   3   21.39    0.98
  -4  -3  -3   18.64    0.97
  -4  -3   3   18.10    0.97
   4   3   3   18.28    0.98
   4  -3  -3   18.28    0.97
  -4  -3   3   20.60    0.97
   4  -3  -3   19.81    0.98
   4   3   3   19.32    0.98
   5  -3   3   86.73    4.10
   5   3  -3   84.92    4.10
   5   3  -3   82.49    4.12
   5  -3   3   85.27    4.11
   5   3  -3   87.19    4.11
  -5  -3  -3   79.55    4.10
  -5  -3  -3   91.81    4.11
  -5  -3  -3   88.52    4.10
   5  -3  -3   82.02    4.11
   5  -3  -3   85.75    4.10
  -5  -3   3   85.38    4.10
   5   3   3   83.59    4.11
  -5  -3   3   82.08    4.10
  -6   3   3    7.51    0.41
   6  -3   3    7.87    0.41
  -6  -3  -3    7.59    0.42
   6   3  -3    7.73    0.41
   6   3  -3    7.84    0.41
  -6  -3  -3    8.25    0.41
   6  -3   3    8.08    0.42
  -6  -3   3    7.02    0.41
  -6  -3   3    7.51    0.40
   6   3   3    7.56    0.41
   6   3   3    7.49    0.42
   6  -3  -3    7.95    0.41
  -7  -3  -3    1.12    0.10
   7  -3   3    1.12    0.12
   7   3  -3    1.05    0.11
  -7  -3  -3    0.95    0.11
   7   3  -3    1.11    0.10
   7   3   3    1.10    0.10
  -7  -3   3    1.11    0.09
   7  -3  -3    1.09    0.10
  -7  -3   3    0.92    0.10
  -7   3  -3    0.86    0.11
   7   3   3    1.06    0.12
   8   3  -3   13.87    0.68
  -8  -3  -3   14.00    0.71
  -8  -3  -3   14.33    0.69
   8   3  -3   14.02    0.70
   8  -3   3   12.34    0.69
  -8  -3   3   14.27    0.68
   8   3   3   14.21    0.69
   8   3   3   14.14    0.69
   8  -3  -3   14.37    0.69
  -8   3  -3   13.32    0.68
  -8  -3   3   14.09    0.70
   0   4   3    0.85    0.08
   0  -4   3    0.80    0.09
   0   4  -3    0.84    0.07
   0  -4  -3    0.71    0.10
   1  -4   3   77.48    3.92
  -1  -4  -3   77.01    3.92
   1   4  -3   83.53    3.92
  -1  -4   3   88.90    3.92
   1  -4  -3   82.75    3.91
   1   4   3   74.96    3.92
  -1   4  -3   84.68    3.92
   2  -4   3   36.13    1.79
  -2  -4  -3   37.03    1.79
   2   4  -3   33.94    1.79
   2   4   3   35.90    1.80
   2  -4  -3   35.40    1.78
  -2   4  -3   40.93    1.79
  -2  -4   3   38.42    1.79
  -3  -4  -3   14.90    0.72
   3   4  -3   13.78    0.72
   3  -4   3   14.73    0.72
   3   4   3   14.02    0.73
   3  -4  -3   14.17    0.71
  -3  -4   3   14.39    0.72
   4   4  -3   30.13    1.51
   4  -4   3   30.09    1.50
  -4  -4  -3   28.75    1.49
   4  -4   3   33.06    1.51
  -4  -4  -3   31.52    1.50
  -4  -4  -3   33.76    1.51
   4  -4  -3   29.96    1.51
  -4  -4   3   29.09    1.49
   4  -4  -3   30.65    1.49
  -4  -4   3   27.89    1.49
   4  -4  -3   29.98    1.50
   4   4   3   29.87    1.50
  -4  -4   3   30.69    1.51
   4   4   3   30.72    1.51
  -4  -4   3   32.21    1.50
  -5  -4  -3    1.08    0.14
   5   4  -3    1.00    0.11
   5  -4   3    1.25    0.12
   5   4  -3    1.07    0.14
   5  -4   3    0.98    0.15
  -5  -4  -3    1.16    0.11
  -5  -4  -3    1.17    0.11
   5  -4   3    0.97    0.11
   5  -4  -3    1.19    0.12
  -5  -4   3    1.17    0.10
  -5  -4   3    1.00    0.10
   5   4   3    1.05    0.13
   6   4  -3    4.17    0.24
  -6  -4  -3    3.93    0.25
  -6  -4  -3    4.27    0.24
   6  -4   3    4.06    0.25
   6   4  -3    4.18    0.25
   6  -4   3    4.06    0.24
  -6  -4   3    3.67    0.24
   6  -4  -3    4.42    0.25
   6   4   3    4.18    0.25
  -6  -4   3    4.00    0.23
   6   4   3    4.10    0.24
  -7  -4  -3    5.12    0.27
   7  -4   3    4.64    0.27
   7   4  -3    4.94    0.27
   7   4  -3    4.48    0.26
  -7  -4  -3    4.67    0.28
  -7  -4   3    4.92    0.26
  -7  -4   3    4.64    0.27
   7   4   3    4.60    0.27
   7  -4  -3    5.31    0.27
  -7   4  -3    4.79    0.29
   7   4   3    4.91    0.27
  -8  -4  -3    4.14    0.21
   8   4  -3    3.70    0.21
   8  -4  -3    3.63    0.21
   8   4   3    3.49    0.20
   8   4   3    3.94    0.22
  -8  -4   3    3.84    0.20
   0   5  -3    0.02    0.05
   0  -5  -3   -0.02    0.07
   0  -5   3   -0.02    0.05
   0   5   3    0.03    0.05
   1  -5   3    8.20    0.48
  -1   5   3    9.22    0.49
  -1  -5  -3    9.21    0.49
   1  -5  -3    9.37    0.48
  -1  -5   3   10.28    0.49
  -1   5  -3    9.68    0.49
   1   5   3    9.23    0.49
   2  -5   3    0.11    0.05
  -2  -5  -3    0.12    0.09
   2   5  -3    0.06    0.07
   2  -5   3    0.01    0.09
  -2  -5  -3    0.15    0.06
  -2  -5  -3   -0.03    0.07
  -2  -5  -3    0.09    0.08
  -2  -5  -3    0.01    0.06
  -2  -5  -3   -0.01    0.07
   2  -5   3    0.01    0.07
  -2   5   3    0.01    0.07
  -2  -5   3    0.03    0.07
  -2   5  -3    0.01    0.08
   2  -5  -3    0.04    0.06
  -2  -5   3    0.06    0.07
   2   5   3    0.09    0.07
  -2  -5   3   -0.02    0.07
  -2  -5   3    0.08    0.06
  -2  -5   3    0.03    0.10
  -3  -5  -3   42.62    2.03
   3   5  -3   40.79    2.04
   3  -5   3   39.03    2.02
   3  -5   3   40.01    2.03
  -3  -5  -3   39.91    2.02
   3  -5   3   46.62    2.04
  -3  -5  -3   40.40    2.03
  -3  -5  -3   43.02    2.03
  -3  -5  -3   41.18    2.03
  -3   5   3   39.87    2.04
  -3  -5  -3   42.50    2.03
  -3  -5   3   41.39    2.02
  -3  -5   3   41.81    2.02
  -3  -5   3   47.15    2.03
   3   5   3   41.46    2.04
  -3  -5   3   41.36    2.02
  -3  -5   3   42.32    2.02
   3  -5  -3   40.07    2.03
   3  -5  -3   38.62    2.03
  -4  -5  -3   47.54    2.35
   4  -5   3   53.27    2.36
  -4  -5  -3   49.50    2.36
  -4  -5  -3   46.96    2.35
  -4  -5  -3   50.02    2.35
   4  -5   3   47.78    2.35
  -4  -5   3   47.12    2.35
  -4  -5   3   44.10    2.34
  -4  -5   3   51.16    2.36
   4  -5  -3   48.49    2.36
   4   5   3   46.68    2.35
  -4  -5   3   48.00    2.35
   5  -5   3    6.72    0.35
   5  -5   3    6.42    0.36
  -5  -5  -3    6.02    0.36
  -5  -5  -3    6.61    0.35
  -5  -5  -3    6.33    0.35
   5   5  -3    6.21    0.35
   5  -5  -3    6.77    0.37
   5   5   3    6.56    0.35
  -5  -5   3    6.40    0.34
  -5  -5   3    5.98    0.35
  -6  -5  -3   12.26    0.63
  -6  -5  -3   11.22    0.64
   6   5  -3   12.77    0.63
  -6  -5  -3   12.91    0.63
   6  -5   3   11.81    0.62
   6  -5  -3   13.16    0.64
   6   5   3   13.01    0.64
   6   5   3   13.01    0.63
  -6  -5   3   12.46    0.63
  -6  -5   3   11.60    0.64
  -7  -5  -3    6.47    0.33
   7   5  -3    6.27    0.33
  -7  -5  -3    5.69    0.35
   7   5   3    5.75    0.33
  -7  -5   3    6.12    0.32
   7  -5  -3    6.47    0.33
   7   5   3    6.14    0.32
  -7  -5   3    6.44    0.34
   0  -6   3   31.76    1.56
   0  -6  -3   27.93    1.55
   0  -6  -3   31.94    1.54
   0   6  -3   32.93    1.56
   0  -6  -3   32.90    1.55
   0  -6   3   31.57    1.54
   0  -6  -3   30.38    1.54
   0  -6   3   31.24    1.53
   0  -6   3   32.46    1.54
   0  -6   3   32.39    1.55
   0  -6  -3   31.39    1.55
   0  -6  -3   31.06    1.55
   0   6   3   31.01    1.56
  -1  -6  -3   31.36    1.51
  -1  -6  -3   26.26    1.52
  -1  -6  -3   32.66    1.53
  -1  -6  -3   31.71    1.52
  -1  -6  -3   32.43    1.53
   1  -6   3   30.81    1.51
   1  -6   3   31.37    1.51
   1   6  -3   30.96    1.53
  -1  -6  -3   31.32    1.52
  -1   6   3   31.14    1.54
   1  -6   3   28.95    1.53
   1  -6   3   31.40    1.52
   1  -6  -3   30.77    1.52
  -1  -6   3   32.13    1.52
   1  -6  -3   30.17    1.51
  -1  -6   3   29.91    1.51
  -1  -6   3   31.51    1.52
   1  -6  -3   30.28    1.52
  -1  -6   3   30.90    1.51
   1  -6  -3   30.88    1.51
   1  -6  -3   30.53    1.52
  -1   6  -3   33.01    1.54
  -1  -6   3   32.76    1.54
   1   6   3   29.24    1.54
   2  -6   3   52.33    2.54
   2   6  -3   50.95    2.57
  -2  -6  -3   52.20    2.56
  -2  -6  -3   53.49    2.55
   2  -6   3   53.09    2.56
  -2  -6  -3   54.80    2.56
  -2  -6  -3   52.95    2.56
  -2   6   3   53.72    2.58
   2  -6   3   52.02    2.54
  -2  -6  -3   51.52    2.55
  -2  -6  -3   50.44    2.55
   2  -6   3   44.27    2.55
   2  -6  -3   52.98    2.56
   2  -6  -3   52.32    2.56
  -2  -6   3   53.27    2.55
  -2  -6   3   52.03    2.55
   2   6   3   50.59    2.58
  -2  -6   3   55.00    2.55
   2  -6  -3   52.80    2.55
  -2  -6   3   56.97    2.57
  -2  -6   3   54.54    2.55
   2  -6  -3   51.89    2.55
  -2  -6   3   54.72    2.55
  -3  -6  -3    0.13    0.07
   3  -6   3    0.16    0.07
   3  -6   3    0.23    0.07
  -3  -6  -3    0.05    0.08
  -3  -6  -3    0.13    0.07
  -3  -6  -3    0.32    0.11
   3  -6   3    0.15    0.08
  -3  -6  -3    0.12    0.06
   3  -6  -3    0.11    0.11
  -3  -6   3    0.09    0.06
   3   6   3    0.11    0.08
   3  -6  -3    0.19    0.11
   3  -6  -3   -0.05    0.10
  -3  -6   3    0.16    0.06
  -3  -6   3    0.28    0.08
  -3  -6   3    0.32    0.08
  -3  -6   3   -0.01    0.06
  -4  -6  -3    3.17    0.22
   4  -6   3    3.47    0.21
  -4  -6  -3    2.79    0.22
   4  -6   3    3.40    0.22
  -4  -6  -3    3.64    0.22
  -4  -6  -3    3.72    0.21
  -4  -6  -3    3.51    0.21
  -4  -6   3    3.25    0.21
  -4  -6   3    3.40    0.20
  -4  -6   3    3.36    0.20
   4   6   3    3.22    0.22
  -4  -6   3    3.14    0.22
  -4  -6   3    3.31    0.20
   4  -6  -3    3.18    0.24
  -5  -6  -3    0.58    0.09
  -5  -6  -3    0.67    0.09
   5   6  -3    0.52    0.08
  -5  -6  -3    0.58    0.12
  -5  -6  -3    0.51    0.13
   5  -6   3    0.53    0.10
  -5  -6   3    0.55    0.08
  -5  -6   3    0.56    0.10
  -5  -6   3    0.44    0.09
   5  -6  -3    0.66    0.14
   5   6   3    0.81    0.11
  -6  -6  -3    0.01    0.04
  -6  -6  -3    0.13    0.06
   6   6  -3    0.03    0.04
  -6  -6   3    0.01    0.04
  -6  -6   3    0.02    0.07
   6  -6  -3   -0.03    0.06
   6   6   3    0.08    0.04
   6   6   3    0.02    0.05
   7   6  -3    2.63    0.15
  -7  -6  -3    2.48    0.15
   7   6   3    2.46    0.15
  -7  -6   3    2.76    0.15
   0  -7  -3    0.04    0.06
   0  -7   3    0.03    0.08
   0  -7  -3   -0.02    0.08
   0  -7   3    0.00    0.07
   0  -7  -3    0.01    0.05
   0  -7  -3   -0.18    0.10
   0  -7   3    0.01    0.05
   0  -7   3    0.06    0.05
   0  -7   3    0.15    0.07
   0  -7  -3   -0.04    0.08
   0  -7  -3   -0.08    0.05
   1  -7   3    0.03    0.07
   1  -7   3   -0.01    0.09
  -1  -7  -3   -0.09    0.05
  -1  -7  -3   -0.02    0.10
  -1  -7  -3    0.07    0.05
  -1  -7  -3    0.11    0.08
   1  -7   3    0.06    0.05
   1  -7   3   -0.02    0.07
  -1  -7  -3   -0.05    0.09
  -1  -7  -3    0.04    0.06
   1  -7  -3    0.07    0.08
  -1  -7   3    0.05    0.09
  -1  -7   3   -0.09    0.07
   1  -7  -3    0.01    0.05
   1  -7  -3    0.01    0.07
  -1  -7   3    0.01    0.05
  -1  -7   3    0.06    0.05
  -1  -7   3    0.04    0.08
   1  -7  -3   -0.01    0.06
  -1  -7   3    0.04    0.05
  -2  -7  -3    6.57    0.39
  -2  -7  -3    6.56    0.37
   2  -7   3    6.92    0.39
  -2  -7  -3    6.96    0.38
   2  -7   3    6.37    0.38
   2  -7   3    6.64    0.37
   2  -7   3    7.06    0.36
  -2  -7  -3    6.30    0.38
   2  -7   3    6.86    0.36
  -2  -7  -3    6.64    0.37
  -2  -7  -3    7.00    0.37
   2  -7  -3    6.78    0.37
   2  -7  -3    7.02    0.38
   2  -7  -3    6.36    0.38
  -2  -7   3    6.82    0.40
   2  -7  -3    6.73    0.37
  -2  -7   3    7.04    0.36
  -2  -7   3    6.78    0.36
  -2  -7   3    7.09    0.37
  -2  -7   3    6.65    0.36
  -3  -7  -3    0.16    0.08
  -3  -7  -3    0.35    0.09
   3  -7   3    0.27    0.08
  -3  -7  -3    0.30    0.07
  -3  -7  -3    0.40    0.08
   3  -7   3    0.36    0.09
   3  -7   3    0.37    0.10
  -3  -7  -3    0.45    0.11
  -3  -7  -3    0.31    0.11
  -3  -7   3    0.32    0.11
  -3  -7   3    0.46    0.08
  -3  -7   3    0.34    0.08
  -3  -7   3    0.37    0.08
   3  -7  -3    0.11    0.10
  -3  -7   3    0.40    0.08
  -4  -7  -3    1.58    0.13
  -4  -7  -3    1.27    0.12
   4  -7   3    1.74    0.13
  -4  -7  -3    1.35    0.11
   4  -7   3    1.37    0.15
  -4  -7  -3    1.69    0.13
  -4  -7  -3    1.17    0.17
  -4  -7   3    1.42    0.11
  -4  -7   3    1.32    0.11
  -4  -7   3    1.35    0.11
  -4  -7   3    1.35    0.11
  -4  -7   3    1.38    0.15
  -5  -7  -3   11.85    0.60
  -5  -7  -3   11.58    0.63
   5   7  -3   11.66    0.60
  -5  -7  -3   11.56    0.60
  -5  -7   3   12.09    0.60
   5   7   3   12.53    0.61
  -5  -7   3   11.56    0.59
  -5  -7   3   12.42    0.63
  -6  -7  -3    7.64    0.41
   6   7  -3    8.18    0.41
   6   7   3    8.17    0.42
  -6  -7   3    8.51    0.41
   0  -8   3    2.08    0.14
   0  -8  -3    2.08    0.15
   0  -8  -3    2.04    0.15
   0  -8  -3    2.07    0.17
   0  -8   3    2.11    0.14
   0  -8   3    1.79    0.18
   0  -8  -3    2.12    0.15
   0  -8   3    2.14    0.15
   0  -8   3    2.16    0.17
  -1  -8  -3    0.87    0.13
  -1  -8  -3    0.69    0.12
   1  -8   3    0.44    0.07
  -1  -8  -3    0.75    0.09
  -1  -8  -3    0.44    0.08
   1  -8   3    0.77    0.11
   1  -8   3    0.58    0.08
   1  -8   3    0.53    0.10
  -1  -8  -3    0.45    0.09
   1  -8   3    0.58    0.13
  -1  -8   3    0.36    0.08
   1  -8  -3    0.55    0.09
  -1  -8   3    0.52    0.07
  -1  -8   3    0.41    0.12
  -1  -8   3    0.68    0.11
   1  -8  -3    0.59    0.09
  -1  -8   3    0.55    0.08
   1  -8  -3    0.44    0.10
   1  -8  -3    0.66    0.13
   2  -8   3    0.13    0.10
   2  -8   3    0.12    0.08
  -2  -8  -3    0.11    0.05
  -2  -8  -3    0.04    0.06
  -2  -8  -3    0.12    0.07
  -2  -8  -3    0.17    0.09
   2  -8   3    0.26    0.07
  -2  -8  -3    0.06    0.04
   2  -8   3    0.17    0.05
   2  -8  -3    0.32    0.08
  -2  -8   3    0.32    0.06
  -2  -8   3    0.17    0.07
   2  -8  -3    0.04    0.07
  -2  -8   3    0.06    0.04
  -2  -8   3    0.26    0.09
  -2  -8   3    0.15    0.04
   2  -8  -3   -0.02    0.09
   2  -8  -3    0.09    0.07
  -3  -8  -3    2.86    0.35
   3  -8   3    3.15    0.20
  -3  -8  -3    3.70    0.19
  -3  -8  -3    3.38    0.20
  -3  -8  -3    3.13    0.21
   3  -8   3    2.98    0.20
  -3  -8  -3    3.51    0.19
  -3  -8   3    3.36    0.19
  -3  -8   3    3.32    0.19
  -3  -8   3    2.83    0.23
  -3  -8   3    3.23    0.19
  -3  -8   3    3.68    0.21
  -4  -8  -3    0.91    0.08
   4   8  -3    0.80    0.08
  -4  -8  -3    0.87    0.09
  -4  -8  -3    0.86    0.09
  -4  -8  -3    0.83    0.10
  -4  -8   3    0.96    0.15
  -4  -8   3    0.92    0.09
  -4  -8   3    0.91    0.08
  -4  -8   3    0.86    0.09
  -5  -8  -3    0.49    0.07
   5   8  -3    0.41    0.06
  -5  -8  -3    0.50    0.06
   5   8   3    0.43    0.06
  -5  -8   3    0.51    0.06
   0  -9   3   -0.06    0.06
   0  -9   3    0.33    0.14
   0  -9   3    0.00    0.03
   0  -9   3    0.01    0.03
   0  -9  -3   -0.01    0.03
   0  -9  -3    0.03    0.07
   0  -9  -3   -0.02    0.04
   0  -9   3   -0.01    0.04
  -1  -9  -3    0.55    0.07
   1  -9   3    0.53    0.07
  -1  -9  -3    0.46    0.06
   1  -9   3    0.53    0.07
  -1  -9  -3    0.37    0.09
   1  -9   3    0.48    0.06
   1  -9   3    0.60    0.09
  -1  -9  -3    0.61    0.07
   1  -9  -3    0.47    0.08
  -1  -9   3    0.59    0.06
   1  -9  -3    0.47    0.07
   1  -9  -3    0.59    0.08
   1  -9  -3    0.60    0.12
  -1  -9   3    0.51    0.06
  -1  -9   3    0.50    0.06
  -1  -9   3    0.58    0.17
  -1  -9   3    0.57    0.09
  -2  -9  -3    0.26    0.05
  -2  -9  -3    0.27    0.07
   2  -9   3    0.23    0.07
   2   9  -3    0.24    0.07
   2  -9   3    0.19    0.05
   2  -9   3    0.18    0.07
  -2  -9  -3    0.26    0.05
  -2  -9  -3    0.20    0.05
   2  -9  -3    0.26    0.07
  -2  -9   3    0.23    0.04
   2  -9  -3    0.10    0.04
  -2  -9   3    0.17    0.05
  -2  -9   3    0.17    0.05
   2  -9  -3    0.06    0.07
  -2  -9   3    0.20    0.13
  -2  -9   3    0.24    0.08
  -3  -9  -3    0.14    0.06
   3   9  -3    0.17    0.06
  -3  -9  -3    0.03    0.03
   3  -9   3    0.06    0.06
  -3  -9  -3    0.05    0.04
  -3  -9  -3    0.05    0.03
  -3  -9   3    0.01    0.03
  -3  -9   3    0.04    0.04
  -3  -9   3    0.06    0.03
  -3  -9   3    0.06    0.03
   4   9  -3    1.01    0.08
  -4  -9  -3    1.05    0.10
  -4  -9  -3    0.98    0.07
  -4  -9   3    1.09    0.08
   4   9   3    1.08    0.08
  -4  -9   3    1.00    0.07
   0 -10  -3    1.71    0.12
   0 -10   3    1.95    0.11
   0 -10   3    1.75    0.13
   0 -10   3    1.94    0.11
   0 -10   3    1.83    0.11
   0 -10  -3    2.01    0.12
   0 -10  -3    1.93    0.11
  -1 -10  -3    2.40    0.14
  -1 -10  -3    2.46    0.13
  -1 -10  -3    2.40    0.14
   1 -10   3    2.59    0.14
   1 -10   3    2.11    0.13
  -1 -10   3    2.36    0.13
  -1 -10   3    2.38    0.13
  -1 -10   3    2.30    0.13
   1 -10  -3    2.31    0.15
  -1 -10   3    2.10    0.14
   1 -10  -3    2.49    0.14
   1 -10  -3    2.50    0.13
  -2 -10  -3    5.56    0.27
  -2 -10  -3    5.37    0.27
  -2 -10  -3    5.13    0.27
  -2 -10   3    4.85    0.27
  -2 -10   3    5.49    0.27
   2  10   3    5.39    0.27
  -2 -10   3    5.27    0.27
   0   0   4  326.32   15.65
   1   0  -4    1.56    0.08
   1   0   4    1.60    0.08
   1   0   4    1.40    0.08
  -3   0  -4  227.99   10.41
   3   0  -4  214.54   10.44
  -3   0   4  201.69   10.41
   3   0   4  224.31   10.43
   4   0  -4    3.28    0.20
  -4   0   4    3.11    0.18
  -5   0  -4    0.07    0.04
   5   0  -4    0.11    0.06
   5   0   4    0.19    0.07
   5   0   4    0.15    0.07
  -5   0   4    0.09    0.04
   5   0  -4    0.04    0.12
   5   0  -4    0.08    0.07
  -6   0  -4    3.93    0.27
   6   0   4    4.91    0.28
   6   0  -4    4.87    0.30
   6   0  -4    4.71    0.27
  -6   0   4    5.34    0.27
   7   0  -4    5.85    0.31
   7   0   4    5.32    0.29
   7   0  -4    4.94    0.28
  -7   0  -4    4.72    0.30
  -7   0   4    4.78    0.29
  -7   0   4    5.01    0.28
  -8   0   4   16.73    0.84
   8   0   4   18.12    0.84
   8   0  -4   15.25    0.84
  -8   0  -4   17.49    0.84
   8   0  -4   16.42    0.83
  -8   0  -4   17.31    0.85
   0  -1  -4    0.02    0.01
   0   1   4    0.03    0.01
   0   1  -4    0.04    0.02
   0  -1   4    0.03    0.01
  -1   1   4  158.05    7.79
   1   1  -4  168.45    7.79
  -1  -1   4  148.30    7.78
   1  -1  -4  165.37    7.80
   1   1   4  160.30    7.78
   1   1   4  170.25    7.78
   2   1  -4  151.76    7.32
   2  -1   4  134.37    7.27
   2   1   4  168.78    7.31
   3   1  -4    7.49    0.37
   3  -1   4    7.80    0.38
  -3   1  -4    6.76    0.36
   3   1   4    7.70    0.37
  -3  -1   4    6.95    0.37
   4   1  -4   31.34    1.52
  -4  -1  -4   34.64    1.52
  -4   1   4   31.70    1.52
  -4  -1   4   32.11    1.52
   4  -1  -4   28.41    1.52
   4   1   4   28.94    1.51
   5  -1   4   22.19    1.05
  -5   1   4   22.02    1.05
  -5  -1  -4   22.65    1.06
   5   1  -4   22.26    1.08
   5   1  -4   20.83    1.05
   5  -1   4   21.20    1.06
   5   1  -4   21.26    1.05
   5  -1  -4   20.53    1.05
   5   1   4   21.43    1.06
  -5  -1   4   19.81    1.04
   5   1   4   18.74    1.06
   5  -1  -4   21.16    1.07
   5  -1  -4   19.93    1.06
  -5  -1   4   22.45    1.05
   6   1  -4  118.27    5.47
  -6   1   4  117.36    5.47
   6   1  -4  114.17    5.47
  -6  -1  -4  108.96    5.48
   6  -1   4  122.38    5.47
   6  -1   4  120.59    5.47
  -6   1  -4  110.85    5.48
   6   1   4   94.82    5.47
   6  -1  -4  116.64    5.47
   6  -1  -4  112.62    5.48
   6   1   4  116.56    5.47
  -6  -1   4  108.83    5.46
   7   1  -4    1.70    0.12
  -7  -1  -4    1.38    0.14
  -7  -1  -4    1.82    0.13
   7   1  -4    1.83    0.16
   7  -1   4    1.61    0.13
  -7   1   4    1.32    0.13
   7  -1  -4    1.63    0.12
   7   1   4    1.74    0.14
   7  -1  -4    1.63    0.16
  -7  -1   4    1.49    0.12
  -7  -1   4    1.44    0.13
  -7   1  -4    1.64    0.14
  -8  -1  -4   21.26    1.00
   8   1  -4   19.83    1.01
   8  -1   4   20.66    1.00
   8   1  -4   19.22    0.99
  -8  -1  -4   21.08    1.02
   8  -1  -4   18.98    1.00
  -8  -1   4   20.51    1.01
  -8  -1   4   19.98    0.99
   8   1   4   19.74    1.00
   8  -1  -4   19.67    1.00
  -8   1  -4   20.89    1.00
  -8   1  -4   21.76    1.02
   0  -2   4    8.06    0.41
   0   2   4    7.55    0.41
   0   2  -4    9.07    0.41
   1   2  -4  199.26    9.77
   1   2   4  184.38    9.72
   1  -2  -4  205.70    9.78
   1   2   4  202.95    9.77
  -1   2  -4  201.79    9.74
  -1   2  -4  222.59    9.74
   2   2  -4  218.03   10.99
   2  -2   4  226.44   10.97
  -2  -2  -4  252.08   10.96
  -2  -2   4  226.77   10.97
  -2   2  -4  211.36   10.94
   2   2   4  227.46   10.99
   2  -2  -4  239.20   11.02
  -2   2  -4  225.21   10.95
  -3  -2  -4   43.01    1.90
   3   2  -4   37.20    1.90
   3  -2   4   40.32    1.90
   3   2   4   37.43    1.90
   3  -2  -4   40.46    1.90
  -3  -2   4   37.02    1.90
  -4  -2  -4   31.59    1.47
   4  -2   4   30.15    1.47
   4   2  -4   28.76    1.46
   4  -2  -4   30.26    1.47
   4   2   4   30.06    1.46
  -4  -2   4   28.85    1.46
  -5  -2  -4    8.43    0.42
   5   2  -4    7.71    0.43
  -5   2   4    8.06    0.41
   5  -2   4    7.72    0.41
   5  -2   4    8.19    0.42
   5   2  -4    7.82    0.41
   5   2  -4    8.12    0.42
  -5  -2  -4    6.77    0.42
   5   2   4    7.62    0.42
   5  -2  -4    7.29    0.43
   5  -2  -4    7.71    0.41
  -5  -2   4    7.32    0.41
   5   2   4    7.67    0.43
  -5  -2   4    8.06    0.41
   6   2  -4    9.55    0.49
   6  -2   4    9.95    0.50
  -6  -2  -4    9.52    0.49
   6  -2   4    9.68    0.49
  -6  -2  -4    9.62    0.51
   6   2  -4    9.57    0.50
  -6   2   4    9.48    0.49
  -6  -2   4    9.63    0.49
   6   2   4    9.24    0.50
   6  -2  -4    8.72    0.51
   6   2   4    9.23    0.51
  -6  -2   4    9.04    0.49
   6  -2  -4    9.56    0.49
   7   2  -4    0.08    0.04
  -7  -2  -4    0.13    0.05
   7  -2   4    0.09    0.05
  -7  -2  -4    0.03    0.06
   7   2  -4    0.11    0.06
  -7   2   4    0.10    0.09
   7   2   4    0.00    0.04
  -7  -2   4    0.03    0.05
  -7   2  -4    0.10    0.06
   7  -2  -4    0.03    0.08
  -7  -2   4    0.08    0.05
   7   2   4    0.10    0.08
   7  -2  -4    0.05    0.04
   8  -2   4    1.16    0.10
  -8  -2  -4    1.37    0.13
  -8  -2  -4    1.20    0.09
   8   2  -4    1.15    0.09
   8   2  -4    1.20    0.11
  -8   2  -4    1.13    0.13
   8  -2  -4    1.21    0.09
  -8  -2   4    1.03    0.12
  -8  -2   4    1.28    0.09
   8   2   4    1.34    0.10
   1  -3   4   32.26    1.58
   1   3  -4   32.80    1.58
  -1  -3   4   33.97    1.58
   1   3   4   31.79    1.58
  -1   3  -4   32.55    1.57
  -1   3  -4   31.93    1.58
  -2  -3  -4    5.01    0.25
   2   3  -4    4.63    0.25
   2  -3   4    4.51    0.25
  -2  -3   4    4.64    0.24
   2  -3  -4    4.82    0.25
  -2   3  -4    4.16    0.25
   2   3   4    4.64    0.25
   3   3  -4    0.07    0.04
   3  -3   4    0.18    0.06
   3   3   4    0.18    0.06
   3  -3  -4    0.17    0.05
  -3   3  -4    0.14    0.05
   3  -3  -4    0.11    0.05
  -4  -3  -4   14.75    0.75
  -4  -3  -4   15.85    0.75
   4   3  -4   15.34    0.76
   4   3  -4   14.51    0.75
   4  -3   4   14.43    0.75
   4  -3   4   15.83    0.76
  -4  -3   4   15.54    0.75
   4  -3  -4   14.32    0.75
   4  -3  -4   15.05    0.76
   4   3   4   15.08    0.76
   4   3   4   14.64    0.76
  -4  -3   4   13.95    0.74
   5   3  -4    6.22    0.39
  -5  -3  -4    7.24    0.36
  -5  -3  -4    6.25    0.36
   5  -3   4    6.34    0.37
   5   3  -4    6.48    0.35
  -5  -3  -4    6.68    0.35
   5   3  -4    6.41    0.36
   5  -3   4    6.63    0.35
   5  -3  -4    6.38    0.38
  -5  -3   4    6.17    0.34
  -5  -3   4    6.74    0.35
   5  -3  -4    6.51    0.35
   5   3   4    6.45    0.36
   6  -3   4    2.54    0.17
  -6   3   4    2.50    0.19
   6   3  -4    2.47    0.17
  -6  -3  -4    2.46    0.17
   6   3  -4    2.54    0.17
  -6  -3  -4    2.45    0.18
   6  -3   4    2.54    0.19
  -6  -3   4    2.43    0.16
   6  -3  -4    2.78    0.21
   6   3   4    2.41    0.18
  -6  -3   4    2.20    0.16
   6   3   4    2.45    0.18
   6  -3  -4    2.41    0.16
  -7  -3  -4    4.96    0.26
   7   3  -4    4.81    0.27
   7  -3   4    4.74    0.27
   7   3  -4    4.79    0.26
  -7  -3  -4    4.23    0.28
   7   3   4    5.05    0.27
   7  -3  -4    4.79    0.26
  -7  -3   4    4.63    0.25
  -7  -3   4    4.25    0.26
   7   3   4    4.43    0.27
  -7   3  -4    4.39    0.28
  -8  -3  -4    0.39    0.06
   8  -3   4    0.35    0.08
   8   3  -4    0.28    0.06
   8   3  -4    0.28    0.07
   8   3   4    0.33    0.05
  -8  -3   4    0.25    0.05
   8  -3  -4    0.39    0.06
  -8  -3   4    0.34    0.10
   0   4   4   49.68    2.43
   0   4  -4   49.81    2.42
   0  -4  -4   48.69    2.42
   0  -4   4   52.12    2.43
   1  -4   4   55.26    2.76
  -1  -4  -4   54.00    2.75
   1   4  -4   61.79    2.76
   1   4   4   53.76    2.76
  -1  -4   4   61.36    2.75
   1  -4  -4   53.10    2.74
  -1   4  -4   59.41    2.75
   2   4  -4   53.88    2.58
   2  -4   4   50.03    2.58
  -2  -4  -4   54.13    2.58
  -2  -4   4   55.37    2.58
   2  -4  -4   52.99    2.57
  -2   4  -4   54.00    2.57
   2   4   4   52.88    2.59
  -3  -4  -4    3.48    0.21
   3   4  -4    3.77    0.21
   3  -4   4    3.49    0.21
   3  -4  -4    3.42    0.20
  -3  -4   4    3.44    0.20
   3   4   4    3.43    0.22
  -4  -4  -4    0.07    0.06
  -4  -4  -4    0.08    0.06
   4  -4   4   -0.05    0.07
   4   4  -4   -0.04    0.08
   4  -4   4    0.10    0.06
  -4  -4  -4    0.08    0.07
  -4  -4   4    0.08    0.04
   4   4   4    0.15    0.11
   4   4   4    0.07    0.07
  -4  -4   4   -0.01    0.04
   4  -4  -4    0.02    0.12
   4  -4  -4   -0.02    0.06
  -4  -4   4    0.02    0.07
  -5  -4  -4    0.81    0.10
   5  -4   4    0.80    0.11
   5  -4   4    0.57    0.16
   5  -4   4    0.91    0.10
  -5  -4  -4    0.54    0.11
  -5  -4  -4    0.67    0.10
   5   4  -4    1.10    0.14
   5   4  -4    0.68    0.09
   5  -4  -4    0.88    0.11
  -5  -4   4    0.73    0.09
   5  -4  -4    0.88    0.16
   5   4   4    0.72    0.12
  -5  -4   4    0.73    0.09
   6   4  -4    0.12    0.06
   6  -4   4   -0.01    0.07
  -6  -4  -4    0.15    0.07
   6   4  -4    0.10    0.05
  -6  -4  -4    0.10    0.08
   6  -4   4    0.02    0.06
  -6  -4  -4    0.31    0.08
   6  -4  -4    0.06    0.05
   6   4   4    0.13    0.06
  -6  -4   4    0.12    0.05
  -6  -4   4    0.06    0.05
   6   4   4    0.11    0.05
   7   4  -4    1.78    0.13
  -7  -4  -4    1.86    0.12
  -7  -4  -4    1.70    0.15
   7   4  -4    1.82    0.12
   7  -4   4    1.86    0.15
  -7  -4   4    1.47    0.13
   7   4   4    1.77    0.13
  -7  -4   4    1.70    0.12
   7  -4  -4    1.92    0.13
   7   4   4    1.54    0.13
  -7   4  -4    1.73    0.15
  -8  -4  -4    0.10    0.03
   8   4  -4    0.06    0.04
  -8  -4   4    0.02    0.04
   8  -4  -4    0.00    0.04
   8   4   4    0.00    0.03
   0  -5   4   -0.04    0.05
   0   5   4    0.03    0.06
   0   5  -4    0.04    0.05
   0  -5  -4    0.08    0.07
   1  -5   4   20.21    1.15
   1   5  -4   22.65    1.15
  -1   5   4   23.09    1.16
  -1  -5  -4   23.38    1.15
   1   5   4   22.94    1.16
  -1   5  -4   26.36    1.16
   1  -5  -4   22.53    1.14
  -1  -5   4   25.53    1.16
   2  -5   4    3.72    0.25
   2  -5   4    3.92    0.23
  -2  -5  -4    3.84    0.25
  -2   5   4    3.80    0.24
  -2  -5  -4    3.75    0.25
   2   5  -4    3.97    0.24
  -2  -5  -4    4.01    0.25
  -2  -5  -4    3.92    0.23
  -2  -5  -4    3.72    0.23
   2  -5   4    3.72    0.22
  -2  -5   4    3.90    0.23
  -2  -5   4    4.04    0.26
   2   5   4    3.91    0.25
  -2   5  -4    3.79    0.24
  -2  -5   4    3.64    0.24
  -2  -5   4    3.86    0.24
  -2  -5   4    3.67    0.22
  -2  -5   4    4.36    0.23
  -3  -5  -4   -0.06    0.07
  -3  -5  -4    0.21    0.07
   3  -5   4   -0.03    0.06
  -3  -5  -4    0.04    0.07
   3   5  -4    0.10    0.08
   3  -5   4    0.02    0.07
   3  -5   4    0.09    0.09
  -3  -5  -4    0.09    0.06
  -3  -5  -4    0.07    0.06
  -3  -5   4    0.00    0.07
  -3  -5   4    0.00    0.05
  -3  -5   4   -0.03    0.06
   3   5   4   -0.01    0.10
  -3  -5   4    0.02    0.07
  -3  -5   4   -0.01    0.05
   3  -5  -4    0.07    0.08
   3  -5  -4    0.11    0.10
   4  -5   4    8.06    0.42
  -4  -5  -4    7.83    0.42
  -4  -5  -4    7.92    0.43
  -4  -5  -4    7.96    0.43
   4  -5   4    8.98    0.44
  -4  -5  -4    7.32    0.42
   4   5   4    7.64    0.42
  -4  -5   4    7.90    0.42
  -4  -5   4    7.97    0.41
  -4  -5   4    7.44    0.41
   4  -5  -4    7.10    0.43
   4  -5  -4    7.60    0.43
  -4  -5   4    8.39    0.42
  -5  -5  -4   15.46    0.86
  -5  -5  -4   16.95    0.85
   5  -5   4   16.93    0.86
   5   5  -4   16.97    0.85
   5  -5   4   18.19    0.85
  -5  -5  -4   17.59    0.86
  -5  -5   4   15.89    0.86
   5  -5  -4   18.24    0.86
  -5  -5   4   16.48    0.85
   5   5   4   17.35    0.86
  -6  -5  -4    3.09    0.19
   6   5  -4    3.06    0.19
  -6  -5  -4    2.68    0.21
  -6  -5  -4    3.12    0.19
   6  -5   4    3.11    0.19
   6  -5  -4    3.04    0.20
  -6  -5   4    3.07    0.18
   6   5   4    3.09    0.19
   6   5   4    3.07    0.19
  -6  -5   4    2.68    0.19
  -7  -5  -4    1.39    0.10
  -7  -5  -4    1.18    0.15
   7   5  -4    1.44    0.10
   7   5   4    1.33    0.11
   7   5   4    1.40    0.10
  -7  -5   4    1.61    0.13
  -7  -5   4    1.37    0.09
   7  -5  -4    1.51    0.12
   0  -6  -4    6.15    0.35
   0   6   4    6.82    0.37
   0  -6   4    6.65    0.36
   0  -6  -4    6.38    0.35
   0  -6   4    6.08    0.34
   0  -6  -4    5.72    0.35
   0  -6   4    6.38    0.34
   0  -6   4    5.94    0.33
   0  -6  -4    5.89    0.34
   0  -6   4    6.22    0.35
   0  -6  -4    6.18    0.34
   0   6  -4    5.78    0.36
   1  -6   4    2.80    0.20
  -1  -6  -4    3.08    0.20
  -1  -6  -4    2.92    0.20
  -1  -6  -4    2.77    0.21
   1  -6   4    3.08    0.22
  -1   6   4    3.03    0.24
   1  -6   4    2.93    0.21
   1   6  -4    3.30    0.23
  -1  -6  -4    3.24    0.22
   1  -6   4    3.07    0.18
   1  -6   4    3.17    0.19
  -1  -6  -4    2.60    0.23
   1  -6  -4    3.05    0.21
  -1  -6   4    3.63    0.22
   1  -6  -4    3.00    0.22
   1  -6  -4    3.09    0.20
  -1  -6   4    2.80    0.20
  -1  -6   4    3.15    0.23
  -1  -6   4    3.18    0.20
   1   6   4    2.65    0.23
  -1   6  -4    3.34    0.24
   1  -6  -4    2.75    0.21
  -1  -6   4    3.21    0.19
  -1  -6   4    3.13    0.19
  -2  -6  -4   31.83    1.45
   2  -6   4   28.97    1.44
  -2  -6  -4   26.73    1.43
  -2  -6  -4   28.64    1.44
  -2  -6  -4   29.21    1.43
   2   6  -4   29.67    1.45
  -2  -6  -4   29.41    1.43
  -2   6   4   29.50    1.47
   2  -6   4   26.29    1.43
   2  -6   4   29.58    1.42
   2  -6   4   28.69    1.42
  -2  -6  -4   31.00    1.45
   2   6   4   26.65    1.46
   2  -6  -4   28.81    1.44
  -2  -6   4   29.66    1.43
   2  -6  -4   29.57    1.44
   2  -6  -4   28.16    1.43
  -2  -6   4   29.72    1.43
   2  -6  -4   28.57    1.43
   2  -6  -4   25.44    1.43
  -2  -6   4   32.37    1.45
  -2  -6   4   29.75    1.43
  -2  -6   4   31.20    1.43
  -3  -6  -4    0.49    0.11
  -3  -6  -4    0.55    0.12
  -3  -6  -4    0.37    0.11
   3  -6   4    0.45    0.11
  -3  -6  -4    0.59    0.09
  -3  -6  -4    0.54    0.11
   3  -6   4    0.52    0.12
   3  -6   4    0.39    0.10
  -3  -6  -4    0.43    0.11
  -3  -6   4    0.54    0.08
   3   6   4    0.37    0.08
   3  -6  -4    0.90    0.16
  -3  -6   4    0.48    0.09
   3  -6  -4    0.53    0.11
   3  -6  -4    0.40    0.10
  -3  -6   4    0.61    0.10
  -3  -6   4    0.41    0.07
  -3  -6   4    0.43    0.07
  -4  -6  -4    3.99    0.25
  -4  -6  -4    4.06    0.23
   4  -6   4    4.06    0.24
   4  -6   4    3.74    0.25
  -4  -6  -4    3.52    0.25
  -4  -6  -4    4.20    0.24
   4  -6   4    3.95    0.25
  -4  -6  -4    3.96    0.24
  -4  -6   4    3.86    0.23
  -4  -6   4    3.89    0.24
  -4  -6   4    3.94    0.23
   4  -6  -4    3.78    0.26
  -4  -6   4    4.08    0.23
   4   6   4    3.83    0.25
  -5  -6  -4    5.06    0.28
   5   6  -4    4.75    0.27
   5  -6   4    4.82    0.27
  -5  -6  -4    4.86    0.27
  -5  -6  -4    4.25    0.29
   5  -6   4    4.41    0.28
   5  -6  -4    4.79    0.29
  -5  -6   4    5.26    0.27
   5   6   4    5.18    0.28
  -5  -6   4    4.51    0.28
  -6  -6  -4    0.43    0.08
   6   6  -4    0.41    0.06
  -6  -6  -4    0.38    0.13
  -6  -6  -4    0.35    0.07
   6  -6   4    0.28    0.07
  -6  -6   4    0.26    0.06
   6   6   4    0.40    0.08
   6   6   4    0.36    0.07
   6  -6  -4    0.35    0.10
  -6  -6   4    0.49    0.10
   7   6  -4    0.78    0.07
  -7  -6  -4    0.82    0.07
   7   6   4    0.75    0.08
  -7  -6   4    0.77    0.06
   0  -7   4   -0.06    0.04
   0  -7  -4   -0.14    0.11
   0  -7  -4   -0.02    0.05
   0  -7   4    0.01    0.06
   0  -7   4   -0.10    0.07
   0  -7   4    0.05    0.06
   0  -7  -4    0.14    0.08
   0  -7   4    0.06    0.05
   0  -7  -4    0.07    0.06
   0  -7  -4    0.01    0.06
   1  -7   4    7.19    0.37
   1  -7   4    6.50    0.39
  -1  -7  -4    6.96    0.37
   1  -7   4    5.86    0.39
   1  -7   4    7.11    0.38
  -1  -7  -4    6.63    0.37
  -1  -7  -4    7.45    0.39
  -1  -7  -4    6.88    0.38
  -1  -7  -4    6.55    0.39
   1  -7   4    6.78    0.36
   1  -7  -4    6.44    0.37
   1  -7  -4    7.25    0.37
   1  -7  -4    6.66    0.39
   1  -7  -4    6.92    0.38
  -1  -7   4    6.95    0.37
  -1  -7   4    7.78    0.39
  -1  -7   4    6.76    0.36
  -1  -7   4    6.88    0.37
  -1  -7   4    7.19    0.40
  -2  -7  -4   16.60    0.84
  -2  -7  -4   17.10    0.84
  -2  -7  -4   16.89    0.85
  -2  -7  -4   16.58    0.84
  -2  -7  -4   15.84    0.84
   2  -7   4   17.46    0.83
   2  -7   4   16.61    0.83
  -2  -7  -4   16.84    0.86
   2  -7   4   15.92    0.85
   2  -7   4   14.59    0.84
  -2  -7   4   17.03    0.84
  -2  -7   4   16.80    0.86
   2  -7  -4   16.31    0.84
   2  -7  -4   16.88    0.84
  -2  -7   4   16.97    0.83
  -2  -7   4   17.20    0.83
   2  -7  -4   17.00    0.84
   2  -7  -4   16.76    0.85
  -2  -7   4   17.02    0.84
   3  -7   4    2.00    0.16
  -3  -7  -4    1.80    0.19
  -3  -7  -4    1.98    0.14
   3  -7   4    1.97    0.17
  -3  -7  -4    2.03    0.16
  -3  -7  -4    1.88    0.15
  -3  -7  -4    1.65    0.15
   3  -7   4    1.98    0.15
  -3  -7  -4    2.14    0.17
  -3  -7   4    1.94    0.13
  -3  -7   4    2.10    0.17
  -3  -7   4    2.11    0.15
  -3  -7   4    2.01    0.14
  -3  -7   4    1.94    0.14
   3  -7  -4    1.72    0.18
   3  -7  -4    1.58    0.18
   4  -7   4    0.10    0.06
  -4  -7  -4    0.11    0.06
   4  -7   4    0.06    0.08
   4   7  -4    0.07    0.05
  -4  -7  -4    0.04    0.11
  -4  -7  -4    0.13    0.05
  -4  -7  -4    0.13    0.06
  -4  -7  -4    0.06    0.06
  -4  -7   4    0.14    0.05
  -4  -7   4    0.02    0.05
  -4  -7   4    0.21    0.05
  -4  -7   4    0.14    0.08
  -4  -7   4    0.08    0.05
  -5  -7  -4   11.69    0.57
  -5  -7  -4   11.52    0.61
   5  -7   4   11.37    0.57
   5   7  -4   10.81    0.57
  -5  -7  -4   10.43    0.58
   5   7   4   11.51    0.58
  -5  -7   4   11.52    0.57
  -5  -7   4   11.98    0.60
  -5  -7   4   11.26    0.56
   6   7  -4   26.26    1.25
  -6  -7  -4   23.96    1.25
  -6  -7  -4   27.16    1.24
  -6  -7   4   25.80    1.25
   6   7   4   24.79    1.25
   0  -8   4   24.28    1.24
   0  -8  -4   25.16    1.25
   0  -8   4   25.31    1.24
   0  -8   4   24.71    1.24
   0  -8   4   26.33    1.26
   0  -8  -4   25.26    1.25
   0  -8  -4   24.67    1.25
   0  -8  -4   26.94    1.26
  -1  -8  -4    8.77    0.45
   1  -8   4    8.87    0.44
   1  -8   4    8.62    0.45
  -1  -8  -4    8.84    0.46
   1  -8   4    7.57    0.47
   1  -8   4    8.56    0.44
  -1  -8  -4    9.03    0.46
  -1  -8  -4    8.64    0.45
   1  -8   4    8.48    0.46
  -1  -8  -4    8.62    0.46
  -1  -8   4    8.37    0.44
   1  -8  -4    9.21    0.45
   1  -8  -4    8.71    0.45
  -1  -8   4    9.09    0.47
  -1  -8   4    8.13    0.44
   1  -8  -4    8.98    0.46
   1  -8  -4    8.58    0.46
  -1  -8   4    8.46    0.44
  -1  -8   4    7.38    0.47
  -2  -8  -4   17.36    0.81
   2  -8   4   14.44    0.83
   2  -8   4   14.86    0.81
  -2  -8  -4   16.30    0.81
   2  -8   4   16.34    0.80
  -2  -8  -4   16.98    0.82
  -2  -8  -4   16.91    0.82
   2  -8   4   16.71    0.80
  -2  -8  -4   16.88    0.82
  -2  -8   4   16.27    0.80
   2  -8  -4   15.97    0.81
   2  -8  -4   16.68    0.82
  -2  -8   4   15.18    0.83
  -2  -8   4   16.12    0.80
  -2  -8   4   16.25    0.81
   2  -8  -4   14.74    0.81
  -2  -8   4   17.05    0.82
   2  -8  -4   16.43    0.81
  -3  -8  -4    0.06    0.04
   3  -8   4    0.12    0.06
  -3  -8  -4   -0.01    0.05
  -3  -8  -4    0.11    0.07
  -3  -8  -4    0.01    0.04
   3  -8   4   -0.02    0.11
   3  -8   4    0.08    0.07
   3  -8   4    0.06    0.05
  -3  -8   4   -0.05    0.03
  -3  -8   4    0.05    0.05
  -3  -8   4    0.05    0.04
  -3  -8   4    0.02    0.04
   3  -8  -4   -0.08    0.08
  -3  -8   4   -0.13    0.08
  -4  -8  -4    7.77    0.41
   4  -8   4    7.95    0.41
  -4  -8  -4    8.21    0.40
   4   8  -4    7.84    0.41
  -4  -8  -4    8.22    0.41
  -4  -8  -4    7.95    0.41
  -4  -8   4    8.10    0.41
  -4  -8   4    8.30    0.45
  -4  -8   4    7.43    0.40
  -4  -8   4    7.69    0.40
   5   8  -4    0.72    0.07
  -5  -8  -4    0.76    0.08
  -5  -8  -4    0.71    0.07
   5   8   4    0.85    0.07
  -5  -8   4    0.73    0.07
   0  -9  -4    0.02    0.03
   0  -9  -4    0.03    0.06
   0  -9   4    0.00    0.03
   0  -9   4    0.01    0.06
   0  -9   4   -0.04    0.12
   0  -9  -4    0.02    0.05
   0  -9   4    0.01    0.04
   0  -9  -4   -0.08    0.04
   0  -9   4    0.02    0.03
  -1  -9  -4    0.03    0.04
  -1  -9  -4    0.03    0.04
  -1  -9  -4    0.00    0.03
   1  -9   4    0.04    0.06
   1  -9   4   -0.01    0.03
  -1  -9  -4    0.00    0.06
   1  -9   4    0.01    0.13
   1  -9   4    0.04    0.04
   1  -9   4    0.02    0.04
  -1  -9   4    0.03    0.03
  -1  -9   4    0.06    0.06
   1  -9  -4    0.02    0.03
   1  -9  -4    0.00    0.08
   1  -9  -4    0.00    0.05
   1  -9  -4    0.03    0.05
  -1  -9   4   -0.01    0.03
  -1  -9   4   -0.03    0.03
  -1  -9   4    0.05    0.12
  -2  -9  -4    4.30    0.23
  -2  -9  -4    4.21    0.23
   2  -9   4    4.47    0.24
   2  -9   4    4.06    0.24
  -2  -9  -4    4.14    0.24
   2  -9   4    4.34    0.23
  -2  -9  -4    4.45    0.24
   2   9  -4    4.48    0.24
   2  -9  -4    4.56    0.23
   2  -9  -4    4.53    0.24
  -2  -9   4    4.13    0.23
  -2  -9   4    4.21    0.23
  -2  -9   4    4.40    0.25
  -2  -9   4    3.91    0.28
  -2  -9   4    4.22    0.23
  -3  -9  -4    0.95    0.08
  -3  -9  -4    0.86    0.07
   3   9  -4    0.89    0.08
   3  -9   4    0.89    0.09
  -3  -9  -4    0.92    0.07
  -3  -9  -4    0.90    0.10
  -3  -9   4    0.74    0.07
  -3  -9   4    0.94    0.07
  -3  -9   4    0.95    0.09
  -4  -9  -4    8.93    0.45
   4   9  -4    8.18    0.44
  -4  -9  -4    9.34    0.44
  -4  -9   4    8.84    0.44
   4   9   4    8.92    0.45
  -4  -9   4    9.36    0.45
   0 -10   4    8.66    0.46
   0 -10   4    9.63    0.46
   0 -10   4    9.17    0.45
   0 -10  -4    9.62    0.46
   0 -10  -4    9.33    0.46
   0 -10  -4    8.76    0.46
  -1 -10  -4    4.94    0.25
  -1 -10  -4    4.97    0.25
   1 -10   4    4.88    0.25
   1 -10   4    4.95    0.25
  -1 -10  -4    4.79    0.25
  -1 -10   4    4.83    0.25
   1 -10  -4    5.00    0.25
  -1 -10   4    4.65    0.25
  -1 -10   4    4.40    0.25
   1 -10  -4    5.26    0.25
  -2 -10  -4   13.96    0.68
  -2 -10  -4   13.75    0.68
  -2 -10  -4   14.44    0.67
  -2 -10   4   12.99    0.68
  -2 -10   4   14.17    0.67
  -2 -10   4   14.04    0.67
   2  10   4   13.42    0.68
   0   0   5    0.01    0.01
   0   0  -5    0.05    0.02
  -1   0   5    0.02    0.02
   1   0   5    0.04    0.01
   1   0  -5    0.03    0.02
   2   0   5    0.03    0.01
   2   0  -5    0.01    0.02
   2   0   5    0.04    0.02
   3   0  -5    0.00    0.03
  -3   0   5    0.04    0.03
   3   0   5    0.02    0.02
  -4   0   5    0.01    0.03
   4   0  -5   -0.04    0.05
   5   0   5    0.09    0.06
  -5   0  -5    0.09    0.04
  -5   0   5   -0.03    0.03
   5   0  -5    0.15    0.13
   5   0   5    0.02    0.07
   5   0  -5    0.05    0.07
   5   0  -5   -0.02    0.04
   6   0  -5    0.04    0.04
  -6   0   5    0.01    0.06
   6   0   5   -0.01    0.04
  -6   0   5   -0.01    0.07
   6   0  -5    0.03    0.08
  -7   0   5    0.06    0.07
   7   0   5    0.00    0.05
  -7   0  -5    0.06    0.06
  -7   0   5    0.02    0.06
  -8   0  -5   -0.02    0.07
  -8   0  -5    0.04    0.04
  -8   0   5    0.01    0.10
   8   0  -5    0.02    0.06
   8   0   5    0.07    0.04
   0   1  -5    0.02    0.01
   0   1   5    0.01    0.02
   0  -1   5    0.01    0.02
   0  -1  -5    0.01    0.02
  -1   1   5   48.26    2.33
   1   1  -5   49.86    2.33
   1  -1  -5   47.89    2.33
  -1  -1   5   48.40    2.33
   1   1   5   47.55    2.32
   2   1  -5    7.12    0.39
   2  -1   5    7.40    0.39
   2   1   5    8.94    0.39
   2  -1  -5    7.60    0.39
   3   1  -5   47.98    2.53
   3  -1   5   54.07    2.54
  -3  -1   5   54.84    2.53
   3   1   5   55.12    2.53
   3  -1  -5   50.63    2.54
   4  -1   5   59.60    2.70
   4   1  -5   52.88    2.70
  -4   1   5   55.39    2.69
  -4  -1  -5   59.73    2.70
   4   1   5   51.63    2.69
   4  -1  -5   51.75    2.70
  -4  -1   5   59.40    2.69
   5  -1   5    0.39    0.11
  -5  -1  -5    0.58    0.08
   5   1  -5    0.57    0.10
  -5   1   5    0.65    0.08
   5  -1   5    0.68    0.11
   5   1  -5    0.49    0.11
   5   1  -5    0.47    0.17
  -5  -1   5    0.52    0.07
   5  -1  -5    0.66    0.10
   5  -1  -5    0.49    0.14
   5  -1  -5    0.62    0.16
   5   1   5    0.47    0.11
  -5  -1   5    0.46    0.11
   6   1  -5    1.19    0.12
  -6  -1  -5    0.95    0.11
  -6   1   5    1.18    0.11
   6  -1   5    1.10    0.12
   6   1  -5    0.91    0.12
   6  -1   5    1.08    0.13
  -6  -1   5    1.11    0.10
   6  -1  -5    0.98    0.11
  -6   1  -5    1.02    0.11
   6   1   5    1.12    0.13
  -6  -1   5    0.89    0.11
  -7  -1  -5    1.10    0.12
   7  -1   5    0.91    0.11
   7   1  -5    0.92    0.09
  -7   1   5    0.82    0.12
   7   1  -5    0.82    0.12
  -7  -1   5    0.80    0.10
  -7   1  -5    0.86    0.11
   7  -1  -5    1.01    0.13
  -7  -1   5    0.80    0.10
   7   1   5    0.92    0.10
   7  -1  -5    0.82    0.09
   8  -1   5    0.64    0.08
  -8  -1  -5    0.76    0.11
   8   1  -5    0.68    0.07
  -8  -1  -5    0.62    0.08
   8   1  -5    0.70    0.10
   8   1   5    0.75    0.08
  -8   1  -5    0.70    0.11
   8  -1  -5    0.83    0.11
   8  -1  -5    0.68    0.07
  -8   1  -5    0.70    0.08
  -8  -1   5    0.67    0.11
   0   2  -5  173.91    7.36
   0  -2   5  132.26    7.33
   1   2  -5   18.08    0.92
   1  -2  -5   19.01    0.92
  -1   2  -5   19.01    0.91
  -1   2  -5   20.66    0.91
   1   2   5   17.48    0.92
  -2  -2  -5   13.64    0.65
   2  -2   5   12.94    0.66
   2   2  -5   12.84    0.65
   2   2   5   13.20    0.65
   2  -2  -5   13.95    0.66
  -2  -2   5   12.90    0.65
   3  -2   5   17.34    0.88
   3   2  -5   17.40    0.87
  -3  -2  -5   18.25    0.88
  -3  -2   5   17.45    0.87
   3  -2  -5   17.85    0.88
   3   2   5   18.29    0.87
  -4  -2  -5    6.39    0.33
   4  -2   5    5.80    0.32
   4  -2  -5    5.71    0.33
  -4  -2   5    6.22    0.32
   4   2   5    5.90    0.33
  -5   2   5   33.49    1.54
   5   2  -5   30.81    1.56
   5   2  -5   29.88    1.54
   5  -2   5   32.63    1.54
   5  -2   5   30.50    1.55
  -5  -2  -5   27.83    1.54
   5   2  -5   31.11    1.54
  -5  -2  -5   34.65    1.55
   5  -2  -5   31.16    1.54
  -5  -2   5   33.59    1.54
   5   2   5   32.18    1.55
   5   2   5   30.13    1.55
   5  -2  -5   31.17    1.56
  -5  -2   5   31.68    1.54
   6   2  -5   23.26    1.15
  -6   2   5   23.06    1.14
   6  -2   5   24.19    1.14
   6  -2   5   24.14    1.15
   6   2  -5   23.37    1.14
  -6  -2  -5   24.03    1.16
  -6  -2   5   22.13    1.14
  -6  -2   5   22.85    1.13
   6  -2  -5   22.86    1.14
   6   2   5   20.35    1.15
   6   2   5   24.34    1.15
   6  -2  -5   22.33    1.15
   7  -2   5    1.02    0.12
  -7  -2  -5    0.68    0.10
   7   2  -5    0.79    0.09
   7   2  -5    1.00    0.11
  -7  -2  -5    0.86    0.10
   7  -2  -5    0.80    0.09
  -7  -2   5    0.76    0.10
   7   2   5    0.81    0.10
  -7   2  -5    0.71    0.11
  -7  -2   5    0.92    0.09
   7  -2  -5    0.65    0.13
  -8  -2  -5    0.22    0.05
   8   2  -5    0.19    0.05
  -8  -2  -5    0.08    0.07
   8   2  -5    0.20    0.05
   8  -2   5    0.11    0.04
  -8  -2   5    0.28    0.07
   8  -2  -5    0.20    0.05
  -8   2  -5    0.22    0.08
   8   2   5    0.19    0.06
  -8  -2   5    0.18    0.07
   0  -3   5   -0.02    0.04
   0   3  -5    0.02    0.02
   1   3  -5   52.57    2.45
   1  -3   5   53.34    2.46
  -1   3  -5   50.16    2.45
   1   3   5   52.90    2.46
  -1   3  -5   44.71    2.44
  -1  -3   5   51.04    2.45
   2  -3   5    8.04    0.46
  -2  -3  -5    9.56    0.46
   2   3  -5    9.73    0.46
   2   3   5    8.85    0.46
   2  -3  -5    9.33    0.47
  -2  -3   5    8.95    0.46
  -2   3  -5    9.75    0.45
  -2   3  -5    8.85    0.46
  -3  -3  -5   42.62    1.99
   3  -3   5   39.17    1.99
   3   3  -5   40.63    1.99
   3  -3  -5   41.66    2.00
  -3  -3   5   39.86    1.99
   3  -3  -5   42.69    1.98
   3   3   5   40.43    1.99
   4   3  -5    2.29    0.17
   4   3  -5    2.63    0.17
  -4  -3  -5    2.83    0.17
  -4  -3  -5    2.57    0.18
   4  -3   5    2.59    0.17
  -4  -3  -5    2.36    0.19
   4  -3   5    2.16    0.18
   4   3   5    2.52    0.19
   4  -3  -5    2.86    0.20
   4   3   5    2.69    0.18
   4  -3  -5    2.32    0.17
  -4  -3   5    2.45    0.16
   4  -3  -5    1.99    0.22
  -4  -3   5    2.50    0.15
  -5   3   5   22.01    1.09
   5   3  -5   22.12    1.10
  -5  -3  -5   20.82    1.10
  -5  -3  -5   23.52    1.11
   5  -3   5   22.21    1.11
   5  -3   5   23.96    1.11
  -5  -3  -5   23.91    1.10
   5  -3   5   21.85    1.10
   5   3  -5   21.54    1.10
  -5  -3   5   22.29    1.10
   5  -3  -5   22.05    1.10
  -5  -3   5   21.69    1.09
   5  -3  -5   19.96    1.11
   5   3   5   22.52    1.11
   6  -3   5   15.44    0.74
   6  -3   5   14.84    0.75
   6   3  -5   14.75    0.74
  -6  -3  -5   15.60    0.75
  -6  -3  -5   14.38    0.76
   6   3  -5   15.31    0.74
  -6  -3  -5   14.24    0.74
  -6  -3   5   15.41    0.74
   6   3   5   15.00    0.75
   6  -3  -5   14.32    0.75
   6  -3  -5   14.52    0.74
  -6  -3   5   13.80    0.74
   6   3   5   13.61    0.75
  -7  -3  -5   20.17    1.04
   7   3  -5   20.23    1.02
   7   3  -5   21.99    1.03
  -7  -3  -5   22.14    1.03
   7  -3   5   18.87    1.03
  -7  -3   5   21.53    1.02
  -7   3  -5   20.19    1.04
   7  -3  -5   21.33    1.03
   7   3   5   22.68    1.04
   7   3   5   19.86    1.03
  -7  -3   5   19.22    1.03
  -8  -3  -5    5.61    0.29
   8   3  -5    5.93    0.30
   8  -3   5    5.82    0.30
   8   3  -5    5.43    0.29
  -8  -3  -5    5.31    0.32
   8  -3  -5    5.59    0.29
   8   3   5    5.56    0.30
  -8  -3   5    5.50    0.29
   0  -4  -5   71.48    3.60
   0   4  -5   74.18    3.60
   0  -4   5   79.21    3.61
   0   4   5   74.06    3.61
   1  -4   5  126.19    5.61
   1   4  -5  120.40    5.60
  -1  -4  -5  118.79    5.60
   1   4   5  115.08    5.61
  -1  -4   5  100.02    5.60
  -1   4  -5  118.83    5.60
   2  -4   5  100.46    5.22
  -2  -4  -5  103.17    5.22
   2   4  -5  107.49    5.22
   2   4   5  109.07    5.23
  -2  -4   5  114.05    5.22
  -2   4  -5  116.81    5.21
  -3  -4  -5    0.49    0.11
   3   4  -5    0.44    0.08
  -3  -4  -5    0.33    0.08
   3  -4   5    0.34    0.12
  -3  -4  -5    0.66    0.14
   3  -4   5    0.40    0.08
  -3  -4   5    0.39    0.06
   3   4   5    0.41    0.09
  -3  -4   5    0.24    0.08
  -3  -4   5    0.34    0.09
  -4  -4  -5    0.14    0.07
  -4  -4  -5    0.00    0.06
  -4  -4  -5    0.24    0.07
   4  -4   5    0.05    0.09
   4  -4   5    0.12    0.06
   4  -4   5    0.17    0.08
  -4  -4   5    0.20    0.06
   4  -4  -5   -0.09    0.11
  -4  -4   5   -0.01    0.06
   4   4   5    0.27    0.13
   4  -4  -5    0.08    0.06
   4   4   5    0.14    0.06
  -4  -4   5    0.08    0.04
  -5  -4  -5    8.23    0.46
  -5  -4  -5    9.20    0.46
   5  -4   5    8.76    0.45
  -5  -4  -5    8.78    0.45
   5  -4   5    8.80    0.46
   5   4  -5    8.60    0.45
  -5  -4   5    7.93    0.45
   5   4   5    8.91    0.46
  -5  -4   5    8.24    0.44
   5  -4  -5    8.57    0.45
   5  -4  -5    8.12    0.47
   6   4  -5    9.65    0.48
   6  -4   5    9.81    0.49
  -6  -4  -5    8.10    0.50
  -6  -4  -5    9.62    0.49
   6  -4   5    7.78    0.49
   6   4  -5    9.75    0.49
  -6  -4  -5    9.62    0.49
   6   4   5    9.92    0.49
  -6  -4   5    8.66    0.49
   6   4   5    9.99    0.49
   6  -4  -5    9.35    0.49
  -6  -4   5    9.30    0.48
   7   4  -5    2.13    0.14
   7  -4   5    2.37    0.16
  -7  -4  -5    1.93    0.14
   7   4  -5    2.07    0.14
  -7  -4  -5    2.00    0.16
  -7  -4   5    1.95    0.15
   7  -4  -5    2.14    0.14
  -7   4  -5    2.05    0.16
   7   4   5    1.92    0.14
  -7  -4   5    1.98    0.13
   7   4   5    2.00    0.15
   8   4  -5    0.38    0.06
  -8  -4  -5    0.32    0.05
  -8  -4   5    0.36    0.06
   8  -4  -5    0.37    0.06
   8   4   5    0.38    0.05
   0  -5  -5    0.02    0.07
   0   5  -5   -0.03    0.05
   0   5   5    0.02    0.05
   0  -5   5    0.03    0.05
  -1   5   5    1.53    0.14
   1  -5   5    1.85    0.13
  -1  -5  -5    1.95    0.15
   1   5  -5    1.60    0.14
  -1   5  -5    1.69    0.13
  -1  -5   5    1.72    0.13
   1   5   5    1.63    0.14
   2   5  -5   12.05    0.61
  -2  -5  -5   11.19    0.60
   2  -5   5   10.27    0.60
  -2  -5  -5   11.49    0.61
  -2  -5  -5   10.18    0.60
  -2  -5  -5   12.67    0.61
  -2  -5  -5   12.03    0.60
   2  -5   5   11.70    0.60
  -2  -5  -5   11.42    0.60
   2  -5   5   11.01    0.59
  -2  -5   5   12.65    0.60
  -2  -5   5   11.68    0.59
   2   5   5   12.33    0.62
  -2  -5   5   11.49    0.59
  -2  -5   5   12.53    0.60
  -2  -5   5   11.77    0.59
   2  -5  -5   11.62    0.61
   2  -5  -5   11.76    0.61
  -3  -5  -5    1.96    0.17
  -3  -5  -5    2.47    0.19
  -3  -5  -5    2.02    0.16
   3  -5   5    2.05    0.16
   3   5  -5    2.16    0.18
  -3  -5  -5    2.61    0.19
   3  -5   5    2.10    0.16
  -3  -5  -5    2.18    0.19
  -3  -5  -5    2.12    0.16
   3  -5   5    1.93    0.18
   3  -5  -5    2.07    0.21
  -3  -5   5    2.34    0.16
  -3  -5   5    2.42    0.17
   3   5   5    1.95    0.20
  -3  -5   5    2.19    0.17
  -3  -5   5    2.05    0.15
   3  -5  -5    2.22    0.20
   3  -5  -5    2.11    0.20
  -3  -5   5    2.27    0.15
  -4  -5  -5   74.37    3.56
   4  -5   5   72.50    3.56
  -4  -5  -5   72.43    3.56
   4  -5   5   80.64    3.58
  -4  -5  -5   73.97    3.56
   4  -5   5   72.13    3.55
  -4  -5  -5   70.52    3.57
   4   5   5   78.96    3.57
   4  -5  -5   78.13    3.57
   4  -5  -5   64.67    3.56
  -4  -5   5   70.41    3.55
  -4  -5   5   70.11    3.55
  -4  -5   5   78.71    3.57
  -5  -5  -5   22.31    1.11
   5  -5   5   22.37    1.12
   5   5  -5   21.67    1.11
  -5  -5  -5   19.15    1.12
  -5  -5  -5   22.20    1.11
   5  -5   5   23.29    1.11
  -5  -5   5   20.93    1.11
   5  -5  -5   23.94    1.12
  -5  -5   5   22.38    1.10
   5   5   5   23.65    1.12
   5  -5  -5   23.98    1.12
   6  -5   5   34.24    1.61
   6   5  -5   33.30    1.61
  -6  -5  -5   28.33    1.62
  -6  -5  -5   31.13    1.60
  -6  -5  -5   32.80    1.61
   6   5   5   34.95    1.62
  -6  -5   5   33.17    1.60
  -6  -5   5   30.72    1.62
   6   5   5   35.32    1.61
   6  -5  -5   35.30    1.62
   7   5  -5    7.54    0.38
  -7  -5  -5    6.89    0.40
  -7  -5  -5    7.27    0.38
   7   5   5    7.37    0.38
   7   5   5    7.21    0.38
  -7  -5   5    7.32    0.37
   7  -5  -5    7.88    0.38
  -7  -5   5    7.23    0.39
   0  -6  -5   70.57    3.34
   0  -6  -5   68.15    3.33
   0  -6   5   65.90    3.32
   0  -6   5   68.63    3.33
   0  -6  -5   68.64    3.32
   0  -6   5   76.87    3.35
   0  -6   5   70.14    3.33
   0  -6  -5   70.06    3.33
   0   6  -5   71.50    3.34
   0   6   5   62.48    3.35
   0  -6  -5   65.91    3.33
   0  -6   5   66.83    3.32
  -1  -6  -5    3.07    0.25
  -1  -6  -5    2.98    0.21
   1  -6   5    3.50    0.23
   1  -6   5    3.23    0.22
  -1  -6  -5    3.20    0.22
  -1  -6  -5    3.44    0.21
  -1   6   5    3.50    0.25
   1   6  -5    3.26    0.24
  -1  -6  -5    3.36    0.22
   1  -6   5    3.09    0.20
  -1  -6  -5    3.16    0.24
  -1  -6  -5    3.55    0.22
   1  -6   5    3.02    0.21
   1  -6   5    3.24    0.19
   1  -6  -5    3.09    0.21
  -1  -6   5    3.26    0.21
   1  -6  -5    3.18    0.25
  -1  -6   5    3.56    0.22
   1  -6  -5    3.11    0.22
  -1   6  -5    3.14    0.25
  -1  -6   5    3.12    0.20
  -1  -6   5    3.23    0.20
   1  -6  -5    3.28    0.23
  -1  -6   5    3.23    0.20
   1  -6  -5    3.20    0.21
   1   6   5    3.06    0.24
  -2  -6  -5    9.34    0.47
   2  -6   5    8.12    0.44
   2  -6   5    8.22    0.46
  -2  -6  -5    9.25    0.47
  -2  -6  -5    8.78    0.46
  -2  -6  -5    7.52    0.46
   2  -6   5    7.80    0.46
  -2  -6  -5    8.59    0.45
   2  -6   5    8.86    0.45
  -2  -6  -5    8.60    0.46
   2  -6  -5    8.67    0.47
  -2  -6   5    8.75    0.45
  -2  -6   5    8.55    0.45
   2  -6  -5    7.45    0.47
  -2  -6   5    8.94    0.45
   2  -6  -5    8.50    0.46
  -2  -6   5    9.38    0.47
  -2  -6   5    9.03    0.45
   2  -6  -5    8.65    0.47
  -3  -6  -5    4.26    0.27
  -3  -6  -5    4.15    0.26
  -3  -6  -5    4.13    0.26
   3  -6   5    3.86    0.26
  -3  -6  -5    4.08    0.25
   3  -6   5    4.35    0.27
   3  -6   5    4.32    0.25
  -3  -6  -5    4.76    0.28
  -3  -6  -5    4.62    0.28
  -3  -6   5    4.65    0.25
  -3  -6   5    4.29    0.25
   3  -6  -5    4.14    0.28
  -3  -6   5    4.72    0.27
   3  -6  -5    4.54    0.28
  -3  -6   5    4.39    0.25
   3  -6  -5    4.60    0.28
  -3  -6   5    4.33    0.25
  -4  -6  -5   23.11    1.15
  -4  -6  -5   21.94    1.15
  -4  -6  -5   22.61    1.17
   4  -6   5   22.93    1.15
   4  -6   5   23.39    1.15
  -4  -6  -5   23.74    1.15
   4  -6   5   21.96    1.17
  -4  -6  -5   25.00    1.16
   4   6  -5   22.66    1.15
  -4  -6   5   22.18    1.15
  -4  -6   5   21.24    1.16
   4  -6  -5   24.20    1.16
   4  -6  -5   24.69    1.16
  -4  -6   5   24.85    1.15
   4   6   5   23.90    1.16
  -4  -6   5   24.20    1.15
   5  -6   5   14.86    0.79
   5   6  -5   15.87    0.78
  -5  -6  -5   14.29    0.80
  -5  -6  -5   14.80    0.78
  -5  -6  -5   16.84    0.78
   5  -6   5   15.57    0.78
  -5  -6   5   14.31    0.79
  -5  -6   5   15.59    0.78
   5  -6  -5   16.90    0.79
   5   6   5   16.78    0.79
   6  -6   5    0.53    0.08
  -6  -6  -5    0.31    0.07
  -6  -6  -5    0.43    0.14
   6   6  -5    0.40    0.06
  -6  -6  -5    0.53    0.08
  -6  -6   5    0.44    0.06
   6  -6  -5    0.35    0.09
   6   6   5    0.58    0.08
  -6  -6   5    0.41    0.09
   6   6   5    0.46    0.07
  -7  -6  -5    0.72    0.07
   7   6  -5    0.83    0.07
  -7  -6   5    0.72    0.06
   7   6   5    0.80    0.08
   0  -7  -5    0.04    0.06
   0  -7   5    0.10    0.05
   0  -7   5    0.02    0.07
   0  -7   5    0.01    0.06
   0  -7  -5   -0.03    0.08
   0  -7   5    0.02    0.06
   0  -7   5    0.02    0.04
   0  -7  -5    0.04    0.05
   0  -7  -5    0.09    0.06
  -1  -7  -5    5.06    0.30
   1  -7   5    5.26    0.30
  -1  -7  -5    5.35    0.32
   1  -7   5    4.40    0.31
  -1  -7  -5    5.00    0.30
   1  -7   5    5.35    0.29
   1  -7   5    5.29    0.29
  -1  -7  -5    5.19    0.30
  -1  -7  -5    5.58    0.32
   1  -7   5    5.23    0.31
   1  -7  -5    5.04    0.30
  -1  -7   5    5.63    0.31
  -1  -7   5    5.26    0.32
   1  -7  -5    5.42    0.30
   1  -7  -5    5.47    0.31
  -1  -7   5    5.27    0.29
   1  -7  -5    5.54    0.32
  -1  -7   5    5.24    0.29
  -1  -7   5    5.09    0.29
  -2  -7  -5   18.16    0.94
   2  -7   5   17.74    0.94
   2  -7   5   19.09    0.93
  -2  -7  -5   20.15    0.95
   2  -7   5   16.40    0.95
  -2  -7  -5   19.49    0.94
  -2  -7  -5   18.30    0.94
   2  -7   5   19.50    0.93
  -2  -7  -5   18.73    0.94
   2  -7  -5   19.29    0.95
   2  -7  -5   19.16    0.95
  -2  -7   5   19.04    0.94
   2  -7  -5   16.87    0.94
  -2  -7   5   19.00    0.93
  -2  -7   5   19.74    0.93
  -2  -7   5   19.08    0.93
  -2  -7   5   19.12    0.96
   2  -7  -5   18.97    0.94
   3  -7   5    5.91    0.32
  -3  -7  -5    5.97    0.34
   3  -7   5    5.29    0.33
  -3  -7  -5    5.88    0.32
  -3  -7  -5    5.51    0.32
  -3  -7  -5    5.69    0.32
  -3  -7  -5    5.52    0.33
   3  -7   5    5.16    0.32
  -3  -7  -5    5.93    0.35
   3   7   5    5.64    0.33
  -3  -7   5    5.71    0.32
   3  -7  -5    6.45    0.34
  -3  -7   5    5.79    0.34
  -3  -7   5    5.70    0.31
   3  -7  -5    6.21    0.34
  -3  -7   5    5.55    0.31
  -3  -7   5    5.94    0.31
   4  -7   5    1.49    0.16
  -4  -7  -5    1.81    0.14
  -4  -7  -5    1.90    0.13
  -4  -7  -5    1.62    0.19
   4  -7   5    1.58    0.14
   4  -7   5    1.60    0.14
  -4  -7  -5    1.47    0.14
   4   7  -5    1.79    0.13
  -4  -7  -5    1.65    0.14
  -4  -7   5    1.68    0.15
  -4  -7   5    1.87    0.12
   4   7   5    1.37    0.15
  -4  -7   5    1.72    0.12
  -4  -7   5    1.84    0.13
  -4  -7   5    1.71    0.12
   5   7  -5    2.07    0.14
   5  -7   5    2.19    0.15
  -5  -7  -5    2.02    0.14
  -5  -7  -5    2.33    0.22
  -5  -7  -5    2.22    0.14
   5   7   5    2.00    0.17
  -5  -7   5    2.31    0.14
  -5  -7   5    2.19    0.17
   6   7  -5    3.74    0.20
  -6  -7  -5    4.07    0.21
  -6  -7  -5    3.81    0.21
  -6  -7   5    3.88    0.20
   6   7   5    3.43    0.21
   0  -8  -5    0.52    0.09
   0  -8  -5    0.46    0.12
   0  -8   5    0.30    0.06
   0  -8  -5    0.40    0.09
   0  -8   5    0.51    0.11
   0  -8  -5    0.33    0.09
   0  -8   5    0.32    0.11
   0  -8   5    0.45    0.07
   0  -8   5    0.31    0.08
   1  -8   5    3.85    0.23
   1  -8   5    3.46    0.20
  -1  -8  -5    3.50    0.22
   1  -8   5    3.80    0.21
  -1  -8  -5    3.81    0.23
  -1  -8  -5    3.81    0.22
   1  -8   5    3.00    0.24
  -1  -8  -5    3.57    0.22
   1  -8   5    3.31    0.21
   1  -8  -5    3.63    0.22
   1  -8  -5    3.66    0.23
  -1  -8   5    3.48    0.24
  -1  -8   5    3.81    0.23
   1  -8  -5    3.55    0.22
  -1  -8   5    3.57    0.20
  -1  -8   5    3.59    0.20
   1  -8  -5    3.32    0.23
  -1  -8   5    3.40    0.21
  -2  -8  -5    1.41    0.14
  -2  -8  -5    1.30    0.11
   2  -8   5    1.18    0.16
   2  -8   5    1.34    0.10
  -2  -8  -5    1.34    0.11
   2  -8   5    1.51    0.11
   2  -8   5    1.33    0.13
  -2  -8  -5    1.26    0.14
  -2  -8  -5    1.48    0.13
  -2  -8   5    1.45    0.10
  -2  -8   5    1.44    0.10
  -2  -8   5    1.16    0.12
   2  -8  -5    1.21    0.12
  -2  -8   5    1.27    0.15
   2  -8  -5    1.08    0.15
  -2  -8   5    1.24    0.10
   2  -8  -5    1.15    0.13
   3  -8   5    2.27    0.20
   3  -8   5    2.35    0.16
  -3  -8  -5    2.37    0.15
   3  -8   5    2.30    0.16
  -3  -8  -5    2.79    0.16
  -3  -8  -5    2.53    0.17
   3   8  -5    2.53    0.15
  -3  -8  -5    2.20    0.16
  -3  -8   5    2.07    0.14
  -3  -8   5    2.33    0.19
  -3  -8   5    2.57    0.15
  -3  -8   5    2.68    0.16
  -3  -8   5    2.38    0.14
   3  -8  -5    2.39    0.17
   4   8  -5    0.66    0.07
  -4  -8  -5    0.63    0.09
  -4  -8  -5    0.64    0.09
  -4  -8  -5    0.68    0.07
  -4  -8  -5    0.72    0.09
   4  -8   5    0.70    0.09
  -4  -8   5    0.71    0.07
  -4  -8   5    0.84    0.13
  -4  -8   5    0.70    0.08
  -4  -8   5    0.64    0.08
  -5  -8  -5    3.28    0.17
  -5  -8  -5    3.29    0.18
   5   8  -5    2.96    0.17
   5   8   5    2.99    0.18
  -5  -8   5    3.15    0.18
   0  -9  -5    0.05    0.07
   0  -9   5   -0.04    0.11
   0  -9   5    0.01    0.03
   0  -9   5    0.05    0.03
   0  -9   5   -0.03    0.04
   0  -9  -5   -0.05    0.04
   0  -9  -5   -0.01    0.04
   0  -9  -5    0.05    0.04
   0  -9   5    0.03    0.05
   1  -9   5    0.60    0.16
  -1  -9  -5    0.47    0.06
  -1  -9  -5    0.42    0.07
  -1  -9  -5    0.42    0.07
   1  -9   5    0.41    0.08
   1  -9   5    0.35    0.06
   1  -9   5    0.53    0.07
  -1  -9  -5    0.38    0.09
   1  -9   5    0.33    0.05
   1  -9  -5    0.27    0.06
   1  -9  -5    0.31    0.08
  -1  -9   5    0.50    0.05
  -1  -9   5    0.37    0.06
   1  -9  -5    0.42    0.10
  -1  -9   5    0.44    0.05
  -1  -9   5    0.48    0.08
  -1  -9   5    0.48    0.15
   1  -9  -5    0.40    0.07
  -2  -9  -5    7.22    0.37
   2  -9   5    6.49    0.37
  -2  -9  -5    7.19    0.37
  -2  -9  -5    7.24    0.37
   2  -9   5    6.99    0.36
   2  -9   5    7.52    0.37
   2  -9  -5    7.51    0.37
  -2  -9   5    7.52    0.38
  -2  -9   5    6.82    0.36
   2  -9  -5    7.38    0.37
  -2  -9   5    6.96    0.37
  -2  -9   5    6.89    0.36
  -2  -9   5    6.88    0.40
   3  -9   5    0.40    0.09
   3  -9   5    0.57    0.08
  -3  -9  -5    0.40    0.06
   3   9  -5    0.50    0.08
  -3  -9  -5    0.42    0.06
  -3  -9  -5    0.45    0.07
  -3  -9  -5    0.41    0.11
  -3  -9   5    0.36    0.07
  -3  -9   5    0.36    0.05
  -3  -9   5    0.50    0.05
   4   9  -5    0.00    0.04
  -4  -9  -5    0.14    0.04
  -4  -9   5    0.09    0.04
  -4  -9   5    0.16    0.05
   4   9   5    0.05    0.03
   0 -10   5    9.93    0.50
   0 -10   5   10.86    0.51
   0 -10  -5   10.36    0.51
   0 -10   5    9.08    0.51
   0 -10  -5   10.63    0.51
   0 -10  -5   10.37    0.51
  -1 -10  -5    0.01    0.03
   1 -10   5    0.06    0.07
  -1 -10  -5    0.04    0.03
   1 -10   5    0.07    0.03
   1 -10   5    0.03    0.03
  -1 -10  -5    0.04    0.03
  -1 -10   5    0.05    0.03
  -1 -10   5    0.02    0.05
  -1 -10   5    0.02    0.02
   1 -10  -5    0.08    0.03
   1 -10  -5    0.09    0.04
  -2 -10  -5    1.71    0.10
  -2 -10   5    1.64    0.11
   0   0   6    0.53    0.04
   0   0  -6    0.58    0.04
   1   0  -6  205.46    8.65
   1   0   6  178.92    8.61
  -1   0   6  154.32    8.62
   2   0  -6   62.25    2.78
   2   0   6   52.97    2.77
  -3   0   6   42.06    2.11
   3   0  -6   43.91    2.12
   3   0   6   45.56    2.12
   4   0  -6   10.33    0.50
  -4   0   6    8.96    0.48
  -5   0   6    3.04    0.18
   5   0   6    2.99    0.19
   5   0  -6    2.85    0.20
   5   0   6    2.79    0.21
   5   0  -6    2.87    0.19
  -6   0   6   25.43    1.21
   6   0  -6   23.63    1.20
  -6   0   6   24.97    1.19
   6   0  -6   24.10    1.21
   6   0   6   24.44    1.21
  -6   0  -6   22.55    1.21
  -7   0   6   49.10    2.42
   7   0   6   51.23    2.43
   7   0  -6   50.08    2.42
   7   0  -6   53.20    2.43
  -7   0  -6   45.37    2.43
  -8   0  -6   11.61    0.58
  -8   0  -6   11.77    0.59
   8   0   6   11.10    0.58
   8   0  -6   11.42    0.58
   8   0  -6   11.31    0.57
   0   1   6    0.03    0.02
   0  -1  -6   -0.01    0.02
   0   1  -6    0.02    0.01
   0  -1   6    0.01    0.02
   1   1  -6   13.99    0.61
  -1   1   6   11.97    0.61
   1   1   6   12.69    0.61
  -1  -1   6   12.14    0.61
   1  -1  -6   11.31    0.61
   2   1  -6    0.21    0.03
   2  -1   6    0.26    0.05
   2  -1  -6    0.27    0.04
   2   1   6    0.28    0.05
   2   1   6    0.29    0.04
  -3   1   6  101.12    4.94
   3   1  -6   98.70    4.94
   3  -1   6  104.56    4.95
  -3  -1   6  100.59    4.94
   3   1   6  106.84    4.94
   3  -1  -6  105.48    4.95
  -4   1   6   15.93    0.77
  -4  -1  -6   16.09    0.78
   4   1  -6   15.07    0.78
   4  -1   6   16.01    0.78
   4  -1  -6   14.28    0.78
  -4  -1   6   16.10    0.77
  -5   1   6   54.26    2.45
  -5  -1  -6   46.36    2.45
   5   1  -6   50.53    2.48
   5  -1   6   52.19    2.46
   5   1  -6   48.10    2.45
   5  -1   6   52.65    2.46
   5   1  -6   50.35    2.45
  -5  -1  -6   54.69    2.47
   5   1   6   50.87    2.46
  -5  -1   6   51.79    2.45
   5  -1  -6   48.87    2.45
  -5  -1   6   46.17    2.45
   5  -1  -6   50.55    2.46
  -6   1   6    6.69    0.40
   6  -1   6    7.84    0.40
  -6  -1  -6    7.25    0.41
   6   1  -6    7.21    0.41
   6  -1   6    7.70    0.41
   6   1  -6    7.52    0.40
   6   1   6    8.01    0.41
  -6  -1   6    7.51    0.39
   6  -1  -6    7.63    0.41
  -6   1  -6    7.40    0.41
  -6  -1   6    7.33    0.40
   6  -1  -6    7.61    0.40
  -7   1   6   22.86    1.21
   7   1  -6   24.82    1.21
   7   1  -6   25.93    1.22
  -7  -1  -6   23.94    1.23
   7  -1   6   24.86    1.22
  -7  -1   6   25.30    1.20
   7   1   6   25.35    1.22
  -7  -1   6   23.35    1.21
  -7   1  -6   23.55    1.23
   7  -1  -6   25.37    1.22
   7  -1  -6   24.61    1.21
  -8  -1  -6    0.04    0.07
  -8  -1  -6    0.05    0.04
   8   1  -6    0.12    0.05
  -8   1  -6    0.28    0.10
   8  -1  -6    0.12    0.06
  -8  -1   6    0.25    0.09
   0  -2  -6  108.97    5.44
   0   2  -6  128.67    5.44
   0  -2   6  101.21    5.42
   1   2  -6  246.64   11.87
   1  -2   6  234.35   11.83
   1  -2  -6  258.12   11.92
   1   2   6  248.14   11.90
  -2  -2  -6    7.28    0.33
   2  -2   6    5.81    0.33
   2   2  -6    6.37    0.33
   2   2   6    6.59    0.33
  -2  -2   6    6.12    0.32
   2  -2  -6    6.26    0.33
   3  -2   6    0.34    0.06
   3   2  -6    0.45    0.06
  -3  -2  -6    0.56    0.07
   3  -2  -6    0.42    0.07
   3   2   6    0.55    0.06
  -3  -2   6    0.49    0.06
   4  -2   6    6.51    0.35
  -4  -2  -6    7.00    0.35
   4   2  -6    6.52    0.35
  -4   2   6    6.51    0.34
   4  -2  -6    6.34    0.37
   4   2   6    6.10    0.35
  -4  -2   6    6.97    0.34
  -5  -2  -6    6.77    0.36
  -5   2   6    7.16    0.35
  -5  -2  -6    6.19    0.37
   5   2  -6    6.37    0.36
   5   2  -6    6.60    0.39
   5  -2   6    6.71    0.37
   5   2  -6    6.31    0.35
   5  -2   6    6.86    0.36
  -5  -2   6    6.44    0.35
   5   2   6    6.89    0.37
  -5  -2   6    6.83    0.35
   5   2   6    6.24    0.38
   5  -2  -6    6.47    0.37
   5  -2  -6    5.52    0.41
   5  -2  -6    6.49    0.35
   6   2  -6   11.06    0.56
  -6   2   6   10.96    0.56
  -6  -2  -6   10.42    0.57
  -6  -2  -6   10.37    0.56
   6   2  -6   10.19    0.56
   6  -2   6   11.29    0.57
   6  -2   6   10.99    0.56
   6   2   6   10.20    0.57
  -6  -2   6   10.61    0.55
   6   2   6   10.96    0.57
  -6  -2   6   10.58    0.56
   6  -2  -6   10.95    0.55
   6  -2  -6   11.13    0.57
   7   2  -6    0.65    0.10
   7   2  -6    0.76    0.09
  -7  -2  -6    0.82    0.09
  -7  -2  -6    0.54    0.10
   7  -2   6    0.70    0.11
   7  -2  -6    0.78    0.08
  -7  -2   6    0.60    0.09
   7  -2  -6    0.74    0.12
  -7   2  -6    0.65    0.11
   7   2   6    0.74    0.10
  -7  -2   6    0.65    0.09
   8  -2   6    0.16    0.05
  -8  -2  -6    0.21    0.06
   8   2  -6    0.17    0.05
   8   2  -6    0.21    0.05
  -8  -2  -6    0.23    0.08
  -8   2  -6    0.11    0.07
  -8  -2   6    0.13    0.08
   8  -2  -6    0.11    0.03
   8   2   6    0.13    0.04
   0  -3   6    0.00    0.03
   0   3  -6    0.05    0.03
   1  -3   6    2.66    0.16
   1   3  -6    2.66    0.16
   1   3   6    2.57    0.16
  -1   3  -6    2.60    0.17
  -1  -3   6    3.24    0.16
   1  -3  -6    2.72    0.17
  -1   3  -6    3.13    0.15
   2   3  -6   11.24    0.57
  -2  -3  -6   10.59    0.58
   2  -3   6   10.83    0.58
  -2   3  -6   12.59    0.56
   2  -3  -6   11.87    0.58
  -2   3  -6   11.87    0.57
   2   3   6   11.30    0.58
  -2  -3   6   11.59    0.57
  -3  -3  -6   48.54    2.30
   3  -3   6   44.00    2.30
   3   3  -6   46.61    2.29
   3  -3  -6   50.35    2.31
   3   3   6   48.16    2.30
  -3  -3   6   46.33    2.29
  -4  -3  -6    8.43    0.43
   4   3  -6    7.99    0.42
   4   3  -6    8.17    0.43
   4  -3   6    7.67    0.43
  -4  -3  -6    8.40    0.43
   4  -3   6    8.67    0.43
  -4  -3  -6    7.52    0.43
   4  -3  -6    8.06    0.42
  -4  -3   6    8.54    0.42
   4   3   6    8.23    0.44
   4  -3  -6    7.27    0.45
   4   3   6    7.85    0.44
   4  -3  -6    8.33    0.45
  -4  -3   6    8.12    0.42
   5  -3   6   30.84    1.55
  -5  -3  -6   32.94    1.56
   5  -3   6   29.76    1.56
  -5  -3  -6   32.43    1.56
   5   3  -6   31.95    1.55
  -5  -3  -6   31.01    1.55
   5   3  -6   31.62    1.55
   5  -3   6   33.79    1.57
  -5  -3   6   32.30    1.55
   5   3   6   32.55    1.56
   5  -3  -6   31.29    1.55
   5  -3  -6   29.41    1.56
  -5  -3   6   31.61    1.55
   6  -3   6    0.50    0.10
   6   3  -6    0.62    0.11
   6  -3   6    0.26    0.08
  -6  -3  -6    0.43    0.12
   6   3  -6    0.42    0.08
  -6  -3  -6    0.35    0.10
  -6  -3  -6    0.44    0.09
  -6  -3   6    0.40    0.08
   6  -3  -6    0.76    0.13
   6   3   6    0.44    0.10
  -6  -3   6    0.64    0.08
   6   3   6    0.53    0.12
   6  -3  -6    0.40    0.08
  -7  -3  -6    5.28    0.28
   7   3  -6    5.35    0.28
   7   3  -6    4.85    0.27
  -7  -3  -6    4.32    0.29
   7  -3   6    4.48    0.28
   7   3   6    4.98    0.29
  -7   3  -6    4.94    0.29
   7   3   6    5.36    0.28
  -7  -3   6    5.30    0.27
   7  -3  -6    5.24    0.27
   7  -3  -6    4.79    0.29
  -7  -3   6    4.36    0.28
   8   3  -6    0.24    0.06
   8  -3   6    0.14    0.05
  -8  -3  -6    0.07    0.04
   8   3  -6    0.06    0.04
  -8  -3   6    0.14    0.05
   8   3   6    0.11    0.03
   0   4   6    0.61    0.07
   0  -4   6    0.59    0.08
   0   4  -6    0.62    0.07
  -1  -4  -6    2.19    0.15
   1   4  -6    2.21    0.14
   1  -4   6    2.25    0.15
   1   4   6    2.27    0.15
  -1   4  -6    2.18    0.13
  -1  -4   6    2.29    0.14
   2   4  -6    8.87    0.45
  -2  -4  -6    8.00    0.44
   2  -4   6    8.59    0.45
  -2  -4   6    8.75    0.44
   2   4   6    8.49    0.45
  -2   4  -6    8.88    0.43
   3  -4   6   64.12    3.24
   3  -4   6   61.96    3.24
  -3  -4  -6   68.63    3.24
   3   4  -6   71.11    3.24
  -3  -4  -6   62.86    3.24
  -3  -4  -6   69.48    3.25
  -3  -4  -6   64.96    3.24
  -3  -4   6   67.33    3.23
   3   4   6   69.54    3.25
  -3  -4   6   67.06    3.23
   3  -4  -6   65.95    3.24
  -3  -4   6   70.41    3.23
   4  -4   6    0.16    0.07
  -4  -4  -6    0.22    0.07
   4   4  -6    0.22    0.09
   4  -4   6    0.28    0.08
   4  -4   6    0.22    0.08
   4   4  -6    0.28    0.09
  -4  -4  -6    0.24    0.07
  -4  -4  -6    0.30    0.09
   4   4   6    0.30    0.14
   4  -4  -6    0.11    0.06
  -4  -4   6    0.25    0.06
   4  -4  -6    0.12    0.11
   4   4   6    0.34    0.07
  -4  -4   6    0.34    0.10
  -4  -4   6    0.26    0.06
   5   4  -6    8.21    0.42
   5  -4   6    7.98    0.43
  -5  -4  -6    7.86    0.43
   5  -4   6    8.37    0.44
  -5  -4  -6    8.23    0.43
  -5  -4   6    8.03    0.42
   5  -4  -6    8.13    0.43
  -5  -4   6    7.49    0.42
   5  -4  -6    7.54    0.45
   5   4   6    8.47    0.44
  -6  -4  -6    0.01    0.07
   6  -4   6    0.07    0.06
   6   4  -6    0.10    0.05
  -6  -4  -6    0.32    0.10
   6   4  -6    0.03    0.07
   6  -4  -6    0.15    0.09
   6  -4  -6    0.02    0.05
  -6  -4   6    0.04    0.05
  -6  -4   6    0.05    0.05
   6   4   6    0.18    0.07
   6   4   6    0.22    0.06
  -7  -4  -6    6.88    0.39
  -7  -4  -6    6.87    0.37
   7  -4   6    6.93    0.37
   7   4  -6    7.25    0.38
   7   4   6    7.24    0.38
  -7   4  -6    7.37    0.39
  -7  -4   6    6.87    0.38
   7  -4  -6    7.18    0.38
   7   4   6    7.53    0.38
  -7  -4   6    6.96    0.36
   8   4  -6    0.04    0.04
  -8  -4  -6    0.03    0.03
   8  -4  -6    0.05    0.03
  -8  -4   6    0.16    0.05
   8   4   6    0.04    0.03
   0   5   6   -0.06    0.05
   0  -5   6    0.02    0.05
   0   5  -6    0.01    0.06
  -1  -5  -6    2.75    0.21
  -1  -5  -6    2.69    0.19
   1  -5   6    3.48    0.20
  -1  -5  -6    2.88    0.22
  -1  -5  -6    3.07    0.20
   1  -5   6    2.97    0.21
   1  -5   6    3.11    0.19
  -1   5   6    3.37    0.21
   1   5  -6    3.20    0.20
   1   5   6    3.29    0.21
  -1  -5   6    2.81    0.19
  -1  -5   6    2.91    0.20
  -1  -5   6    3.36    0.20
  -1  -5   6    2.72    0.19
  -1   5  -6    3.07    0.19
  -2  -5  -6   12.70    0.68
  -2  -5  -6   13.13    0.67
  -2  -5  -6   13.86    0.69
   2  -5   6   13.09    0.66
  -2  -5  -6   13.60    0.68
   2   5  -6   13.54    0.68
  -2  -5  -6   14.29    0.68
  -2  -5  -6   11.26    0.68
   2  -5   6   12.07    0.68
   2  -5   6   13.15    0.66
   2  -5  -6   13.63    0.68
  -2  -5   6   13.35    0.67
   2  -5  -6   13.77    0.69
  -2  -5   6   13.33    0.66
  -2  -5   6   14.24    0.68
  -2  -5   6   13.13    0.66
   2  -5  -6   12.16    0.68
  -2  -5   6   13.76    0.67
   2   5   6   13.38    0.69
   2  -5  -6   12.80    0.68
  -3  -5  -6    5.26    0.31
  -3  -5  -6    5.15    0.29
   3  -5   6    5.16    0.30
   3  -5   6    5.20    0.28
  -3  -5  -6    4.39    0.29
  -3  -5  -6    4.92    0.30
   3  -5   6    4.72    0.29
   3   5  -6    5.13    0.31
  -3  -5  -6    5.01    0.31
  -3  -5  -6    5.07    0.29
  -3  -5   6    4.92    0.28
  -3  -5   6    5.50    0.29
   3   5   6    4.95    0.33
  -3  -5   6    4.97    0.28
   3  -5  -6    4.66    0.31
  -3  -5   6    5.39    0.28
   3  -5  -6    5.03    0.31
  -3  -5   6    4.76    0.28
   3  -5  -6    5.17    0.31
   4  -5   6   20.26    1.09
  -4  -5  -6   21.58    1.10
   4  -5   6   20.34    1.10
   4   5  -6   23.57    1.09
  -4  -5  -6   21.42    1.09
  -4  -5  -6   22.75    1.10
  -4  -5  -6   22.01    1.10
  -4  -5   6   22.05    1.08
   4   5   6   22.60    1.10
  -4  -5   6   21.29    1.08
   4  -5  -6   22.42    1.11
  -4  -5   6   22.54    1.10
   4  -5  -6   22.73    1.10
  -4  -5   6   22.40    1.09
   5  -5   6    0.60    0.11
   5   5  -6    0.59    0.09
  -5  -5  -6    0.58    0.11
  -5  -5  -6    0.68    0.10
  -5  -5  -6    0.68    0.10
   5  -5   6    0.60    0.11
   5  -5  -6    0.73    0.11
  -5  -5   6    0.53    0.09
   5   5   6    0.63    0.11
   5  -5  -6    0.81    0.15
  -5  -5   6    0.62    0.08
  -6  -5  -6    0.05    0.05
   6   5  -6    0.03    0.04
  -6  -5  -6    0.00    0.08
   6  -5   6    0.00    0.05
  -6  -5  -6    0.04    0.06
  -6  -5   6    0.02    0.04
   6  -5  -6    0.08    0.05
   6   5   6    0.00    0.05
  -6  -5   6    0.07    0.06
   6   5   6    0.12    0.06
  -7  -5  -6   -0.06    0.10
   7   5  -6    0.08    0.04
  -7  -5  -6    0.13    0.04
  -7  -5   6    0.23    0.09
  -7  -5   6    0.09    0.04
   7  -5  -6    0.03    0.04
   7   5   6    0.11    0.04
   7   5   6    0.08    0.05
   0  -6   6   48.33    2.34
   0  -6   6   48.70    2.35
   0  -6  -6   47.77    2.35
   0  -6   6   52.32    2.36
   0  -6   6   48.38    2.34
   0   6   6   43.60    2.37
   0  -6  -6   47.90    2.34
   0   6  -6   47.49    2.36
   0  -6  -6   48.25    2.35
   0  -6   6   48.74    2.34
   0  -6  -6   48.86    2.36
   0  -6  -6   48.49    2.35
   1  -6   6   10.54    0.54
   1  -6   6   10.69    0.54
  -1  -6  -6   10.47    0.55
  -1  -6  -6   10.74    0.56
   1   6  -6   10.77    0.57
  -1  -6  -6   10.53    0.56
   1  -6   6   10.21    0.55
   1  -6   6   10.77    0.56
   1  -6   6   11.13    0.56
  -1  -6  -6   10.71    0.55
  -1   6   6   10.33    0.59
  -1  -6  -6   11.22    0.57
  -1  -6   6   10.16    0.54
  -1  -6   6   10.60    0.54
   1  -6  -6   11.26    0.56
   1  -6  -6   10.08    0.55
   1  -6  -6    9.46    0.56
  -1  -6   6   10.76    0.56
   1  -6  -6   10.07    0.55
   1  -6  -6   10.62    0.56
  -1  -6   6   10.43    0.55
  -1  -6   6   10.66    0.54
   1   6   6   10.84    0.59
   2  -6   6    1.11    0.13
  -2  -6  -6    1.17    0.15
   2  -6   6    1.09    0.10
   2  -6   6    0.90    0.12
  -2   6   6    0.83    0.22
  -2  -6  -6    0.80    0.16
  -2  -6  -6    0.83    0.13
  -2  -6  -6    1.08    0.11
  -2  -6  -6    1.21    0.14
  -2  -6  -6    1.25    0.15
   2  -6   6    0.96    0.11
   2  -6  -6    1.26    0.14
   2  -6  -6    1.05    0.16
  -2  -6   6    1.03    0.11
   2  -6  -6    1.09    0.16
  -2  -6   6    1.00    0.10
  -2  -6   6    0.95    0.10
  -2  -6   6    1.10    0.11
   2  -6  -6    1.14    0.14
  -2  -6   6    1.16    0.12
  -3  -6  -6   42.53    2.03
   3  -6   6   42.19    2.02
   3  -6   6   39.27    2.01
  -3  -6  -6   41.56    2.03
  -3  -6  -6   44.16    2.04
  -3  -6  -6   43.16    2.03
   3  -6   6   37.75    2.03
   3  -6   6   36.41    2.04
  -3  -6  -6   43.32    2.03
  -3  -6  -6   38.78    2.02
  -3  -6   6   42.78    2.02
   3  -6  -6   42.19    2.03
  -3  -6   6   43.31    2.02
   3  -6  -6   41.49    2.03
  -3  -6   6   40.31    2.02
   3  -6  -6   45.11    2.04
  -3  -6   6   40.02    2.04
  -3  -6   6   43.32    2.02
  -4  -6  -6    2.72    0.20
   4  -6   6    2.60    0.20
  -4  -6  -6    2.24    0.18
   4   6  -6    2.84    0.18
  -4  -6  -6    2.71    0.20
  -4  -6  -6    2.65    0.21
   4  -6   6    2.61    0.19
   4  -6   6    2.74    0.18
  -4  -6  -6    2.68    0.18
   4  -6  -6    3.06    0.20
   4  -6  -6    3.09    0.22
  -4  -6   6    2.72    0.18
  -4  -6   6    2.55    0.17
  -4  -6   6    2.56    0.19
  -4  -6   6    2.67    0.17
   4   6   6    3.02    0.20
  -5  -6  -6    0.15    0.06
   5  -6   6    0.13    0.08
  -5  -6  -6    0.06    0.09
   5  -6   6    0.09    0.06
  -5  -6  -6    0.25    0.08
   5   6  -6    0.13    0.05
   5   6   6    0.28    0.09
   5  -6  -6    0.06    0.06
   5  -6  -6    0.07    0.10
  -5  -6   6    0.11    0.07
  -5  -6   6    0.10    0.05
  -6  -6  -6    1.40    0.17
  -6  -6  -6    1.39    0.11
   6   6  -6    1.43    0.10
  -6  -6  -6    1.33    0.11
   6  -6   6    1.52    0.11
   6  -6  -6    1.60    0.12
   6   6   6    1.35    0.11
   6   6   6    1.58    0.12
  -6  -6   6    1.50    0.10
  -6  -6   6    1.57    0.13
  -7  -6  -6    3.87    0.22
   7   6  -6    4.21    0.22
   7   6   6    4.24    0.22
  -7  -6   6    4.37    0.22
   7   6   6    4.22    0.22
   7  -6  -6    3.88    0.22
   0  -7  -6   -0.06    0.05
   0  -7   6    0.04    0.05
   0  -7  -6    0.05    0.06
   0  -7   6    0.03    0.04
   0  -7  -6    0.21    0.07
   0  -7   6    0.01    0.04
   0  -7  -6    0.01    0.10
   0  -7   6    0.07    0.06
   0  -7   6    0.09    0.06
   0  -7  -6   -0.13    0.07
   1  -7   6    9.98    0.51
   1  -7   6    9.90    0.51
  -1  -7  -6    9.78    0.53
   1  -7   6   10.19    0.53
   1  -7   6    9.23    0.54
   1  -7   6    9.27    0.50
  -1  -7  -6   10.31    0.53
  -1  -7  -6    9.53    0.52
  -1  -7  -6   10.01    0.52
   1  -7  -6   10.10    0.53
   1  -7  -6   10.21    0.53
  -1  -7   6   10.02    0.51
   1  -7  -6   10.04    0.52
  -1  -7   6   10.13    0.54
  -1  -7   6   10.16    0.52
  -1  -7   6   10.38    0.51
   1  -7  -6    9.46    0.53
   1  -7  -6   10.15    0.52
  -1  -7   6    9.63    0.51
  -2  -7  -6    1.15    0.14
   2  -7   6    1.21    0.13
   2  -7   6    1.13    0.10
  -2  -7  -6    1.19    0.13
  -2  -7  -6    1.21    0.12
   2  -7   6    1.16    0.14
  -2  -7  -6    1.09    0.12
  -2  -7  -6    1.11    0.14
   2  -7   6    1.09    0.10
   2  -7  -6    0.96    0.17
  -2  -7   6    1.17    0.10
  -2  -7   6    1.30    0.10
   2  -7  -6    1.39    0.16
   2  -7  -6    1.30    0.14
   2  -7  -6    1.00    0.13
  -2  -7   6    1.09    0.11
  -2  -7   6    1.02    0.10
  -2  -7   6    1.19    0.13
   3  -7   6   32.80    1.80
  -3  -7  -6   39.12    1.81
  -3  -7  -6   37.97    1.80
   3  -7   6   37.30    1.79
  -3  -7  -6   37.68    1.80
   3  -7   6   33.05    1.78
  -3  -7  -6   38.54    1.81
  -3  -7  -6   38.11    1.80
   3  -7  -6   32.21    1.80
  -3  -7   6   36.88    1.80
   3   7   6   37.29    1.80
   3  -7  -6   38.53    1.80
  -3  -7   6   35.02    1.82
  -3  -7   6   35.81    1.79
  -3  -7   6   38.24    1.79
   3  -7  -6   39.34    1.81
  -3  -7   6   38.00    1.79
   4  -7   6    1.15    0.12
  -4  -7  -6    1.11    0.10
  -4  -7  -6    1.00    0.12
  -4  -7  -6    1.17    0.18
   4  -7   6    1.08    0.14
   4   7  -6    1.05    0.10
   4  -7   6    0.79    0.11
  -4  -7  -6    1.02    0.12
  -4  -7  -6    1.14    0.11
  -4  -7   6    1.13    0.10
  -4  -7   6    1.00    0.10
   4  -7  -6    1.08    0.13
  -4  -7   6    1.09    0.10
  -4  -7   6    0.95    0.12
   4   7   6    1.33    0.13
   5   7  -6   48.54    2.40
  -5  -7  -6   49.25    2.40
  -5  -7  -6   53.79    2.40
   5  -7   6   49.63    2.40
  -5  -7   6   51.91    2.42
  -5  -7   6   48.03    2.40
   5   7   6   51.22    2.40
   5  -7  -6   44.16    2.40
   6   7  -6    1.63    0.10
  -6  -7  -6    1.70    0.11
  -6  -7  -6    1.62    0.11
   6   7   6    1.43    0.11
  -6  -7   6    1.59    0.10
   0  -8  -6    0.33    0.09
   0  -8   6    0.54    0.07
   0  -8   6    0.71    0.09
   0  -8   6    0.65    0.07
   0  -8  -6    0.72    0.10
   0  -8  -6    0.43    0.12
   0  -8   6    0.59    0.12
   0  -8   6    0.59    0.10
   0  -8  -6    0.48    0.10
  -1  -8  -6  117.11    5.49
  -1  -8  -6  115.80    5.50
  -1  -8  -6  113.54    5.49
   1  -8   6  112.55    5.48
   1  -8   6  112.27    5.48
   1  -8   6  118.54    5.50
  -1  -8  -6  117.77    5.50
   1  -8   6  116.29    5.48
  -1  -8   6  106.20    5.51
   1  -8  -6  110.16    5.49
  -1  -8   6  113.60    5.48
  -1  -8   6  113.33    5.48
  -1  -8   6  117.24    5.50
  -1  -8   6  109.23    5.49
   1  -8  -6  115.39    5.49
   1  -8  -6  114.27    5.50
   1  -8  -6  115.53    5.50
  -2  -8  -6   10.45    0.52
   2  -8   6    9.59    0.52
   2  -8   6   10.09    0.51
  -2  -8  -6   10.54    0.53
  -2  -8  -6   10.60    0.52
   2  -8   6    9.95    0.51
   2  -8   6    8.47    0.54
  -2  -8  -6   10.12    0.53
   2  -8  -6   10.85    0.53
  -2  -8   6    9.91    0.51
  -2  -8   6    9.80    0.51
  -2  -8   6   10.22    0.51
  -2  -8   6   10.19    0.53
  -2  -8   6    9.46    0.54
   2  -8  -6   10.24    0.53
   2  -8  -6   10.53    0.52
   3  -8   6    2.72    0.18
   3  -8   6    2.95    0.17
  -3  -8  -6    2.81    0.18
  -3  -8  -6    3.05    0.18
   3  -8   6    2.68    0.22
  -3  -8  -6    2.92    0.18
  -3  -8  -6    3.12    0.19
   3   8  -6    2.72    0.17
   3  -8  -6    2.87    0.19
  -3  -8   6    2.87    0.16
  -3  -8   6    2.77    0.16
   3  -8  -6    2.81    0.20
  -3  -8   6    2.46    0.17
  -3  -8   6    2.90    0.20
  -3  -8   6    2.80    0.17
   4   8  -6    4.35    0.23
   4  -8   6    4.10    0.24
  -4  -8  -6    4.44    0.24
  -4  -8  -6    4.51    0.24
  -4  -8  -6    4.46    0.24
  -4  -8  -6    4.05    0.24
  -4  -8   6    4.19    0.23
  -4  -8   6    4.34    0.24
  -4  -8   6    4.17    0.23
  -4  -8   6    4.56    0.27
  -5  -8  -6    0.32    0.07
  -5  -8  -6    0.44    0.06
   5   8  -6    0.35    0.05
   5   8  -6    0.26    0.06
  -5  -8   6    0.29    0.05
   5   8   6    0.36    0.06
   0  -9   6    0.11    0.05
   0  -9   6   -0.01    0.04
   0  -9  -6   -0.03    0.04
   0  -9  -6    0.02    0.04
   0  -9  -6   -0.03    0.06
   0  -9   6    0.04    0.03
   0  -9   6    0.04    0.03
   0  -9   6    0.07    0.11
   0  -9  -6    0.01    0.04
  -1  -9  -6    3.82    0.21
  -1  -9  -6    3.84    0.22
   1  -9   6    3.57    0.20
  -1  -9  -6    3.79    0.21
   1  -9   6    3.56    0.20
   1  -9   6    3.77    0.20
   1  -9   6    3.19    0.25
   1  -9   6    3.64    0.21
  -1  -9  -6    3.59    0.21
  -1  -9   6    3.56    0.25
  -1  -9   6    3.86    0.21
   1  -9  -6    3.63    0.22
   1  -9  -6    3.49    0.21
   1  -9  -6    3.63    0.21
   1  -9  -6    3.72    0.21
  -1  -9   6    3.60    0.20
  -1  -9   6    3.58    0.20
  -1  -9   6    3.67    0.20
   2  -9   6    0.09    0.03
  -2  -9  -6    0.09    0.04
  -2  -9  -6    0.05    0.04
  -2  -9  -6    0.05    0.04
   2  -9   6    0.03    0.04
  -2  -9   6    0.07    0.03
  -2  -9   6   -0.01    0.10
  -2  -9   6    0.03    0.05
   2  -9  -6    0.01    0.08
  -2  -9   6    0.06    0.03
   2  -9  -6    0.13    0.05
  -2  -9   6    0.06    0.03
   2  -9  -6   -0.02    0.06
  -3  -9  -6   15.08    0.73
   3  -9   6   14.98    0.73
  -3  -9  -6   16.06    0.73
   3  -9   6   13.53    0.73
  -3  -9  -6   14.38    0.74
  -3  -9   6   14.63    0.72
  -3  -9   6   14.85    0.73
  -3  -9   6   15.44    0.74
  -4  -9  -6    0.29    0.05
   4   9   6    0.27    0.05
  -4  -9   6    0.32    0.05
   0 -10   6    0.17    0.04
   0 -10  -6    0.25    0.06
   0 -10  -6    0.20    0.05
   0 -10  -6    0.15    0.03
   0 -10   6    0.15    0.03
   0 -10   6    0.13    0.05
  -1 -10  -6    1.84    0.11
  -1 -10  -6    1.70    0.11
   1 -10   6    1.77    0.10
   1 -10   6    1.83    0.11
   1 -10   6    1.46    0.12
  -1 -10  -6    1.90    0.11
   1 -10  -6    1.94    0.11
  -1 -10   6    1.90    0.11
  -1 -10   6    1.83    0.10
  -1 -10   6    1.88    0.10
   1 -10  -6    1.73    0.11
   0   0  -7    0.00    0.02
   0   0   7    0.04    0.02
  -1   0   7    0.01    0.03
   1   0  -7    0.04    0.02
  -1   0  -7    0.02    0.02
   1   0   7    0.04    0.02
   2   0   7    0.02    0.04
   2   0  -7    0.01    0.03
  -3   0   7    0.06    0.04
   3   0  -7    0.03    0.04
   3   0   7    0.06    0.04
  -4   0   7   -0.03    0.04
   4   0  -7   -0.04    0.05
   5   0  -7    0.06    0.13
   5   0  -7    0.01    0.07
  -5   0  -7    0.10    0.10
   5   0  -7   -0.06    0.04
   5   0   7   -0.01    0.06
  -5   0   7    0.06    0.05
   5   0   7    0.00    0.07
  -6   0  -7   -0.08    0.06
   6   0   7   -0.01    0.05
   6   0  -7   -0.02    0.04
   6   0  -7    0.00    0.07
  -6   0   7   -0.01    0.06
   7   0   7   -0.01    0.05
   7   0  -7    0.01    0.04
  -7   0  -7    0.05    0.07
   7   0  -7   -0.01    0.05
  -7   0   7    0.12    0.07
   8   0   7    0.01    0.03
  -8   0  -7    0.09    0.04
   8   0  -7    0.03    0.03
   8   0  -7    0.00    0.05
  -8   0  -7   -0.05    0.07
   0   1   7    0.11    0.04
   1   1  -7    0.02    0.02
  -1  -1   7    0.01    0.04
   1   1   7    0.09    0.03
   1  -1  -7    0.01    0.02
   2  -1   7   43.49    2.23
   2   1  -7   44.63    2.23
   2   1   7   53.20    2.22
   2  -1  -7   46.60    2.23
   2   1   7   48.27    2.22
  -2  -1   7   40.96    2.22
  -3   1   7    0.74    0.08
   3   1  -7    0.81    0.07
   3  -1   7    0.91    0.08
   3  -1  -7    0.90    0.08
   3   1   7    0.99    0.07
  -3  -1   7    0.94    0.07
   4   1  -7   17.96    0.88
  -4   1   7   16.77    0.86
   4  -1   7   17.30    0.87
  -4  -1  -7   18.15    0.87
   4  -1  -7   17.52    0.88
  -4  -1   7   17.03    0.86
   5   1  -7    1.44    0.13
  -5  -1  -7    1.62    0.17
  -5   1   7    1.66    0.13
   5  -1   7    1.80    0.14
  -5  -1  -7    1.79    0.14
   5   1  -7    1.61    0.14
   5   1  -7    1.35    0.19
   5  -1   7    1.93    0.17
   5  -1  -7    1.44    0.16
   5  -1  -7    1.33    0.20
   5   1   7    1.71    0.15
  -5  -1   7    1.80    0.16
  -5  -1   7    1.81    0.12
   5  -1  -7    1.59    0.13
   6   1  -7   10.49    0.54
   6  -1   7   10.60    0.54
  -6  -1  -7    9.26    0.59
   6  -1   7   10.65    0.55
  -6  -1  -7   10.03    0.55
  -6   1   7   10.83    0.54
   6   1  -7   11.04    0.54
   6  -1  -7   10.29    0.54
   6   1   7   11.02    0.55
  -6   1  -7   10.19    0.55
  -6  -1   7    9.83    0.53
   6  -1  -7   10.32    0.55
  -6  -1   7   10.17    0.53
   7   1  -7   36.69    1.71
   7  -1   7   35.45    1.73
   7   1  -7   36.98    1.73
  -7  -1  -7   31.79    1.73
   7  -1  -7   38.57    1.73
   7   1   7   35.80    1.73
   7  -1  -7   35.67    1.71
  -7   1  -7   33.90    1.73
  -7  -1   7   34.81    1.71
  -7  -1   7   31.42    1.71
   8   1  -7    0.21    0.06
   8   1  -7    0.20    0.05
  -8  -1  -7    0.05    0.07
  -8  -1  -7    0.20    0.06
  -8   1  -7    0.32    0.10
   8  -1  -7    0.24    0.08
   8   1   7    0.12    0.04
   8  -1  -7    0.25    0.05
   0  -2   7    0.39    0.06
   0  -2  -7    0.46    0.05
   0   2  -7    0.56    0.04
   0  -2   7    0.49    0.06
   1   2  -7   82.09    3.93
   1  -2   7   80.30    3.93
  -1  -2   7   82.14    3.93
   1  -2  -7   82.80    3.94
  -2  -2  -7  124.89    6.32
   2   2  -7  139.47    6.36
   2  -2   7  125.17    6.32
   2   2   7  143.27    6.35
   2  -2  -7  125.28    6.32
  -2  -2   7  131.83    6.31
   3  -2   7   25.00    1.29
   3   2  -7   25.29    1.28
  -3  -2  -7   27.45    1.29
   3   2   7   28.35    1.28
  -3  -2   7   26.17    1.28
   3  -2  -7   25.40    1.29
   4   2  -7    4.68    0.28
   4   2  -7    4.78    0.27
   4  -2   7    4.98    0.28
   4  -2   7    4.29    0.28
  -4  -2  -7    5.09    0.28
  -4   2   7    4.90    0.27
   4  -2  -7    4.71    0.29
   4   2   7    5.18    0.29
   4  -2  -7    4.93    0.28
  -4  -2   7    5.33    0.27
   5  -2   7    3.33    0.25
   5   2  -7    3.59    0.24
   5   2  -7    3.42    0.28
   5   2  -7    3.82    0.23
  -5  -2  -7    4.01    0.25
   5  -2   7    3.94    0.23
  -5   2   7    3.69    0.22
  -5  -2  -7    4.33    0.24
   5   2   7    3.74    0.28
   5  -2  -7    3.30    0.32
  -5  -2   7    3.79    0.23
   5   2   7    4.00    0.25
  -5  -2   7    3.90    0.22
   5  -2  -7    4.02    0.23
   5  -2  -7    3.88    0.25
  -6  -2  -7    0.55    0.11
   6  -2   7    0.75    0.10
   6   2  -7    0.54    0.09
  -6  -2  -7    0.52    0.14
   6   2  -7    0.61    0.10
   6  -2   7    0.78    0.13
   6  -2  -7    0.80    0.12
   6   2   7    0.52    0.11
  -6  -2   7    0.65    0.09
   6  -2  -7    0.73    0.09
  -6  -2   7    0.58    0.10
   7   2  -7    0.76    0.09
   7  -2   7    0.92    0.11
  -7  -2  -7    0.87    0.10
  -7  -2  -7    0.91    0.12
  -7  -2   7    0.76    0.10
  -7   2  -7    0.82    0.12
   7  -2  -7    0.81    0.09
   7  -2  -7    0.80    0.12
  -7  -2   7    0.85    0.09
   7   2   7    0.71    0.10
   8   2  -7    1.36    0.10
   8  -2   7    1.38    0.11
   8   2  -7    1.22    0.09
  -8  -2  -7    1.26    0.13
  -8  -2  -7    1.25    0.10
   8   2   7    1.27    0.10
   8  -2  -7    1.31    0.09
  -8   2  -7    1.35    0.13
   8  -2  -7    1.48    0.13
   1  -3   7    3.90    0.21
   1   3  -7    3.76    0.20
  -1  -3   7    3.63    0.20
   1   3   7    3.66    0.21
  -1   3  -7    3.44    0.22
  -1   3  -7    4.39    0.20
   1  -3  -7    3.61    0.21
  -2  -3  -7  156.21    7.88
   2   3  -7  176.03    7.89
   2  -3   7  156.80    7.89
  -2  -3   7  163.85    7.88
   2  -3  -7  160.37    7.90
   2   3   7  172.76    7.93
   3   3  -7   15.05    0.73
  -3  -3  -7   14.58    0.73
   3  -3   7   13.06    0.73
   3  -3  -7   14.82    0.74
   3   3   7   14.83    0.73
  -3  -3   7   14.56    0.72
   4  -3   7    8.18    0.45
   4  -3   7    8.08    0.44
   4   3  -7    8.57    0.45
  -4  -3  -7    8.36    0.45
  -4  -3  -7    8.25    0.44
   4  -3   7    7.60    0.44
   4   3  -7    8.78    0.44
  -4  -3  -7    8.68    0.45
  -4  -3   7    8.25    0.44
   4  -3  -7    8.66    0.46
   4   3   7    8.22    0.46
   4  -3  -7    8.14    0.44
  -4  -3   7    8.87    0.44
   4   3   7    8.55    0.45
   4  -3  -7    8.66    0.48
  -5  -3  -7    7.11    0.39
   5  -3   7    7.22    0.39
  -5  -3  -7    7.22    0.39
   5   3  -7    7.02    0.38
  -5  -3  -7    7.10    0.38
   5  -3   7    6.13    0.40
   5  -3   7    6.83    0.38
   5   3  -7    6.48    0.38
   5   3   7    7.23    0.39
   5  -3  -7    6.83    0.39
   5  -3  -7    7.42    0.38
  -5  -3   7    6.90    0.37
  -5  -3   7    7.52    0.38
   6  -3   7   21.76    1.18
   6  -3   7   24.47    1.18
  -6  -3  -7   24.79    1.19
   6   3  -7   24.50    1.18
   6   3  -7   25.30    1.18
  -6  -3  -7   21.33    1.19
  -6  -3  -7   24.81    1.18
  -6  -3   7   21.97    1.18
   6  -3  -7   23.62    1.18
   6   3   7   23.76    1.19
  -6  -3   7   24.15    1.17
   6  -3  -7   23.67    1.19
   6   3   7   26.08    1.20
   7   3  -7   22.22    1.03
   7  -3   7   20.85    1.03
  -7  -3  -7   19.04    1.04
   7  -3   7   20.30    1.03
  -7  -3  -7   21.86    1.03
   7   3  -7   20.48    1.02
  -7   3  -7   20.06    1.04
   7  -3  -7   21.46    1.02
  -7  -3   7   21.13    1.02
   7  -3  -7   18.68    1.03
  -7  -3   7   19.86    1.03
   7   3   7   22.86    1.04
  -8  -3  -7    8.41    0.45
   8   3  -7    9.55    0.46
   8   3   7    8.94    0.46
   8  -3  -7    9.04    0.45
   0  -4   7   86.47    4.19
   0   4  -7   87.21    4.18
   1   4  -7    1.40    0.10
   1  -4   7    1.52    0.11
  -1  -4  -7    1.44    0.13
   1   4   7    1.48    0.12
  -1  -4   7    1.46    0.11
  -1   4  -7    1.34    0.10
   2   4  -7   59.41    2.89
   2  -4   7   57.09    2.89
  -2  -4  -7   59.76    2.88
  -2   4  -7   64.42    2.88
   2   4   7   58.11    2.89
  -2  -4   7   59.07    2.88
  -3  -4  -7  115.64    5.86
   3  -4   7  116.94    5.86
  -3  -4  -7  116.87    5.86
   3  -4   7  110.46    5.87
   3   4  -7  125.24    5.87
  -3  -4  -7  132.88    5.88
   3  -4   7  120.34    5.86
  -3  -4  -7  124.43    5.86
   3  -4  -7  125.43    5.86
   3  -4  -7  106.31    5.87
  -3  -4   7  130.88    5.86
  -3  -4   7  125.80    5.86
   3   4   7  130.53    5.88
  -3  -4   7  124.41    5.86
  -4  -4  -7    7.79    0.41
  -4  -4  -7    7.83    0.43
   4  -4   7    7.02    0.41
   4  -4   7    7.74    0.42
  -4  -4  -7    7.83    0.41
   4  -4   7    7.44    0.40
   4   4  -7    7.74    0.40
  -4  -4  -7    7.74    0.42
   4   4  -7    7.26    0.42
  -4  -4   7    8.00    0.40
   4  -4  -7    7.51    0.41
  -4  -4   7    7.80    0.40
   4  -4  -7    6.77    0.43
   4   4   7    8.28    0.42
   4   4   7    7.30    0.46
   5   4  -7    0.75    0.10
  -5  -4  -7    0.69    0.11
  -5  -4  -7    0.86    0.11
  -5  -4  -7    0.80    0.11
   5  -4   7    0.71    0.11
   5  -4   7    0.78    0.11
  -5  -4   7    0.61    0.08
   5  -4  -7    0.72    0.10
  -5  -4   7    0.70    0.09
   5   4   7    0.72    0.12
   5  -4  -7    0.64    0.15
   6  -4   7    2.40    0.16
  -6  -4  -7    2.01    0.17
   6   4  -7    2.20    0.15
  -6  -4  -7    2.20    0.16
  -6  -4  -7    2.28    0.17
  -6  -4   7    1.98    0.15
   6  -4  -7    2.33    0.16
   6  -4  -7    2.15    0.19
   6   4   7    2.32    0.17
  -6  -4   7    2.23    0.15
   6   4   7    2.62    0.17
   7   4  -7    0.73    0.08
  -7  -4  -7    0.87    0.12
  -7  -4  -7    0.69    0.08
   7  -4   7    0.81    0.09
   7  -4  -7    0.74    0.08
  -7  -4   7    0.82    0.10
  -7  -4   7    0.83    0.07
  -7   4  -7    0.69    0.12
   7   4   7    0.82    0.09
   7   4   7    0.65    0.10
  -8  -4  -7    6.76    0.35
   8   4  -7    6.40    0.35
   8  -4  -7    7.47    0.35
   0  -5   7   -0.06    0.04
   0  -5   7    0.00    0.05
   0  -5  -7   -0.01    0.06
   0   5   7    0.01    0.07
   0  -5  -7    0.07    0.09
   0  -5   7    0.06    0.07
   0  -5   7    0.06    0.05
   0   5  -7    0.00    0.06
   0  -5  -7   -0.05    0.08
   1  -5   7   50.45    2.51
   1  -5   7   50.80    2.51
   1   5  -7   52.92    2.53
   1  -5   7   52.25    2.53
  -1  -5  -7   50.24    2.52
  -1  -5  -7   51.96    2.53
  -1  -5  -7   53.53    2.53
  -1   5   7   52.59    2.54
  -1  -5  -7   54.02    2.52
   1  -5  -7   50.76    2.53
   1   5   7   52.34    2.54
  -1  -5   7   50.97    2.51
  -1  -5   7   53.42    2.52
  -1   5  -7   53.43    2.52
   1  -5  -7   52.51    2.53
  -1  -5   7   48.67    2.52
  -1  -5   7   49.99    2.51
  -1  -5   7   55.32    2.53
   2  -5   7    7.77    0.42
  -2  -5  -7    8.12    0.44
  -2  -5  -7    8.56    0.46
  -2  -5  -7    7.41    0.45
   2  -5   7    8.21    0.44
   2  -5   7    8.06    0.43
  -2  -5  -7    8.76    0.46
  -2  -5  -7    8.49    0.45
  -2  -5  -7    7.72    0.44
   2   5  -7    8.93    0.45
  -2  -5  -7    9.28    0.44
   2  -5   7    8.40    0.44
  -2  -5   7    8.60    0.43
  -2  -5   7    8.27    0.43
   2  -5  -7    7.81    0.45
  -2  -5   7    7.89    0.43
  -2  -5   7    8.76    0.44
   2  -5  -7    7.80    0.45
   2  -5  -7    8.31    0.46
   2   5   7    8.22    0.46
  -2  -5   7    7.82    0.43
   2  -5  -7    8.45    0.45
  -3  -5  -7    0.38    0.09
  -3  -5  -7    0.18    0.09
  -3  -5  -7    0.24    0.11
  -3  -5  -7    0.20    0.07
   3   5  -7    0.32    0.13
   3  -5   7    0.16    0.07
  -3  -5  -7    0.33    0.09
  -3  -5  -7    0.34    0.09
   3  -5   7    0.35    0.10
  -3  -5   7    0.32    0.08
   3  -5  -7    0.14    0.10
   3  -5  -7    0.29    0.09
   3  -5  -7    0.30    0.08
   3   5   7    0.39    0.14
  -3  -5   7    0.30    0.07
  -3  -5   7    0.46    0.09
  -3  -5   7    0.24    0.07
  -3  -5   7    0.28    0.06
  -4  -5  -7   56.49    2.72
   4  -5   7   51.88    2.72
   4  -5   7   58.31    2.72
   4   5  -7   59.22    2.72
  -4  -5  -7   55.12    2.73
   4  -5   7   51.43    2.74
  -4  -5  -7   54.39    2.73
   4  -5  -7   59.38    2.74
  -4  -5   7   54.34    2.71
   4  -5  -7   59.37    2.73
  -4  -5   7   53.45    2.73
   4   5   7   60.12    2.73
  -5  -5  -7   26.16    1.40
  -5  -5  -7   29.09    1.40
   5  -5   7   27.68    1.40
   5   5  -7   30.29    1.40
  -5  -5  -7   26.65    1.41
   5  -5   7   28.27    1.42
   5   5   7   30.36    1.41
  -5  -5   7   28.76    1.39
   5  -5  -7   28.75    1.41
  -5  -5   7   26.22    1.40
   5  -5  -7   31.13    1.42
   6  -5   7   25.41    1.24
  -6  -5  -7   25.90    1.24
  -6  -5  -7   24.55    1.24
   6   5  -7   26.77    1.24
  -6  -5  -7   24.56    1.26
  -6  -5   7   25.97    1.24
  -6  -5   7   22.77    1.25
   6   5   7   22.49    1.24
   6   5   7   27.87    1.25
   6  -5  -7   26.26    1.25
  -7  -5  -7    4.77    0.27
   7   5  -7    4.86    0.27
  -7  -5   7    5.14    0.29
   7  -5  -7    5.18    0.27
  -7  -5   7    4.80    0.26
   7   5   7    4.82    0.27
   7   5   7    5.32    0.27
   0  -6   7   55.95    2.48
   0  -6   7   52.44    2.45
   0  -6   7   51.38    2.45
   0  -6   7   49.40    2.45
   0   6  -7   47.08    2.47
   0  -6  -7   49.16    2.46
   0  -6  -7   49.17    2.46
   0  -6  -7   48.19    2.46
   0   6   7   47.75    2.49
   0  -6  -7   53.86    2.47
   0  -6  -7   50.64    2.47
   0  -6   7   51.98    2.46
  -1  -6  -7   54.37    2.61
  -1   6   7   49.57    2.64
   1  -6   7   52.31    2.59
   1  -6   7   50.70    2.60
   1  -6   7   58.09    2.62
  -1  -6  -7   55.74    2.61
  -1  -6  -7   51.81    2.61
  -1  -6  -7   55.48    2.61
  -1  -6  -7   57.20    2.62
   1  -6   7   55.56    2.61
   1   6  -7   53.68    2.62
   1  -6   7   56.07    2.60
   1  -6  -7   53.87    2.61
  -1  -6   7   53.42    2.60
   1  -6  -7   53.91    2.61
  -1  -6   7   52.93    2.60
  -1  -6   7   52.54    2.60
  -1  -6   7   57.99    2.62
   1   6   7   48.14    2.63
  -1  -6   7   51.92    2.59
   1  -6  -7   49.95    2.61
   1  -6  -7   52.21    2.61
   1  -6  -7   56.91    2.62
   2  -6   7    9.95    0.53
   2  -6   7    9.74    0.51
  -2  -6  -7    9.66    0.52
  -2  -6  -7   10.13    0.53
  -2  -6  -7    9.32    0.52
   2  -6   7    9.94    0.50
  -2  -6  -7    9.38    0.52
   2  -6   7   10.53    0.52
  -2  -6  -7   10.77    0.54
   2  -6  -7    9.65    0.53
  -2  -6   7   10.42    0.53
   2  -6  -7    9.88    0.54
  -2  -6   7   10.02    0.51
  -2  -6   7    9.87    0.51
   2  -6  -7    9.48    0.52
   2  -6  -7    9.99    0.53
  -2  -6   7    9.68    0.51
  -2  -6   7   10.18    0.51
   3  -6   7    0.21    0.07
  -3  -6  -7    0.06    0.05
  -3  -6  -7    0.14    0.09
  -3  -6  -7    0.15    0.08
  -3  -6  -7    0.04    0.06
  -3  -6  -7    0.12    0.08
  -3  -6  -7    0.15    0.08
   3  -6   7    0.18    0.06
   3  -6   7    0.12    0.07
   3  -6  -7    0.18    0.10
  -3  -6   7    0.13    0.05
   3  -6  -7    0.13    0.07
   3  -6  -7    0.16    0.09
  -3  -6   7    0.15    0.06
  -3  -6   7    0.15    0.06
  -3  -6   7    0.07    0.05
  -3  -6   7    0.12    0.05
   4   6  -7    7.03    0.37
   4  -6   7    6.00    0.37
  -4  -6  -7    7.02    0.39
  -4  -6  -7    6.36    0.37
  -4  -6  -7    7.21    0.38
  -4  -6  -7    6.46    0.38
   4  -6   7    7.00    0.36
  -4  -6  -7    7.07    0.37
   4  -6   7    6.09    0.39
   4  -6  -7    6.93    0.39
   4   6   7    7.08    0.38
  -4  -6   7    7.09    0.36
  -4  -6   7    6.71    0.36
   4  -6  -7    7.38    0.38
  -4  -6   7    6.52    0.38
   5  -6   7    0.56    0.12
  -5  -6  -7    0.42    0.09
   5   6  -7    0.59    0.08
   5  -6   7    0.49    0.09
  -5  -6  -7    0.57    0.13
  -5  -6  -7    0.63    0.09
  -5  -6   7    0.55    0.07
  -5  -6   7    0.50    0.09
   5  -6  -7    0.66    0.14
   5   6   7    0.68    0.10
   5  -6  -7    0.63    0.11
   6  -6   7    5.01    0.28
   6   6  -7    5.48    0.28
  -6  -6  -7    5.14    0.32
   6   6  -7    5.26    0.28
  -6  -6  -7    5.64    0.28
  -6  -6  -7    5.05    0.28
  -6  -6   7    5.05    0.30
   6  -6  -7    5.86    0.29
   6   6   7    4.90    0.28
   6   6   7    5.54    0.29
  -6  -6   7    5.16    0.28
  -7  -6  -7    4.40    0.23
   7   6  -7    4.10    0.23
  -7  -6   7    4.48    0.22
   7   6   7    4.15    0.23
   7   6   7    4.54    0.23
   7  -6  -7    4.11    0.23
   0  -7   7   -0.05    0.05
   0  -7  -7    0.07    0.08
   0  -7  -7    0.02    0.07
   0  -7   7   -0.05    0.06
   0  -7   7    0.01    0.06
   0  -7  -7   -0.10    0.09
   0  -7   7    0.03    0.04
   0  -7   7    0.04    0.05
   0  -7  -7    0.01    0.05
   0  -7  -7    0.17    0.07
   1  -7   7    2.98    0.18
   1  -7   7    2.95    0.19
   1  -7   7    3.25    0.20
   1  -7   7    3.01    0.18
   1  -7   7    3.04    0.22
  -1  -7  -7    3.25    0.20
  -1  -7  -7    2.96    0.20
  -1  -7  -7    3.03    0.22
  -1  -7  -7    2.88    0.21
   1  -7  -7    2.83    0.21
   1  -7  -7    3.09    0.24
   1  -7  -7    3.18    0.22
  -1  -7   7    2.81    0.20
   1  -7  -7    2.97    0.20
  -1  -7   7    3.10    0.18
  -1  -7   7    2.88    0.21
  -1  -7   7    3.10    0.18
  -1  -7   7    3.12    0.19
   1  -7  -7    3.12    0.21
   2  -7   7    5.97    0.38
  -2  -7  -7    7.12    0.37
  -2  -7  -7    6.49    0.36
   2  -7   7    6.75    0.35
  -2  -7  -7    6.75    0.36
  -2  -7  -7    6.69    0.38
   2  -7   7    6.29    0.35
   2  -7   7    6.81    0.37
  -2  -7  -7    6.55    0.37
  -2  -7   7    6.77    0.35
  -2  -7   7    6.72    0.35
   2  -7  -7    6.58    0.37
  -2  -7   7    6.53    0.38
   2  -7  -7    6.94    0.38
   2  -7  -7    6.84    0.36
  -2  -7   7    6.44    0.35
   2  -7  -7    5.96    0.37
  -2  -7   7    6.62    0.36
   3  -7   7    0.07    0.07
  -3  -7  -7    0.06    0.07
   3   7  -7    0.05    0.06
  -3  -7  -7    0.10    0.08
  -3  -7  -7    0.14    0.06
   3  -7   7    0.11    0.08
  -3  -7  -7    0.08    0.06
  -3  -7  -7    0.13    0.08
   3  -7   7    0.05    0.05
   3  -7   7   -0.06    0.05
  -3  -7   7    0.09    0.05
   3  -7  -7    0.04    0.07
  -3  -7   7    0.10    0.05
  -3  -7   7    0.14    0.07
   3  -7  -7    0.03    0.08
   3   7   7    0.10    0.07
  -3  -7   7    0.04    0.04
  -3  -7   7    0.10    0.05
   3  -7  -7    0.09    0.09
  -4  -7  -7    1.09    0.12
   4  -7   7    0.66    0.10
  -4  -7  -7    0.95    0.10
   4  -7   7    0.67    0.13
   4  -7   7    0.81    0.09
  -4  -7  -7    0.63    0.11
  -4  -7  -7    0.67    0.10
   4   7  -7    0.76    0.09
  -4  -7   7    0.80    0.08
  -4  -7   7    0.66    0.09
   4  -7  -7    0.82    0.14
   4  -7  -7    0.54    0.12
  -4  -7   7    0.78    0.09
  -4  -7   7    0.72    0.11
   4   7   7    0.85    0.12
  -5  -7  -7    9.18    0.44
   5  -7   7    7.91    0.44
   5   7  -7    8.68    0.44
  -5  -7  -7    8.83    0.44
  -5  -7   7    8.32    0.43
   5  -7  -7    8.28    0.44
  -5  -7   7    8.66    0.46
   5   7   7    8.31    0.44
  -6  -7  -7    2.07    0.13
   6   7  -7    2.05    0.12
  -6  -7  -7    2.12    0.13
  -6  -7   7    2.15    0.12
   6   7   7    2.05    0.13
   0  -8   7    0.95    0.09
   0  -8  -7    0.93    0.13
   0  -8  -7    1.12    0.12
   0  -8  -7    1.03    0.11
   0  -8   7    0.88    0.08
   0  -8   7    0.87    0.11
   0  -8   7    0.69    0.09
   0  -8  -7    0.85    0.10
   0  -8   7    0.93    0.13
  -1  -8  -7    0.10    0.05
   1  -8   7    0.15    0.08
   1  -8   7    0.08    0.04
   1  -8   7    0.14    0.04
   1  -8   7    0.15    0.06
  -1  -8  -7    0.07    0.05
  -1  -8  -7    0.09    0.06
   1  -8   7    0.17    0.06
  -1  -8   7    0.08    0.07
  -1  -8   7    0.05    0.04
  -1  -8   7    0.08    0.05
   1  -8  -7    0.36    0.12
   1  -8  -7    0.34    0.10
  -1  -8   7    0.23    0.06
   1  -8  -7    0.00    0.07
  -1  -8   7    0.09    0.06
   1  -8  -7    0.16    0.06
   2  -8   7    0.49    0.07
  -2  -8  -7    0.56    0.11
   2  -8   7    0.28    0.09
   2  -8   7    0.44    0.08
  -2  -8  -7    0.72    0.09
  -2  -8  -7    0.72    0.10
   2   8  -7    0.54    0.11
   2  -8   7    0.45    0.10
  -2  -8  -7    0.46    0.08
  -2  -8   7    0.48    0.08
   2  -8  -7    0.52    0.13
  -2  -8   7    0.64    0.11
  -2  -8   7    0.52    0.07
   2  -8  -7    0.57    0.11
  -2  -8   7    0.56    0.07
  -2  -8   7    0.54    0.07
   2  -8  -7    0.58    0.10
  -3  -8  -7    0.03    0.07
   3   8  -7    0.11    0.05
   3  -8   7    0.26    0.07
   3  -8   7    0.15    0.10
   3  -8   7    0.14    0.06
   3  -8   7    0.13    0.05
  -3  -8  -7    0.17    0.06
  -3  -8  -7    0.14    0.05
  -3  -8  -7    0.15    0.05
  -3  -8   7    0.13    0.05
   3  -8  -7    0.34    0.10
  -3  -8   7    0.06    0.07
   3  -8  -7    0.09    0.09
  -3  -8   7    0.20    0.05
  -3  -8   7    0.12    0.04
  -3  -8   7    0.22    0.05
   4  -8   7    0.09    0.06
  -4  -8  -7    0.09    0.05
  -4  -8  -7    0.09    0.06
   4  -8   7    0.04    0.06
   4   8  -7    0.03    0.04
  -4  -8  -7    0.08    0.04
   4  -8   7    0.19    0.13
  -4  -8  -7    0.09    0.06
  -4  -8   7    0.07    0.04
  -4  -8   7    0.08    0.04
  -4  -8   7    0.31    0.10
   5   8  -7    0.16    0.05
   5   8  -7    0.00    0.04
  -5  -8  -7    0.08    0.04
  -5  -8  -7    0.08    0.06
  -5  -8   7    0.03    0.03
   5   8   7    0.04    0.03
   0  -9   7    0.00    0.03
   0  -9   7    0.04    0.05
   0  -9   7    0.08    0.10
   0  -9   7    0.05    0.03
   0  -9   7    0.02    0.04
   0  -9  -7   -0.01    0.04
   0  -9  -7    0.06    0.05
   0  -9  -7   -0.06    0.06
   0  -9  -7    0.03    0.05
   1  -9   7    7.71    0.39
   1  -9   7    7.66    0.40
  -1  -9  -7    7.95    0.40
   1  -9   7    7.90    0.40
  -1  -9  -7    7.75    0.41
  -1  -9  -7    7.33    0.40
  -1  -9  -7    7.71    0.41
   1  -9  -7    7.60    0.40
  -1  -9   7    7.51    0.39
   1  -9  -7    8.13    0.41
  -1  -9   7    7.99    0.43
  -1  -9   7    8.17    0.41
   1  -9  -7    8.07    0.40
   1  -9  -7    8.01    0.41
  -1  -9   7    7.72    0.40
  -1  -9   7    7.49    0.39
   2  -9   7    1.29    0.09
   2  -9   7    1.46    0.11
  -2  -9  -7    1.39    0.10
   2  -9   7    1.37    0.10
  -2  -9  -7    1.40    0.11
  -2  -9  -7    1.31    0.10
   2  -9  -7    1.45    0.14
  -2  -9   7    1.38    0.09
   2  -9  -7    1.47    0.12
  -2  -9   7    1.46    0.11
  -2  -9   7    1.28    0.15
   2  -9  -7    1.44    0.11
  -2  -9   7    1.47    0.09
   3  -9   7    5.31    0.27
  -3  -9  -7    5.46    0.27
  -3  -9  -7    5.16    0.27
  -3  -9   7    4.98    0.26
  -3  -9   7    5.14    0.26
  -3  -9   7    5.24    0.28
  -4  -9  -7    0.18    0.05
  -4  -9   7    0.29    0.05
   4   9   7    0.26    0.05
   0 -10  -7    8.07    0.42
   0 -10  -7    8.47    0.42
   0 -10   7    8.29    0.41
   0 -10  -7    8.83    0.41
   0 -10   7    7.93    0.41
   0 -10   7    8.36    0.42
  -1 -10  -7    0.71    0.06
  -1 -10  -7    0.57    0.06
  -1 -10  -7    0.59    0.06
   1 -10   7    0.67    0.08
   1 -10   7    0.69    0.06
   1 -10   7    0.77    0.06
   1 -10  -7    0.63    0.06
   1 -10  -7    0.75    0.07
  -1 -10   7    0.63    0.05
  -1 -10   7    0.74    0.07
  -1 -10   7    0.64    0.05
   0   0   8    7.34    0.37
   0   0  -8    7.54    0.37
  -1   0  -8    0.89    0.05
   1   0   8    0.76    0.05
   1   0  -8    0.81    0.06
   2   0   8    0.49    0.07
   2   0  -8    0.58    0.06
   3   0   8   26.17    1.26
   3   0  -8   26.10    1.26
  -3   0   8   25.13    1.25
  -4   0   8   71.61    3.92
   4   0  -8   91.46    3.94
   5   0  -8    0.60    0.10
  -5   0   8    0.57    0.09
   5   0  -8    0.58    0.16
   5   0   8    0.76    0.14
   5   0  -8    0.66    0.12
   5   0   8    0.62    0.11
   6   0   8   52.31    2.45
  -6   0  -8   45.67    2.44
  -6   0   8   51.32    2.43
   6   0  -8   49.66    2.43
  -6   0  -8   51.89    2.44
   6   0  -8   49.13    2.44
   7   0   8    0.01    0.05
  -7   0  -8    0.07    0.06
   7   0  -8    0.16    0.04
  -7   0   8   -0.06    0.08
   7   0  -8    0.11    0.06
   8   0  -8   14.79    0.67
   8   0  -8   13.55    0.66
   8   0   8   12.08    0.67
  -8   0  -8   12.49    0.68
  -8   0  -8   13.41    0.66
   0  -1   8    0.02    0.03
   1   1  -8   60.84    3.08
   1  -1   8   69.17    3.08
  -1   1  -8   67.34    3.08
   1   1   8   62.92    3.08
   1  -1  -8   60.83    3.09
   2  -1   8    0.88    0.08
   2   1  -8    0.92    0.07
   2  -1  -8    0.95    0.07
   2   1   8    0.86    0.07
   2   1   8    1.07    0.07
  -2  -1   8    0.88    0.07
   3   1  -8   59.94    3.09
  -3   1   8   60.59    3.08
   3  -1   8   61.99    3.09
   3   1   8   68.13    3.08
   3  -1  -8   67.74    3.09
  -3  -1   8   65.81    3.08
  -4   1   8   49.88    2.51
  -4  -1  -8   52.68    2.53
   4   1  -8   49.60    2.53
   4  -1   8   52.43    2.53
  -4  -1   8   55.83    2.52
  -5   1   8    0.22    0.07
   5  -1   8    0.32    0.10
   5   1  -8   -0.08    0.12
  -5  -1  -8    0.02    0.05
  -5  -1  -8    0.18    0.09
   5   1  -8    0.01    0.05
   5   1  -8   -0.01    0.05
   5  -1   8    0.03    0.07
   5  -1  -8    0.14    0.07
  -5  -1   8   -0.03    0.05
   5   1   8    0.00    0.06
   5  -1  -8    0.07    0.04
  -6  -1  -8   18.89    1.06
  -6  -1  -8   21.42    1.06
  -6   1   8   22.14    1.05
   6   1  -8   20.82    1.06
   6  -1   8   21.01    1.07
   6   1  -8   22.10    1.05
   6  -1   8   21.47    1.06
  -6  -1   8   21.44    1.05
   6  -1  -8   21.52    1.05
  -6   1  -8   19.28    1.07
   6   1   8   22.29    1.07
   6  -1  -8   22.19    1.06
   7   1  -8    1.14    0.12
   7   1  -8    1.08    0.10
   7  -1   8    1.10    0.12
  -7  -1  -8    1.02    0.12
   7   1   8    1.35    0.13
  -7   1  -8    1.07    0.13
  -7  -1   8    1.08    0.12
   7  -1  -8    1.06    0.10
   7  -1  -8    1.22    0.13
  -8  -1  -8   27.40    1.37
  -8  -1  -8   27.34    1.36
   8  -1   8   27.30    1.36
   8   1  -8   27.67    1.35
   8   1  -8   30.25    1.36
   8  -1  -8   26.85    1.35
  -8   1  -8   27.63    1.37
   8   1   8   25.71    1.36
   8  -1  -8   29.72    1.36
   0  -2  -8  353.55   16.79
   0  -2   8  311.70   16.69
   0  -2   8  341.47   16.71
   0   2  -8  387.71   16.75
   1   2  -8    2.88    0.16
   1  -2   8    3.00    0.17
   1  -2  -8    2.87    0.17
  -1  -2   8    2.89    0.17
  -1   2  -8    3.36    0.15
   2  -2   8   61.07    2.69
   2   2  -8   55.38    2.68
  -2  -2  -8   53.33    2.68
   2   2   8   58.73    2.68
  -2  -2   8   55.05    2.68
   2  -2  -8   49.94    2.69
   3   2  -8   16.21    0.78
  -3  -2  -8   15.94    0.78
   3  -2   8   13.83    0.78
   3   2   8   16.31    0.78
  -3  -2   8   16.31    0.77
   3  -2  -8   15.11    0.79
  -4  -2  -8    5.45    0.35
   4   2  -8    6.31    0.34
  -4  -2  -8    6.31    0.34
   4   2  -8    6.24    0.34
   4  -2   8    5.53    0.34
   4  -2   8    6.14    0.34
   4  -2  -8    6.27    0.34
   4   2   8    7.17    0.36
   4  -2  -8    6.53    0.35
  -4  -2   8    6.92    0.33
   4  -2  -8    5.94    0.36
  -5  -2  -8    0.93    0.11
   5   2  -8    0.69    0.20
   5   2  -8    0.98    0.10
   5   2  -8    0.92    0.14
  -5  -2  -8    0.98    0.14
   5  -2   8    0.90    0.11
   5   2  -8    1.09    0.13
   5  -2   8    0.92    0.16
  -5  -2   8    1.03    0.09
   5  -2  -8    0.98    0.10
   5  -2  -8    0.63    0.26
   5   2   8    0.94    0.13
  -5  -2   8    0.75    0.12
   5  -2  -8    1.05    0.13
  -6  -2  -8    2.68    0.21
   6  -2   8    3.25    0.22
  -6  -2  -8    3.12    0.22
   6   2  -8    3.14    0.20
   6  -2   8    2.88    0.20
   6   2  -8    3.14    0.20
   6  -2  -8    3.22    0.19
  -6  -2   8    3.03    0.20
   6  -2  -8    3.51    0.22
   6   2   8    3.36    0.22
  -6  -2   8    3.03    0.19
   7  -2   8    0.60    0.11
  -7  -2  -8    0.72    0.09
   7   2  -8    0.73    0.09
  -7  -2  -8    0.70    0.11
   7   2  -8    0.68    0.10
   7  -2  -8    0.96    0.12
  -7  -2   8    0.64    0.10
   7   2   8    0.78    0.10
   7  -2  -8    0.66    0.08
  -7  -2   8    0.65    0.10
  -7   2  -8    0.59    0.11
   8   2  -8    5.69    0.29
  -8  -2  -8    5.12    0.28
   8   2  -8    5.37    0.28
   8  -2   8    5.78    0.28
  -8   2  -8    4.98    0.30
   8  -2  -8    5.29    0.29
   8   2   8    4.98    0.29
   8  -2  -8    5.44    0.28
   0   3  -8    0.02    0.02
   0  -3   8    0.02    0.04
   1   3  -8   25.45    1.29
   1  -3   8   27.29    1.30
   1  -3  -8   26.11    1.31
  -1  -3   8   25.43    1.29
   1   3   8   25.72    1.30
  -1   3  -8   29.49    1.29
   2  -3   8    2.76    0.17
  -2  -3  -8    2.62    0.18
   2   3  -8    2.93    0.17
   2  -3  -8    2.83    0.18
   2   3   8    2.89    0.17
  -2  -3   8    2.78    0.16
   3  -3   8   58.65    3.00
   3   3  -8   62.67    2.99
  -3  -3  -8   58.40    2.99
   3   3   8   64.15    3.00
  -3  -3   8   62.52    2.99
   3  -3  -8   64.84    3.01
  -4  -3  -8   52.12    2.62
  -4  -3  -8   52.43    2.62
   4   3  -8   56.20    2.63
   4   3  -8   52.00    2.61
  -4  -3  -8   56.19    2.62
   4  -3   8   52.50    2.61
   4  -3   8   52.04    2.63
   4  -3   8   50.49    2.62
   4  -3  -8   53.12    2.64
   4  -3  -8   53.70    2.61
   4   3   8   55.90    2.63
   4  -3  -8   55.52    2.63
  -4  -3   8   60.47    2.62
  -4  -3   8   52.57    2.61
   5   3  -8    0.80    0.12
  -5  -3  -8    0.66    0.11
   5   3  -8    0.61    0.09
   5  -3   8    0.58    0.10
   5  -3   8    0.99    0.14
   5  -3   8    0.71    0.10
  -5  -3  -8    0.71    0.11
  -5  -3  -8    0.46    0.12
   5  -3  -8    0.58    0.09
  -5  -3   8    0.76    0.09
  -5  -3   8    0.74    0.10
   5  -3  -8    0.54    0.12
   5   3   8    0.61    0.12
  -6  -3  -8   15.52    0.88
   6   3  -8   17.61    0.86
  -6  -3  -8   18.41    0.87
   6  -3   8   16.75    0.87
  -6  -3  -8   16.44    0.87
   6   3  -8   17.28    0.87
   6  -3   8   16.83    0.87
   6   3   8   18.60    0.88
   6  -3  -8   16.93    0.86
  -6  -3   8   16.27    0.86
   6  -3  -8   17.71    0.87
   6   3   8   17.97    0.87
  -6  -3   8   17.74    0.86
   7   3  -8    0.09    0.05
   7  -3   8    0.01    0.06
   7  -3   8    0.07    0.05
   7   3  -8   -0.01    0.05
  -7  -3  -8    0.02    0.08
  -7  -3  -8    0.02    0.04
   7   3   8    0.05    0.04
   7  -3  -8    0.09    0.04
  -7  -3   8    0.11    0.06
  -7  -3   8    0.14    0.05
   7  -3  -8    0.05    0.08
  -7   3  -8    0.05    0.07
  -8  -3  -8    2.43    0.15
   8   3  -8    2.56    0.15
   8   3   8    2.42    0.15
   8  -3  -8    2.62    0.15
   0   4  -8   10.50    0.54
   0  -4   8   11.07    0.55
   1  -4   8    4.67    0.24
   1   4  -8    4.14    0.24
  -1  -4   8    4.46    0.24
   1   4   8    4.10    0.25
  -1   4  -8    4.11    0.23
   2   4  -8    0.50    0.08
   2  -4   8    0.42    0.07
  -2  -4  -8    0.51    0.09
   2   4   8    0.39    0.09
  -2  -4   8    0.40    0.06
  -3  -4  -8    3.66    0.27
  -3  -4  -8    4.66    0.26
  -3  -4  -8    4.87    0.29
   3  -4   8    4.50    0.26
  -3  -4  -8    5.02    0.27
   3   4  -8    4.69    0.26
   3  -4   8    4.07    0.25
   3   4  -8    4.44    0.26
   3  -4   8    4.26    0.26
  -3  -4   8    4.60    0.25
   3  -4  -8    4.41    0.30
   3   4   8    4.63    0.28
  -3  -4   8    4.44    0.25
   3  -4  -8    4.19    0.26
  -3  -4   8    4.14    0.25
   3  -4  -8    3.58    0.28
   4  -4   8    0.28    0.07
   4  -4   8    0.35    0.10
  -4  -4  -8    0.24    0.08
   4   4  -8    0.27    0.09
  -4  -4  -8    0.17    0.12
   4  -4   8    0.38    0.09
   4   4  -8    0.21    0.11
  -4  -4  -8    0.48    0.11
  -4  -4  -8    0.46    0.11
  -4  -4   8    0.26    0.08
   4  -4  -8    0.39    0.11
   4   4   8    0.35    0.08
  -4  -4   8    0.19    0.07
   4  -4  -8    0.35    0.10
   5  -4   8    0.09    0.07
   5  -4   8    0.07    0.07
  -5  -4  -8    0.11    0.07
  -5  -4  -8    0.15    0.07
  -5  -4  -8    0.08    0.07
   5  -4   8    0.22    0.08
   5   4  -8    0.10    0.05
   5   4   8    0.06    0.05
  -5  -4   8    0.13    0.05
   5  -4  -8    0.08    0.05
   5  -4  -8    0.12    0.09
  -5  -4   8    0.03    0.05
   6  -4   8    4.59    0.27
  -6  -4  -8    4.51    0.29
   6   4  -8    4.86    0.27
  -6  -4  -8    5.22    0.28
  -6  -4  -8    4.40    0.27
   6   4   8    4.99    0.28
   6  -4  -8    4.54    0.29
  -6  -4   8    4.91    0.26
  -6  -4   8    4.29    0.27
   6  -4  -8    4.75    0.27
   6   4   8    5.24    0.29
  -7  -4  -8    0.39    0.07
   7   4  -8    0.52    0.07
  -7  -4  -8    0.52    0.12
   7  -4   8    0.46    0.08
  -7   4  -8    0.39    0.11
   7   4   8    0.46    0.10
   7   4   8    0.39    0.07
  -7  -4   8    0.49    0.06
  -7  -4   8    0.41    0.10
   7  -4  -8    0.52    0.07
   7  -4  -8    0.41    0.12
   8   4  -8    0.31    0.05
  -8  -4  -8    0.34    0.05
   8  -4  -8    0.29    0.05
   8   4   8    0.27    0.05
   0  -5   8    0.03    0.05
   0  -5   8   -0.07    0.07
   0  -5   8    0.02    0.05
   0  -5  -8   -0.06    0.06
   0   5  -8    0.05    0.06
   0  -5  -8   -0.08    0.09
   0  -5  -8    0.00    0.09
   0   5   8   -0.04    0.07
   0  -5   8    0.11    0.05
   0  -5  -8   -0.01    0.07
  -1  -5  -8    1.59    0.17
   1  -5   8    1.74    0.13
   1  -5   8    1.68    0.12
  -1  -5  -8    1.41    0.15
   1  -5   8    1.57    0.14
  -1  -5  -8    1.36    0.18
   1   5  -8    1.92    0.14
   1  -5   8    1.64    0.13
  -1  -5  -8    1.77    0.16
  -1  -5  -8    1.54    0.18
  -1  -5   8    1.52    0.13
   1  -5  -8    1.48    0.18
  -1  -5   8    1.69    0.13
   1  -5  -8    1.67    0.16
  -1  -5   8    1.43    0.12
   1  -5  -8    1.90    0.16
  -1  -5   8    1.74    0.13
  -1  -5   8    1.65    0.14
  -1   5  -8    1.54    0.14
   1   5   8    1.85    0.16
   1  -5  -8    1.49    0.16
  -2  -5  -8   10.08    0.56
  -2  -5  -8   11.79    0.58
  -2  -5  -8   11.28    0.56
   2   5  -8   10.87    0.57
  -2  -5  -8   10.54    0.57
  -2  -5  -8   10.62    0.56
   2  -5   8   12.16    0.57
  -2  -5  -8    9.93    0.57
  -2  -5  -8   11.16    0.57
   2  -5   8   11.43    0.56
   2  -5   8   10.27    0.54
   2  -5   8   10.28    0.54
   2  -5  -8   10.14    0.57
   2  -5  -8   10.76    0.57
   2  -5  -8   10.91    0.58
  -2  -5   8   10.37    0.55
  -2  -5   8   11.01    0.56
  -2  -5   8   10.17    0.55
   2   5   8   11.05    0.59
   2  -5  -8   11.23    0.56
  -2  -5   8   10.94    0.55
  -2  -5   8   10.43    0.55
  -3  -5  -8   -0.03    0.10
   3  -5   8    0.05    0.06
   3   5  -8    0.04    0.11
  -3  -5  -8   -0.02    0.06
   3  -5   8    0.03    0.06
  -3  -5  -8   -0.07    0.08
  -3  -5  -8   -0.04    0.08
  -3  -5  -8    0.18    0.08
   3  -5   8    0.00    0.06
   3  -5  -8    0.09    0.08
  -3  -5   8    0.00    0.07
  -3  -5   8    0.09    0.05
  -3  -5   8    0.00    0.06
  -3  -5   8   -0.08    0.05
  -3  -5   8    0.08    0.05
   3   5   8   -0.04    0.15
   3  -5  -8    0.08    0.09
   3  -5  -8    0.14    0.07
   4  -5   8   11.86    0.62
   4   5  -8   12.70    0.62
  -4  -5  -8   11.78    0.63
  -4  -5  -8   12.05    0.63
   4  -5   8   12.35    0.61
  -4  -5  -8   12.61    0.63
   4  -5   8   10.41    0.63
  -4  -5  -8   13.00    0.65
  -4  -5  -8   12.48    0.63
  -4  -5   8   11.33    0.62
  -4  -5   8   12.31    0.61
   4  -5  -8   11.46    0.64
   4  -5  -8   12.39    0.63
   4   5   8   13.01    0.64
   5  -5   8    0.10    0.07
  -5  -5  -8   -0.07    0.06
  -5  -5  -8    0.03    0.06
   5   5  -8    0.07    0.05
   5  -5   8   -0.02    0.07
  -5  -5  -8    0.00    0.07
   5  -5   8   -0.03    0.06
  -5  -5   8    0.00    0.05
   5   5   8   -0.04    0.05
   5  -5  -8    0.01    0.05
  -5  -5   8    0.04    0.04
   5  -5  -8    0.11    0.08
  -6  -5  -8    2.87    0.19
  -6  -5  -8    3.65    0.20
   6   5  -8    3.35    0.19
  -6  -5  -8    3.35    0.22
   6  -5   8    3.21    0.20
   6   5  -8    3.39    0.19
   6  -5  -8    3.28    0.20
   6  -5  -8    3.05    0.22
   6   5   8    2.99    0.20
  -6  -5   8    3.30    0.19
   6   5   8    3.30    0.20
  -6  -5   8    3.06    0.20
   7   5  -8    8.14    0.42
  -7  -5  -8    8.22    0.42
  -7  -5   8    8.43    0.41
   7   5   8    8.78    0.42
   7  -5  -8    8.79    0.42
   7   5   8    8.47    0.42
  -7  -5   8    7.02    0.44
   0  -6   8   80.43    3.93
   0  -6  -8   85.98    3.96
   0  -6  -8   84.48    3.94
   0   6  -8   79.61    3.95
   0  -6   8   80.43    3.93
   0  -6   8   82.42    3.94
   0  -6  -8   84.58    3.95
   0  -6  -8   80.85    3.94
   0  -6  -8   77.72    3.94
   0  -6   8   91.90    3.96
   0   6   8   70.17    3.97
   0  -6   8   80.28    3.93
  -1  -6  -8    3.65    0.24
   1   6  -8    3.38    0.26
   1  -6   8    3.26    0.20
   1  -6   8    3.49    0.22
  -1   6   8    3.88    0.29
  -1  -6  -8    3.66    0.23
  -1  -6  -8    3.36    0.23
   1  -6   8    3.77    0.23
  -1  -6  -8    3.58    0.25
   1  -6   8    3.03    0.21
  -1  -6  -8    3.53    0.22
   1  -6   8    3.38    0.20
  -1  -6   8    3.26    0.20
  -1  -6   8    3.43    0.22
  -1  -6   8    3.32    0.21
   1  -6  -8    3.81    0.25
   1  -6  -8    3.44    0.23
   1  -6  -8    3.42    0.23
  -1  -6   8    3.41    0.20
   1  -6  -8    3.08    0.23
   1  -6  -8    3.29    0.24
  -2  -6  -8    2.53    0.20
   2  -6   8    3.25    0.22
  -2  -6  -8    2.92    0.22
   2  -6   8    3.03    0.19
  -2  -6  -8    3.29    0.23
   2  -6   8    2.63    0.20
  -2  -6  -8    3.37    0.21
  -2  -6  -8    3.37    0.22
   2  -6   8    3.45    0.19
   2  -6  -8    3.51    0.22
  -2  -6   8    3.27    0.19
  -2  -6   8    3.24    0.19
   2  -6  -8    3.37    0.22
  -2  -6   8    3.27    0.21
   2  -6  -8    3.49    0.22
  -2  -6   8    2.84    0.19
   2  -6  -8    3.27    0.23
   3  -6   8    7.00    0.37
   3   6  -8    6.48    0.38
   3  -6   8    6.67    0.40
  -3  -6  -8    6.93    0.38
   3  -6   8    7.07    0.38
  -3  -6  -8    7.44    0.40
   3  -6   8    6.77    0.37
  -3  -6  -8    7.22    0.40
  -3  -6  -8    6.95    0.39
  -3  -6  -8    7.06    0.39
  -3  -6   8    6.80    0.39
  -3  -6   8    7.02    0.37
  -3  -6   8    7.22    0.37
  -3  -6   8    7.27    0.38
   3  -6  -8    7.28    0.39
   3  -6  -8    6.95    0.40
   3  -6  -8    7.35    0.41
  -3  -6   8    6.96    0.37
   4  -6   8    5.65    0.29
   4  -6   8    5.11    0.30
  -4  -6  -8    5.18    0.32
  -4  -6  -8    5.21    0.32
   4   6  -8    5.14    0.29
  -4  -6  -8    5.48    0.30
  -4  -6  -8    5.64    0.30
   4  -6   8    4.44    0.31
  -4  -6  -8    5.88    0.31
   4  -6  -8    5.56    0.33
   4   6   8    5.63    0.31
  -4  -6   8    5.12    0.29
  -4  -6   8    4.64    0.30
   4  -6  -8    5.46    0.30
  -4  -6   8    5.24    0.29
  -5  -6  -8    1.05    0.10
  -5  -6  -8    1.15    0.15
   5  -6   8    0.99    0.11
   5  -6   8    1.06    0.13
  -5  -6  -8    0.90    0.10
   5   6  -8    0.95    0.09
  -5  -6   8    0.98    0.09
   5  -6  -8    0.99    0.11
   5  -6  -8    0.94    0.14
  -5  -6   8    1.00    0.11
   5   6   8    0.83    0.11
   6   6  -8    0.75    0.08
  -6  -6  -8    0.59    0.08
  -6  -6  -8    0.59    0.07
   6   6  -8    0.57    0.07
   6  -6   8    0.50    0.08
  -6  -6   8    0.60    0.10
   6   6   8    0.54    0.08
   6  -6  -8    0.75    0.08
  -6  -6   8    0.63    0.07
   6   6   8    0.62    0.08
  -7  -6  -8    0.04    0.04
   7   6  -8    0.01    0.03
   7   6   8    0.05    0.04
  -7  -6   8   -0.01    0.04
   7  -6  -8   -0.01    0.04
   0  -7  -8   -0.05    0.05
   0  -7   8    0.03    0.06
   0  -7   8    0.02    0.04
   0  -7   8    0.10    0.06
   0  -7  -8    0.05    0.07
   0  -7  -8    0.09    0.06
   0  -7   8   -0.06    0.04
   0  -7   8    0.06    0.05
   0  -7  -8   -0.06    0.09
   0  -7  -8   -0.06    0.08
  -1  -7  -8   -0.01    0.05
  -1  -7  -8    0.04    0.06
   1  -7   8    0.06    0.06
   1  -7   8    0.03    0.04
   1  -7   8    0.03    0.06
   1  -7   8    0.05    0.04
  -1  -7  -8    0.15    0.07
   1  -7   8    0.01    0.07
  -1  -7  -8   -0.11    0.08
  -1  -7   8    0.10    0.06
   1  -7  -8    0.10    0.08
  -1  -7   8    0.05    0.07
  -1  -7   8    0.00    0.04
   1  -7  -8    0.05    0.06
   1  -7  -8    0.02    0.08
  -1  -7   8    0.04    0.05
  -1  -7   8    0.07    0.04
   1  -7  -8    0.07    0.06
   2  -7   8    1.80    0.15
   2  -7   8    1.78    0.12
  -2  -7  -8    1.77    0.16
   2  -7   8    1.72    0.12
  -2  -7  -8    1.95    0.15
   2  -7   8    1.61    0.15
  -2  -7  -8    1.86    0.15
  -2  -7  -8    1.82    0.17
  -2  -7   8    1.78    0.12
   2  -7  -8    1.72    0.17
  -2  -7   8    1.68    0.15
  -2  -7   8    1.59    0.14
   2  -7  -8    1.76    0.15
   2  -7  -8    1.88    0.17
  -2  -7   8    1.67    0.13
  -2  -7   8    1.64    0.12
   2  -7  -8    1.73    0.16
   3  -7   8    1.62    0.13
  -3  -7  -8    1.92    0.15
  -3  -7  -8    1.67    0.16
  -3  -7  -8    1.97    0.14
   3  -7   8    1.55    0.14
   3  -7   8    1.46    0.15
   3  -7   8    1.67    0.13
   3   7  -8    1.75    0.14
  -3  -7  -8    1.79    0.16
  -3  -7  -8    1.89    0.15
   3  -7  -8    1.64    0.15
  -3  -7   8    1.83    0.12
   3  -7  -8    1.68    0.17
  -3  -7   8    1.79    0.12
  -3  -7   8    1.55    0.14
   3   7   8    1.78    0.16
  -3  -7   8    1.66    0.13
  -3  -7   8    1.66    0.12
   3  -7  -8    1.51    0.17
   4  -7   8   18.74    0.96
  -4  -7  -8   17.75    0.96
  -4  -7  -8   20.03    0.96
  -4  -7  -8   20.08    0.96
   4   7  -8   20.78    0.96
   4  -7   8   19.24    0.95
  -4  -7  -8   20.84    0.97
  -4  -7   8   18.52    0.95
   4  -7  -8   20.51    0.97
  -4  -7   8   18.60    0.95
   4  -7  -8   18.73    0.96
   4   7   8   19.70    0.96
  -4  -7   8   17.59    0.97
  -4  -7   8   19.82    0.96
   5  -7   8    0.38    0.08
   5   7  -8    0.43    0.07
  -5  -7  -8    0.46    0.08
  -5  -7  -8    0.55    0.08
   5   7   8    0.42    0.09
  -5  -7   8    0.30    0.10
   5  -7  -8    0.47    0.09
  -5  -7   8    0.46    0.06
  -6  -7  -8    4.76    0.24
  -6  -7  -8    5.01    0.24
   6  -7   8    4.22    0.24
   6   7  -8    4.34    0.24
  -6  -7   8    4.73    0.24
   6   7   8    4.19    0.24
   0  -8   8   29.76    1.52
   0  -8   8   31.02    1.49
   0  -8   8   31.05    1.50
   0  -8  -8   31.56    1.52
   0  -8  -8   30.87    1.51
   0  -8   8   31.69    1.51
   0  -8   8   29.99    1.50
   0  -8  -8   29.10    1.50
   0  -8  -8   31.19    1.52
  -1  -8  -8    6.95    0.37
   1  -8   8    6.49    0.36
   1  -8   8    6.73    0.35
   1  -8   8    6.92    0.36
   1  -8   8    6.20    0.39
   1  -8   8    7.44    0.37
  -1  -8  -8    7.09    0.38
  -1  -8  -8    6.88    0.37
  -1  -8  -8    7.29    0.39
  -1  -8   8    6.54    0.39
  -1  -8   8    6.84    0.36
   1  -8  -8    6.94    0.39
  -1  -8   8    6.99    0.37
   1  -8  -8    7.32    0.37
   1  -8  -8    7.13    0.38
  -1  -8   8    6.90    0.36
   1  -8  -8    6.24    0.37
  -1  -8   8    6.67    0.36
  -2  -8  -8    3.20    0.19
   2  -8   8    2.86    0.18
   2  -8   8    3.19    0.19
  -2  -8  -8    3.00    0.21
  -2  -8  -8    3.27    0.20
  -2  -8  -8    3.05    0.19
   2  -8   8    3.20    0.17
   2  -8   8    2.57    0.21
   2  -8  -8    2.50    0.19
  -2  -8   8    3.06    0.17
  -2  -8   8    2.91    0.18
   2   8   8    3.00    0.21
  -2  -8   8    3.03    0.19
   2  -8  -8    2.82    0.21
  -2  -8   8    2.82    0.20
   2  -8  -8    2.92    0.20
  -2  -8   8    3.12    0.17
   3   8  -8    0.80    0.10
  -3  -8  -8    0.87    0.09
  -3  -8  -8    0.74    0.10
   3  -8   8    0.68    0.14
  -3  -8  -8    0.77    0.09
   3  -8   8    0.88    0.10
   3  -8   8    0.81    0.08
   3  -8  -8    0.97    0.13
  -3  -8   8    0.94    0.12
   3  -8  -8    0.87    0.12
  -3  -8   8    0.79    0.07
  -3  -8   8    0.83    0.07
  -3  -8   8    0.89    0.09
   4   8  -8   26.70    1.33
  -4  -8  -8   28.26    1.33
  -4  -8  -8   25.85    1.33
  -4  -8  -8   28.89    1.34
   4  -8   8   26.64    1.32
  -4  -8  -8   27.57    1.33
   4  -8   8   25.02    1.33
  -4  -8   8   26.61    1.33
  -4  -8   8   29.22    1.35
  -4  -8   8   28.35    1.32
  -5  -8  -8    0.69    0.06
   5  -8   8    0.73    0.09
  -5  -8  -8    0.35    0.10
   5   8  -8    0.62    0.06
   5   8  -8    0.47    0.07
  -5  -8   8    0.62    0.06
   5   8   8    0.52    0.06
   0  -9   8   -0.01    0.09
   0  -9   8    0.02    0.03
   0  -9  -8    0.02    0.05
   0  -9  -8    0.09    0.05
   0  -9   8    0.03    0.04
   0  -9   8    0.01    0.03
   0  -9   8    0.05    0.05
   0  -9  -8    0.03    0.04
   0  -9  -8    0.03    0.06
   1  -9   8    0.12    0.05
   1  -9   8    0.02    0.03
  -1  -9  -8    0.04    0.04
  -1  -9  -8    0.06    0.05
  -1  -9  -8    0.07    0.04
   1  -9   8   -0.01    0.09
   1  -9   8    0.07    0.03
  -1  -9  -8    0.10    0.06
  -1  -9   8    0.04    0.03
  -1  -9   8    0.04    0.03
  -1  -9   8    0.02    0.04
  -1  -9   8    0.05    0.04
   1  -9  -8    0.01    0.04
   1  -9  -8    0.01    0.06
  -1  -9   8    0.09    0.09
   1  -9  -8    0.04    0.07
   1  -9  -8    0.02    0.05
  -2  -9  -8    1.91    0.12
  -2  -9  -8    1.85    0.13
   2  -9   8    1.89    0.12
   2  -9   8    1.83    0.11
  -2  -9  -8    1.87    0.12
   2  -9   8    1.97    0.13
  -2  -9   8    1.88    0.11
   2  -9  -8    1.81    0.13
   2  -9  -8    1.80    0.15
   2  -9  -8    1.99    0.14
  -2  -9   8    2.08    0.13
  -2  -9   8    1.85    0.11
  -2  -9   8    2.06    0.17
  -3  -9  -8    0.44    0.06
  -3  -9  -8    0.38    0.07
   3  -9   8    0.52    0.06
  -3  -9  -8    0.55    0.06
   3  -9   8    0.49    0.07
  -3  -9   8    0.52    0.06
  -3  -9   8    0.44    0.05
  -3  -9   8    0.41    0.05
   0 -10  -8   16.41    0.82
   0 -10  -8   16.33    0.81
   0 -10   8   16.48    0.81
   0 -10   8   17.55    0.81
   0 -10   8   16.67    0.81
  -1 -10  -8    2.24    0.12
   1 -10   8    2.22    0.11
   1 -10   8    1.89    0.12
   1 -10   8    1.93    0.11
   1 -10  -8    2.01    0.12
   1 -10  -8    1.79    0.12
  -1 -10   8    1.94    0.11
  -1 -10   8    2.18    0.12
  -1 -10   8    1.99    0.11
   0   0   9    0.03    0.03
   0   0  -9    0.08    0.02
  -1   0  -9    0.02    0.02
   1   0  -9    0.04    0.02
   1   0   9    0.05    0.02
   2   0   9    0.07    0.04
   2   0  -9    0.00    0.03
  -3   0   9    0.05    0.05
   3   0   9    0.02    0.04
   3   0  -9    0.08    0.04
  -4   0   9   -0.01    0.05
   4   0  -9   -0.04    0.07
   5   0  -9    0.32    0.15
   5   0   9    0.08    0.07
   5   0  -9    0.26    0.08
   5   0   9    0.12    0.07
  -5   0   9    0.00    0.06
   5   0  -9    0.00    0.05
  -6   0  -9    0.17    0.10
  -6   0  -9   -0.08    0.06
   6   0  -9   -0.08    0.05
   6   0  -9    0.03    0.04
   6   0   9   -0.01    0.06
  -7   0  -9    0.00    0.06
   7   0  -9    0.02    0.04
   7   0  -9    0.02    0.05
   7   0   9    0.01    0.05
   8   0  -9    0.00    0.03
  -8   0  -9    0.12    0.08
   8   0  -9    0.04    0.04
  -8   0  -9    0.03    0.04
   8   0   9   -0.03    0.04
   0   1  -9   -0.01    0.02
   0  -1   9    0.00    0.04
   0  -1  -9    0.04    0.03
   1  -1   9   20.25    1.05
   1   1  -9   21.20    1.06
  -1   1  -9   23.84    1.05
   1  -1  -9   23.02    1.06
   1   1   9   20.55    1.05
   2  -1   9    0.90    0.08
   2   1  -9    0.82    0.07
  -2  -1   9    0.96    0.07
   2   1   9    0.94    0.07
   2   1   9    0.89    0.08
   2  -1  -9    0.96    0.08
   3   1  -9    2.43    0.15
   3  -1   9    2.36    0.16
   3   1   9    2.50    0.14
   3  -1  -9    2.64    0.16
  -3  -1   9    2.75    0.15
   4  -1   9    6.89    0.41
  -4   1   9    7.96    0.40
   4   1  -9    7.61    0.42
   4   1  -9    7.67    0.41
   4  -1   9    8.06    0.42
  -4  -1  -9    7.55    0.41
  -4  -1   9    8.62    0.40
   4  -1  -9    7.29    0.42
   4  -1  -9    8.39    0.42
  -5   1   9    0.26    0.08
   5  -1   9    0.18    0.08
   5   1  -9    0.00    0.13
   5   1  -9   -0.08    0.09
   5  -1   9    0.15    0.06
   5   1  -9   -0.04    0.05
  -5  -1  -9    0.02    0.05
   5   1  -9    0.01    0.06
  -5  -1  -9    0.07    0.08
   5  -1  -9    0.09    0.05
   5  -1  -9    0.06    0.15
   5   1   9    0.14    0.07
  -5  -1   9    0.04    0.05
   6  -1   9    0.45    0.09
  -6  -1  -9    0.28    0.10
   6  -1   9    0.50    0.12
   6   1  -9    0.31    0.08
   6   1  -9    0.37    0.09
  -6  -1  -9    0.35    0.09
  -6   1  -9    0.27    0.08
   6  -1  -9    0.52    0.10
  -6  -1   9    0.30    0.09
  -6   1  -9    0.20    0.11
   6  -1  -9    0.27    0.08
   6   1   9    0.41    0.12
   7   1  -9    3.51    0.20
  -7  -1  -9    2.70    0.21
   7  -1   9    3.02    0.21
   7   1  -9    3.22    0.19
   7   1   9    3.01    0.21
  -7  -1   9    2.98    0.21
  -7   1  -9    2.76    0.21
   7  -1  -9    3.52    0.20
   7  -1  -9    3.31    0.19
   8  -1   9    4.35    0.23
   8   1  -9    4.52    0.23
   8   1  -9    4.15    0.22
  -8  -1  -9    3.94    0.23
  -8  -1  -9    4.34    0.26
   8  -1  -9    4.59    0.24
  -8   1  -9    4.26    0.26
   8   1   9    3.85    0.23
   8  -1  -9    3.96    0.23
   0  -2  -9   23.36    1.12
   0   2  -9   24.31    1.10
   0  -2   9   23.98    1.11
   0  -2   9   19.48    1.11
   1   2  -9    6.40    0.32
   1  -2   9    6.54    0.33
   1  -2  -9    5.81    0.33
  -1   2  -9    6.83    0.31
  -1  -2   9    6.34    0.33
   2  -2   9   14.48    0.71
   2   2  -9   14.75    0.70
  -2  -2  -9   12.03    0.70
   2  -2  -9   13.45    0.71
   2   2   9   16.34    0.71
  -2  -2   9   14.13    0.70
   3  -2   9   18.55    0.93
  -3  -2  -9   17.77    0.92
   3   2  -9   18.40    0.92
  -3  -2   9   19.85    0.92
   3  -2  -9   18.23    0.93
   3   2   9   19.08    0.92
   4  -2   9   18.20    0.99
   4   2  -9   19.80    0.99
   4   2  -9   20.39    1.00
   4  -2   9   19.44    0.99
   4  -2   9   19.02    0.98
  -4  -2  -9   18.45    0.99
  -4  -2  -9   20.24    1.00
   4  -2  -9   20.73    1.00
   4  -2  -9   20.01    1.01
   4  -2  -9   20.18    0.99
  -4  -2   9   21.21    0.99
   4   2   9   21.71    1.01
  -5  -2  -9    0.29    0.09
  -5  -2  -9    0.57    0.13
   5  -2   9    0.32    0.09
   5   2  -9    0.41    0.09
   5   2  -9    0.42    0.09
   5  -2   9    0.28    0.10
   5   2  -9    0.24    0.07
   5  -2  -9    0.22    0.21
  -5  -2   9    0.44    0.09
   5  -2  -9    0.41    0.08
   5  -2  -9    0.41    0.10
   5   2   9    0.51    0.12
  -5  -2   9    0.39    0.08
  -6  -2  -9    0.41    0.10
  -6  -2  -9    0.58    0.13
   6   2  -9    0.42    0.09
   6  -2   9    0.39    0.09
   6   2  -9    0.39    0.10
   6  -2  -9    0.54    0.10
   6  -2  -9    0.40    0.08
  -6  -2   9    0.40    0.09
   6   2   9    0.38    0.11
  -6  -2   9    0.42    0.10
  -7  -2  -9    0.04    0.05
   7  -2   9   -0.02    0.05
   7   2  -9    0.04    0.05
   7   2  -9    0.02    0.04
  -7  -2  -9    0.13    0.07
   7  -2  -9    0.00    0.03
  -7  -2   9    0.09    0.07
   7   2   9    0.01    0.05
   7  -2  -9    0.13    0.06
  -7   2  -9   -0.03    0.07
   8  -2   9    1.35    0.10
   8   2  -9    1.21    0.09
  -8  -2  -9    1.36    0.10
   8   2  -9    1.53    0.10
  -8   2  -9    1.18    0.13
   8   2   9    1.27    0.10
   8  -2  -9    1.41    0.12
   8  -2  -9    1.39    0.09
   0   3  -9    0.05    0.03
   0  -3   9   -0.04    0.04
   1   3  -9   11.50    0.57
   1  -3   9   11.01    0.57
  -1   3  -9   13.03    0.56
  -1  -3   9   10.99    0.57
   1   3   9   11.02    0.58
   1  -3  -9   10.48    0.58
   2  -3   9   39.19    1.80
  -2  -3  -9   35.03    1.79
   2   3  -9   38.13    1.79
  -2  -3   9   37.61    1.79
   2  -3  -9   33.37    1.80
   2   3   9   37.67    1.80
  -3  -3  -9    1.40    0.12
   3   3  -9    1.40    0.11
   3  -3  -9    1.08    0.14
  -3  -3   9    1.44    0.10
   3   3   9    1.43    0.13
   4   3  -9   17.54    0.87
   4  -3   9   17.18    0.88
   4  -3   9   16.93    0.87
   4   3  -9   17.02    0.88
   4  -3   9   16.99    0.86
  -4  -3  -9   17.31    0.87
  -4  -3  -9   17.93    0.87
   4  -3  -9   18.14    0.88
  -4  -3   9   18.17    0.86
   4  -3  -9   15.32    0.90
   4  -3  -9   17.33    0.86
   4  -3  -9   16.98    0.89
  -4  -3   9   17.22    0.86
   4   3   9   18.30    0.88
   5   3  -9   11.48    0.59
  -5  -3  -9    9.86    0.59
  -5  -3  -9   12.43    0.60
   5   3  -9   11.51    0.58
  -5  -3  -9   10.61    0.59
   5  -3   9   10.17    0.60
   5  -3   9   11.01    0.59
   5  -3  -9   11.46    0.58
  -5  -3   9   11.08    0.58
   5  -3  -9   12.23    0.60
  -5  -3   9   12.78    0.59
   5   3   9   12.20    0.60
   6   3  -9    2.00    0.15
  -6  -3  -9    1.97    0.16
   6  -3   9    2.06    0.16
  -6  -3  -9    2.19    0.17
  -6  -3  -9    1.91    0.17
   6   3  -9    2.06    0.16
   6  -3  -9    2.32    0.17
   6  -3  -9    2.20    0.15
  -6  -3   9    2.19    0.15
  -6  -3   9    2.40    0.15
   6   3   9    2.27    0.18
   7   3  -9   15.44    0.76
   7  -3   9   14.19    0.75
  -7  -3  -9   15.19    0.77
   7   3  -9   15.28    0.75
  -7  -3  -9   14.78    0.76
  -7  -3   9   15.17    0.76
  -7  -3   9   15.91    0.74
  -7   3  -9   13.77    0.77
   7   3   9   15.23    0.76
   7  -3  -9   14.95    0.75
   7  -3  -9   15.62    0.76
   8   3  -9   11.35    0.54
  -8  -3  -9   11.17    0.54
   8   3   9   10.17    0.54
   8  -3  -9   10.84    0.54
   0   4  -9  215.79   10.60
   0  -4   9  226.43   10.61
   1  -4   9   16.98    0.86
   1   4  -9   17.04    0.85
  -1   4  -9   17.03    0.84
   1   4   9   17.65    0.87
  -1  -4   9   17.22    0.86
  -2  -4  -9   76.08    3.59
   2  -4   9   77.69    3.60
   2   4  -9   75.42    3.60
   2   4   9   70.16    3.61
  -2  -4   9   72.91    3.59
  -3  -4  -9   33.95    1.88
   3  -4   9   37.24    1.87
   3   4  -9   39.34    1.87
  -3  -4  -9   38.81    1.89
  -3  -4  -9   39.57    1.88
  -3  -4  -9   37.05    1.88
   3   4  -9   39.72    1.89
   3  -4   9   40.47    1.89
  -3  -4  -9   41.48    1.88
   3  -4   9   39.85    1.88
  -3  -4   9   40.46    1.88
   3  -4  -9   38.23    1.89
   3   4   9   38.05    1.90
  -3  -4   9   36.93    1.87
  -3  -4   9   40.56    1.87
   3  -4  -9   37.58    1.89
  -3  -4   9   34.62    1.87
   3  -4  -9   37.94    1.88
   3  -4  -9   39.18    1.91
  -4  -4  -9    2.68    0.19
  -4  -4  -9    2.54    0.18
   4  -4   9    2.39    0.17
   4  -4   9    2.43    0.18
  -4  -4  -9    2.04    0.22
   4   4  -9    2.45    0.17
  -4  -4  -9    2.51    0.19
   4  -4   9    2.62    0.19
   4  -4  -9    2.55    0.24
  -4  -4   9    2.54    0.17
   4   4   9    2.78    0.20
   4  -4  -9    2.63    0.21
   4  -4  -9    2.58    0.18
   4  -4  -9    2.89    0.38
  -4  -4   9    2.71    0.17
  -5  -4  -9    3.22    0.21
  -5  -4  -9    2.93    0.20
   5  -4   9    2.91    0.20
  -5  -4  -9    3.13    0.21
   5   4  -9    3.14    0.19
   5  -4   9    3.03    0.20
   5  -4   9    2.80    0.21
  -5  -4   9    3.04    0.19
   5  -4  -9    2.95    0.20
   5   4   9    3.27    0.21
  -5  -4   9    3.16    0.19
   5  -4  -9    3.29    0.23
  -6  -4  -9    8.20    0.47
  -6  -4  -9    8.18    0.46
  -6  -4  -9    9.51    0.46
   6  -4   9    8.61    0.46
   6   4  -9    9.02    0.46
   6   4   9    9.49    0.47
   6   4   9    8.76    0.46
   6  -4  -9    8.59    0.46
  -6  -4   9    8.15    0.46
  -6  -4   9    9.00    0.45
   6  -4  -9    8.70    0.47
   7   4  -9    0.19    0.05
  -7  -4  -9    0.27    0.09
   7  -4   9    0.31    0.07
  -7  -4  -9    0.22    0.06
   7   4   9    0.11    0.04
  -7  -4   9    0.20    0.07
  -7   4  -9    0.00    0.08
  -7  -4   9    0.23    0.06
   7  -4  -9    0.16    0.08
   7  -4  -9    0.10    0.04
   0  -5   9    0.03    0.04
   0  -5   9    0.13    0.06
   0  -5  -9    0.05    0.07
   0  -5  -9    0.09    0.08
   0  -5   9    0.04    0.06
   0  -5  -9   -0.06    0.08
   0  -5  -9   -0.01    0.09
   0  -5   9    0.03    0.04
   0   5  -9    0.08    0.07
   0  -5  -9    0.16    0.10
   0  -5   9    0.00    0.06
   0   5   9   -0.06    0.08
   1  -5   9   45.97    2.32
   1  -5   9   52.08    2.33
  -1  -5  -9   49.37    2.32
  -1  -5  -9   49.19    2.34
   1  -5   9   46.71    2.31
  -1  -5  -9   46.66    2.33
  -1  -5  -9   47.85    2.32
  -1  -5  -9   44.76    2.32
   1   5  -9   47.98    2.32
   1  -5   9   49.76    2.31
  -1  -5   9   46.93    2.31
   1   5   9   48.88    2.35
  -1  -5   9   45.91    2.31
  -1  -5   9   47.40    2.31
   1  -5  -9   47.29    2.32
   1  -5  -9   50.03    2.32
   1  -5  -9   46.31    2.33
  -1  -5   9   46.91    2.31
  -1  -5   9   48.51    2.33
   1  -5  -9   45.96    2.33
  -2  -5  -9    0.98    0.15
   2   5  -9    0.86    0.14
  -2  -5  -9    1.16    0.13
  -2  -5  -9    1.02    0.16
   2  -5   9    1.08    0.12
  -2  -5  -9    0.88    0.13
  -2  -5  -9    1.31    0.16
   2  -5   9    0.83    0.10
   2  -5   9    1.00    0.11
   2  -5   9    0.74    0.10
  -2  -5   9    0.85    0.10
  -2  -5   9    0.87    0.10
  -2  -5   9    0.79    0.10
  -2  -5   9    1.04    0.11
   2  -5  -9    0.68    0.17
   2  -5  -9    0.77    0.12
   2  -5  -9    0.60    0.15
   2   5   9    0.78    0.17
   2  -5  -9    1.15    0.16
  -2  -5   9    1.07    0.11
   3  -5   9   21.96    1.05
   3  -5   9   19.83    1.04
   3  -5   9   21.59    1.06
  -3  -5  -9   20.77    1.05
  -3  -5  -9   21.93    1.05
  -3  -5  -9   22.36    1.05
  -3  -5  -9   21.15    1.06
  -3  -5  -9   21.61    1.07
   3   5  -9   20.39    1.04
  -3  -5  -9   21.16    1.05
  -3  -5   9   19.81    1.04
   3  -5  -9   20.96    1.05
  -3  -5   9   20.70    1.04
  -3  -5   9   21.88    1.05
   3  -5  -9   21.66    1.06
   3  -5  -9   18.50    1.06
   3   5   9   19.43    1.09
  -3  -5   9   22.40    1.04
  -3  -5   9   22.08    1.04
  -4  -5  -9  104.42    4.77
  -4  -5  -9  102.91    4.77
  -4  -5  -9   98.99    4.78
  -4  -5  -9  100.08    4.76
   4  -5   9  101.03    4.76
   4  -5   9   89.57    4.78
  -4  -5  -9   96.75    4.76
   4   5  -9   98.51    4.76
   4  -5   9   97.69    4.75
   4   5   9  102.88    4.77
  -4  -5   9   92.82    4.76
  -4  -5   9  100.76    4.75
   4  -5  -9  104.03    4.77
   4  -5  -9  101.28    4.76
   4  -5  -9   89.39    4.77
   5  -5   9   22.81    1.13
   5  -5   9   19.37    1.16
  -5  -5  -9   23.31    1.15
  -5  -5  -9   24.22    1.15
  -5  -5  -9   25.02    1.15
   5  -5   9   22.54    1.14
   5   5  -9   24.51    1.14
  -5  -5   9   25.08    1.14
  -5  -5   9   20.59    1.15
   5  -5  -9   24.03    1.15
   5   5   9   24.45    1.16
   5  -5  -9   21.27    1.15
  -6  -5  -9   29.42    1.34
  -6  -5  -9   27.53    1.34
  -6  -5  -9   27.85    1.35
   6   5  -9   28.59    1.33
   6  -5   9   24.71    1.33
   6   5  -9   26.98    1.33
  -6  -5   9   27.70    1.33
   6   5   9   28.09    1.34
  -6  -5   9   25.28    1.34
   6  -5  -9   25.37    1.34
   6  -5  -9   27.56    1.34
   6   5   9   27.56    1.34
  -7  -5  -9   24.75    1.14
   7   5  -9   22.27    1.14
   7   5   9   24.57    1.16
  -7  -5   9   23.14    1.13
   7   5   9   21.81    1.14
   7  -5  -9   23.43    1.14
   0  -6   9   28.49    1.41
   0  -6   9   29.10    1.40
   0  -6  -9   28.48    1.42
   0  -6  -9   29.03    1.43
   0  -6   9   27.73    1.40
   0  -6   9   28.19    1.40
   0  -6   9   31.30    1.43
   0  -6  -9   28.72    1.42
   0  -6  -9   27.04    1.42
   0  -6  -9   29.07    1.42
   1   6  -9   50.27    2.67
   1  -6   9   57.09    2.65
   1  -6   9   55.43    2.66
  -1  -6  -9   54.11    2.66
  -1  -6  -9   54.05    2.67
  -1  -6  -9   56.83    2.68
   1  -6   9   51.45    2.65
  -1  -6  -9   54.88    2.67
   1  -6   9   55.88    2.65
   1  -6   9   61.38    2.68
  -1  -6  -9   54.43    2.66
   1  -6  -9   53.45    2.68
   1  -6  -9   54.30    2.66
  -1  -6   9   57.69    2.67
   1  -6  -9   49.93    2.66
  -1  -6   9   53.61    2.66
   1  -6  -9   56.50    2.67
   1  -6  -9   56.34    2.66
  -1  -6   9   52.71    2.65
  -1  -6   9   56.32    2.65
  -1  -6   9   54.06    2.65
   2  -6   9   18.50    1.04
  -2  -6  -9   21.23    1.05
   2  -6   9   20.77    1.01
  -2  -6  -9   21.37    1.04
   2  -6   9   20.89    1.02
   2  -6   9   21.75    1.03
  -2  -6  -9   20.39    1.03
  -2  -6  -9   21.18    1.03
   2  -6  -9   21.96    1.03
  -2  -6   9   17.51    1.01
   2  -6  -9   19.66    1.04
  -2  -6   9   22.10    1.02
   2  -6  -9   22.23    1.04
  -2  -6   9   20.74    1.02
  -2  -6   9   21.33    1.01
   2  -6  -9   17.87    1.03
  -3  -6  -9   36.05    1.72
  -3  -6  -9   35.39    1.73
  -3  -6  -9   36.11    1.73
   3  -6   9   34.04    1.71
   3  -6   9   32.18    1.73
  -3  -6  -9   35.61    1.72
   3   6  -9   35.62    1.71
   3  -6   9   34.09    1.70
  -3  -6  -9   35.61    1.71
   3  -6   9   36.19    1.72
  -3  -6   9   31.62    1.72
  -3  -6   9   37.31    1.70
   3  -6  -9   34.84    1.72
  -3  -6   9   36.48    1.70
   3  -6  -9   36.57    1.72
  -3  -6   9   33.62    1.71
   3  -6  -9   33.15    1.73
  -3  -6   9   35.86    1.71
  -4  -6  -9    9.41    0.51
   4   6  -9    9.79    0.50
   4  -6   9    9.38    0.50
  -4  -6  -9    9.10    0.51
  -4  -6  -9    9.66    0.51
  -4  -6  -9   10.29    0.50
   4  -6   9   10.16    0.49
  -4  -6   9    8.55    0.51
   4   6   9   10.09    0.51
  -4  -6   9    9.67    0.50
   4  -6  -9    9.87    0.50
   4  -6  -9    9.50    0.52
   5  -6   9    7.61    0.48
   5   6  -9    9.68    0.46
   5  -6   9    8.60    0.46
  -5  -6  -9    7.99    0.46
  -5  -6  -9    9.80    0.47
   5  -6  -9    8.35    0.48
  -5  -6   9    8.17    0.47
   5  -6  -9    9.09    0.46
   5   6   9    9.86    0.47
  -5  -6   9    9.56    0.46
   6  -6   9    0.20    0.05
   6   6  -9    0.21    0.05
   6   6  -9    0.32    0.07
  -6  -6  -9    0.18    0.05
  -6  -6  -9    0.30    0.07
   6   6   9    0.18    0.05
  -6  -6   9    0.27    0.09
   6  -6  -9    0.19    0.06
  -6  -6   9    0.24    0.05
   6   6   9    0.28    0.07
   0  -7  -9   -0.04    0.08
   0  -7  -9   -0.02    0.05
   0  -7  -9   -0.04    0.08
   0  -7  -9    0.02    0.07
   0  -7   9    0.01    0.04
   0  -7  -9   -0.05    0.06
   0  -7   9    0.00    0.05
   0  -7   9    0.00    0.06
   0  -7   9    0.01    0.06
   0  -7   9    0.00    0.04
   1  -7   9    0.40    0.07
  -1  -7  -9    0.39    0.10
   1  -7   9    0.31    0.09
  -1  -7  -9    0.46    0.14
   1  -7   9    0.33    0.10
  -1  -7  -9    0.39    0.11
  -1  -7  -9    0.46    0.14
   1  -7   9    0.48    0.07
   1  -7   9    0.46    0.10
  -1  -7  -9    0.50    0.11
   1  -7  -9    0.33    0.10
  -1  -7   9    0.34    0.07
   1  -7  -9    0.32    0.10
  -1  -7   9    0.42    0.09
  -1  -7   9    0.35    0.08
  -1  -7   9    0.32    0.09
   1  -7  -9    0.48    0.11
   1  -7  -9    0.70    0.12
  -1  -7   9    0.33    0.07
   2  -7   9   36.08    1.74
   2   7  -9   36.36    1.76
  -2  -7  -9   36.74    1.76
  -2  -7  -9   35.96    1.77
   2  -7   9   37.88    1.76
   2  -7   9   35.06    1.75
   2  -7   9   34.11    1.78
  -2  -7  -9   35.76    1.76
  -2  -7  -9   36.66    1.78
   2  -7  -9   34.72    1.76
  -2  -7   9   35.33    1.75
   2  -7  -9   35.51    1.77
   2  -7  -9   37.61    1.76
  -2  -7   9   37.38    1.75
  -2  -7   9   33.94    1.75
   2  -7  -9   37.14    1.77
  -2  -7   9   33.06    1.77
  -2  -7   9   36.91    1.74
  -3  -7  -9    8.51    0.47
  -3  -7  -9    8.19    0.45
  -3  -7  -9    8.63    0.45
  -3  -7  -9    8.36    0.46
   3  -7   9    8.77    0.45
   3   7  -9    8.92    0.45
  -3  -7  -9    9.10    0.46
   3  -7   9    8.24    0.44
   3  -7   9    7.31    0.46
   3  -7   9    8.34    0.43
   3  -7  -9    8.71    0.45
   3   7   9    8.76    0.46
  -3  -7   9    9.31    0.44
  -3  -7   9    8.88    0.44
  -3  -7   9    8.40    0.44
   3  -7  -9    8.90    0.46
  -3  -7   9    7.63    0.46
  -3  -7   9    8.24    0.44
   3  -7  -9    8.54    0.47
   4  -7   9    0.41    0.12
   4  -7   9    0.63    0.08
  -4  -7  -9    0.47    0.10
  -4  -7  -9    0.62    0.11
   4   7  -9    0.60    0.08
   4  -7   9    0.54    0.09
  -4  -7  -9    0.73    0.10
  -4  -7  -9    0.64    0.09
   4  -7  -9    0.47    0.10
  -4  -7   9    0.63    0.09
   4   7   9    0.48    0.10
  -4  -7   9    0.60    0.08
  -4  -7   9    0.53    0.10
   4  -7  -9    0.82    0.13
  -4  -7   9    0.54    0.09
  -5  -7  -9   25.87    1.23
   5  -7   9   22.53    1.23
   5   7  -9   25.44    1.23
  -5  -7  -9   26.44    1.23
   5  -7  -9   25.83    1.25
   5  -7  -9   26.02    1.23
  -5  -7   9   23.94    1.23
   5   7   9   25.69    1.23
  -5  -7   9   24.48    1.24
   6  -7   9    1.08    0.11
  -6  -7  -9    1.42    0.10
   6   7  -9    1.47    0.09
  -6  -7  -9    1.35    0.10
   6   7   9    1.19    0.13
  -6  -7   9    1.46    0.09
   6   7   9    1.53    0.09
   0  -8  -9   -0.02    0.06
   0  -8   9    0.05    0.04
   0  -8  -9    0.03    0.05
   0  -8   9    0.14    0.06
   0  -8   9    0.02    0.07
   0  -8  -9    0.33    0.10
   0  -8   9    0.06    0.04
   0  -8   9    0.07    0.05
   0  -8  -9    0.00    0.07
   1  -8   9    0.11    0.04
   1  -8   9    0.29    0.09
  -1  -8  -9    0.06    0.05
  -1  -8  -9    0.32    0.09
   1  -8   9    0.20    0.06
  -1  -8  -9    0.26    0.08
   1  -8   9    0.20    0.08
  -1  -8  -9    0.21    0.08
   1  -8   9    0.30    0.08
  -1  -8   9    0.11    0.04
   1  -8  -9    0.47    0.13
   1  -8  -9    0.18    0.08
  -1  -8   9    0.08    0.05
  -1  -8   9    0.32    0.08
   1  -8  -9    0.06    0.05
  -1  -8   9    0.29    0.06
   1  -8  -9    0.33    0.12
  -1  -8   9    0.09    0.07
  -2  -8  -9    0.18    0.06
   2  -8   9    0.13    0.08
   2  -8   9    0.19    0.05
   2  -8   9    0.12    0.06
  -2  -8  -9    0.27    0.08
   2  -8   9    0.22    0.06
  -2  -8  -9    0.30    0.09
  -2  -8   9    0.18    0.05
  -2  -8   9    0.31    0.09
   2  -8  -9    0.14    0.07
   2  -8  -9    0.13    0.08
  -2  -8   9    0.19    0.05
  -2  -8   9    0.26    0.06
   2  -8  -9    0.12    0.08
  -2  -8   9    0.17    0.05
  -3  -8  -9    0.83    0.09
   3  -8   9    0.73    0.13
  -3  -8  -9    0.71    0.10
  -3  -8  -9    0.92    0.09
   3   8  -9    0.95    0.11
   3  -8   9    0.74    0.09
   3  -8   9    0.63    0.09
   3  -8   9    0.85    0.08
  -3  -8   9    0.83    0.08
   3  -8  -9    0.49    0.12
  -3  -8   9    0.83    0.07
   3  -8  -9    0.96    0.13
   3   8   9    0.58    0.13
  -3  -8   9    0.77    0.07
  -3  -8   9    0.85    0.11
   3  -8  -9    0.80    0.11
  -4  -8  -9    0.07    0.06
  -4  -8  -9    0.07    0.06
  -4  -8  -9    0.12    0.04
   4  -8   9    0.26    0.07
   4  -8   9    0.17    0.05
   4   8  -9    0.13    0.05
  -4  -8   9    0.07    0.08
  -4  -8   9    0.08    0.04
   4  -8  -9    0.19    0.10
   5   8  -9    1.92    0.12
   5  -8   9    1.60    0.12
   5   8  -9    2.11    0.11
   5   8   9    1.87    0.12
   0  -9  -9    0.00    0.06
   0  -9   9    0.01    0.04
   0  -9  -9   -0.03    0.04
   0  -9   9    0.20    0.09
   0  -9  -9   -0.09    0.05
   0  -9   9    0.00    0.03
   0  -9  -9    0.00    0.05
   0  -9   9    0.03    0.02
  -1  -9  -9    0.17    0.06
  -1  -9  -9    0.15    0.05
  -1  -9  -9    0.14    0.04
   1  -9   9    0.16    0.04
   1  -9   9    0.11    0.05
   1  -9   9    0.26    0.05
  -1  -9  -9    0.23    0.07
   1  -9   9    0.23    0.10
   1  -9  -9    0.14    0.05
   1  -9  -9    0.35    0.07
  -1  -9   9    0.13    0.05
  -1  -9   9    0.15    0.09
  -1  -9   9    0.24    0.04
  -1  -9   9    0.19    0.04
   1  -9  -9    0.19    0.07
   2  -9   9   16.38    0.83
   2  -9   9   17.19    0.83
  -2  -9  -9   15.55    0.84
  -2  -9  -9   16.04    0.84
  -2  -9  -9   18.29    0.84
   2  -9   9   17.48    0.84
  -2  -9   9   17.87    0.86
   2  -9  -9   16.53    0.84
  -2  -9   9   17.80    0.84
   2  -9  -9   15.46    0.83
  -2  -9   9   17.41    0.83
   2  -9  -9   17.88    0.84
  -2  -9   9   16.71    0.83
   3  -9   9    0.51    0.07
  -3  -9  -9    0.64    0.07
  -3  -9  -9    0.60    0.06
   3  -9   9    0.72    0.06
  -3  -9   9    0.63    0.06
  -3  -9   9    0.58    0.06
  -3  -9   9    0.62    0.06
   0 -10   9    7.55    0.37
   0 -10  -9    6.99    0.38
   0 -10   9    8.36    0.38
   0 -10   9    7.76    0.37
   0 -10  -9    7.02    0.38
   0   0  10    5.60    0.31
   0   0 -10    6.45    0.30
   1   0  10  147.96    7.39
  -1   0 -10  159.59    7.42
   1   0 -10  155.11    7.41
   2   0  10   21.52    1.07
   2   0 -10   22.17    1.07
  -3   0  10  110.49    5.46
   3   0 -10  115.83    5.48
   3   0  10  115.20    5.48
   4   0  10   18.80    0.97
   4   0 -10   20.76    0.98
  -4   0  10   20.35    0.96
   4   0 -10   18.37    0.97
   5   0 -10   31.53    1.50
   5   0 -10   29.81    1.51
   5   0  10   29.49    1.51
  -5   0  10   30.83    1.50
   5   0  10   32.13    1.52
   5   0 -10   30.38    1.53
  -6   0 -10   15.71    0.79
  -6   0  10   15.44    0.78
   6   0 -10   16.58    0.78
  -6   0 -10   14.15    0.79
   6   0  10   15.11    0.79
   6   0 -10   15.28    0.78
   7   0  10    1.51    0.14
   7   0 -10    1.68    0.13
   7   0 -10    1.70    0.12
  -7   0 -10    1.41    0.14
   8   0 -10    2.74    0.16
   8   0  10    2.69    0.16
   8   0 -10    2.96    0.16
  -8   0 -10    2.64    0.19
  -8   0 -10    2.51    0.16
   0  -1  10   -0.03    0.05
   1   1 -10   10.73    0.55
   1  -1  10   10.89    0.55
   1  -1  10   10.61    0.54
  -1   1 -10   12.62    0.54
   1  -1 -10   11.64    0.55
   1   1  10    9.86    0.55
   2  -1  10   15.86    0.77
   2   1 -10   15.93    0.77
   2   1  10   14.34    0.76
   2  -1 -10   16.32    0.77
  -2  -1  10   15.48    0.76
   3  -1  10   42.75    2.10
   3   1 -10   41.02    2.10
   3  -1 -10   44.24    2.10
  -3  -1  10   44.60    2.09
   4  -1  10    2.55    0.19
   4   1 -10    2.73    0.18
   4  -1  10    2.79    0.19
   4  -1  10    2.88    0.18
  -4  -1 -10    2.85    0.18
   4   1 -10    2.68    0.19
   4  -1 -10    2.80    0.18
  -4  -1  10    2.73    0.16
   4   1  10    2.25    0.19
   4  -1 -10    2.68    0.19
   4   1  10    2.97    0.22
   4  -1 -10    2.57    0.19
   5   1 -10   48.46    2.33
   5  -1  10   44.57    2.34
  -5  -1 -10   47.97    2.34
   5  -1  10   47.08    2.33
  -5  -1 -10   48.21    2.33
   5   1 -10   47.47    2.33
   5   1 -10   46.87    2.33
   5  -1 -10   47.69    2.33
   5   1  10   52.19    2.35
   5  -1 -10   49.82    2.33
  -5  -1  10   48.57    2.32
   5  -1 -10   46.09    2.36
   6  -1  10    5.14    0.33
  -6  -1 -10    5.12    0.32
   6   1 -10    5.84    0.31
   6   1 -10    5.56    0.32
  -6  -1 -10    5.98    0.33
   6  -1  10    5.57    0.32
  -6  -1  10    6.02    0.32
   6  -1 -10    5.63    0.31
  -6   1 -10    5.18    0.33
   6   1  10    5.86    0.34
   6  -1 -10    5.84    0.32
  -6   1 -10    5.36    0.33
  -7  -1 -10   31.94    1.64
   7  -1  10   31.77    1.63
   7   1 -10   35.94    1.62
   7   1 -10   34.07    1.63
   7  -1 -10   34.26    1.62
   7  -1 -10   36.94    1.63
  -7   1 -10   29.84    1.64
   7   1  10   30.93    1.63
   8   1 -10    0.11    0.04
  -8  -1 -10    0.16    0.05
  -8  -1 -10    0.20    0.08
   8   1 -10    0.09    0.03
   8  -1  10    0.11    0.04
   8   1  10    0.20    0.06
   8  -1 -10    0.10    0.03
  -8   1 -10    0.30    0.09
   8  -1 -10    0.08    0.05
   0  -2  10   56.84    2.76
   0   2 -10   60.55    2.75
   0  -2 -10   54.35    2.77
   1   2 -10   57.25    2.68
   1  -2  10   57.28    2.69
  -1   2 -10   58.64    2.67
   1  -2 -10   51.94    2.69
  -1  -2  10   53.22    2.68
   2  -2  10    0.14    0.05
  -2  -2 -10    0.06    0.06
   2   2 -10    0.18    0.05
   2  -2 -10    0.19    0.06
   2   2  10    0.14    0.06
  -2  -2  10    0.09    0.04
   3   2 -10   19.74    1.00
  -3  -2 -10   18.70    1.00
   3  -2  10   20.88    1.00
  -3  -2  10   21.44    0.99
   3   2  10   19.49    0.99
   3  -2 -10   20.83    1.01
  -4  -2 -10    5.29    0.31
   4  -2  10    5.35    0.30
   4  -2  10    5.49    0.31
   4   2 -10    5.56    0.32
   4   2 -10    5.32    0.31
  -4  -2 -10    5.84    0.32
   4   2 -10    5.09    0.30
   4  -2  10    5.56    0.31
   4  -2 -10    5.43    0.34
   4  -2 -10    5.39    0.31
   4   2  10    5.54    0.33
   4  -2 -10    5.00    0.35
  -4  -2  10    5.83    0.30
   4  -2 -10    5.72    0.30
  -5  -2 -10   10.59    0.53
   5   2 -10    9.53    0.51
   5  -2  10    9.32    0.51
  -5  -2 -10    9.98    0.53
   5   2 -10    9.27    0.51
   5   2 -10    9.88    0.51
  -5  -2  10    9.04    0.51
   5  -2 -10   10.11    0.52
  -5  -2  10   10.65    0.51
   5  -2 -10   10.13    0.51
   5   2  10   10.11    0.53
   6  -2  10    2.91    0.22
   6   2 -10    3.20    0.20
   6   2 -10    3.29    0.21
  -6  -2 -10    3.42    0.22
   6  -2  10    2.94    0.20
  -6  -2 -10    3.12    0.22
  -6  -2  10    3.03    0.20
   6  -2 -10    3.42    0.21
   6   2  10    3.24    0.22
   6  -2 -10    3.22    0.20
   7   2 -10   -0.01    0.04
  -7  -2 -10   -0.12    0.15
   7   2 -10    0.10    0.05
  -7  -2 -10   -0.03    0.07
   7  -2  10    0.01    0.05
  -7  -2 -10    0.08    0.05
  -7  -2  10    0.02    0.08
  -7   2 -10   -0.05    0.06
   7  -2 -10   -0.04    0.03
   7   2  10    0.07    0.05
   8   2 -10    5.63    0.28
   8  -2  10    5.56    0.27
   8   2 -10    5.08    0.27
  -8  -2 -10    5.20    0.27
   8  -2 -10    5.22    0.28
   8  -2 -10    4.98    0.27
   8   2  10    4.71    0.28
   0  -3  10    0.03    0.04
   0   3 -10    0.00    0.03
   1   3 -10   58.40    2.74
   1  -3  10   58.93    2.74
   1  -3 -10   54.66    2.76
  -1  -3  10   56.80    2.74
   1   3  10   55.05    2.75
  -2  -3 -10   34.60    1.68
   2   3 -10   36.50    1.69
   2  -3  10   37.08    1.69
   2   3  10   34.62    1.69
   2  -3 -10   29.17    1.70
  -2  -3  10   35.56    1.68
  -3  -3 -10   24.41    1.16
   3   3 -10   25.62    1.16
   3  -3  10   23.09    1.15
  -3  -3 -10   23.46    1.15
   3  -3  10   23.74    1.16
   3  -3 -10   22.64    1.16
  -3  -3  10   24.49    1.15
   3  -3 -10   22.94    1.15
   3   3  10   23.15    1.16
   3  -3 -10   20.45    1.17
  -4  -3 -10   13.93    0.74
   4   3 -10   14.48    0.73
   4  -3  10   14.21    0.74
   4   3 -10   13.21    0.74
  -4  -3 -10   15.09    0.74
  -4  -3 -10   15.93    0.74
   4  -3  10   14.90    0.73
   4  -3  10   14.16    0.72
  -4  -3  10   13.98    0.73
  -4  -3  10   15.42    0.73
   4  -3 -10   15.31    0.74
   4   3  10   15.07    0.75
   4  -3 -10   14.55    0.76
   4  -3 -10   12.58    0.78
   4  -3 -10   14.56    0.73
   5   3 -10   16.32    0.81
  -5  -3 -10   15.34    0.81
  -5  -3 -10   16.93    0.82
   5   3 -10   16.25    0.80
   5  -3  10   14.68    0.82
   5  -3  10   15.62    0.80
  -5  -3 -10   15.94    0.81
   5  -3  10   15.80    0.81
   5  -3 -10   16.71    0.82
  -5  -3  10   16.19    0.80
   5   3  10   16.80    0.82
   5  -3 -10   15.81    0.80
  -5  -3  10   15.62    0.80
  -6  -3 -10    3.75    0.24
   6  -3  10    3.69    0.23
   6   3 -10    3.92    0.23
  -6  -3 -10    3.96    0.24
  -6  -3 -10    3.85    0.25
  -6  -3  10    3.58    0.23
   6  -3 -10    4.32    0.25
  -6  -3  10    4.14    0.23
   6   3  10    4.10    0.25
   6  -3 -10    3.83    0.23
  -7  -3 -10    3.21    0.20
   7   3 -10    2.84    0.18
  -7  -3 -10    2.85    0.17
  -7  -3 -10    2.94    0.20
   7  -3  10    2.58    0.17
  -7  -3  10    2.76    0.19
   7  -3 -10    2.72    0.17
  -7   3 -10    2.64    0.19
   7  -3 -10    2.98    0.19
   7   3  10    2.59    0.18
   8   3 -10    0.25    0.05
  -8  -3 -10    0.39    0.05
   8   3  10    0.23    0.05
   0  -4  10   50.35    2.40
   0   4 -10   48.43    2.39
   1   4 -10    7.82    0.43
   1  -4  10    8.60    0.44
   1   4  10    8.13    0.45
  -1  -4  10    8.56    0.44
  -1   4 -10    8.56    0.42
  -2  -4 -10    1.30    0.20
   2  -4  10    1.49    0.13
  -2  -4 -10    1.88    0.16
   2  -4  10    1.60    0.14
  -2  -4 -10    1.56    0.17
   2  -4  10    1.70    0.13
   2  -4 -10    1.67    0.17
   2  -4 -10    1.59    0.15
   2  -4 -10    1.33    0.17
  -2  -4  10    1.73    0.13
  -2  -4  10    1.61    0.12
   2   4  10    1.73    0.15
   3   4 -10    6.91    0.40
   3  -4  10    8.04    0.41
  -3  -4 -10    7.23    0.44
   3   4 -10    7.89    0.41
   3  -4  10    7.73    0.40
   3  -4  10    6.91    0.39
  -3  -4 -10    7.46    0.42
  -3  -4 -10    7.05    0.41
  -3  -4 -10    8.28    0.40
   3  -4 -10    7.22    0.45
  -3  -4  10    7.66    0.40
  -3  -4  10    7.60    0.40
   3  -4 -10    7.38    0.41
   3   4  10    7.34    0.43
   3  -4 -10    7.06    0.40
   3  -4 -10    7.90    0.43
  -3  -4  10    7.45    0.40
  -4  -4 -10    1.04    0.13
   4   4 -10    1.18    0.12
   4  -4  10    1.09    0.11
  -4  -4 -10    0.84    0.13
   4  -4  10    1.07    0.11
  -4  -4 -10    1.11    0.18
  -4  -4 -10    1.12    0.13
   4  -4  10    1.21    0.13
  -4  -4  10    1.22    0.11
   4   4  10    0.95    0.13
  -4  -4  10    1.10    0.11
   4  -4 -10    1.01    0.19
   4  -4 -10    1.11    0.15
   4  -4 -10    1.28    0.12
   5  -4  10    0.57    0.10
  -5  -4 -10    0.44    0.11
  -5  -4 -10    0.60    0.10
   5  -4  10    0.54    0.09
   5  -4  10    0.44    0.10
  -5  -4 -10    0.63    0.11
   5   4 -10    0.61    0.09
   5   4  10    0.42    0.11
   5  -4 -10    0.59    0.13
   5  -4 -10    0.73    0.10
  -5  -4  10    0.49    0.09
  -5  -4  10    0.30    0.08
   6   4 -10    0.72    0.10
   6   4 -10    0.68    0.08
   6  -4  10    0.56    0.09
  -6  -4 -10    0.90    0.11
  -6  -4 -10    0.62    0.09
  -6  -4 -10    0.53    0.12
   6   4  10    0.58    0.11
   6  -4 -10    0.85    0.12
  -6  -4  10    0.87    0.09
   6  -4 -10    0.78    0.10
  -6  -4  10    0.56    0.09
   6   4  10    0.83    0.11
  -7  -4 -10   14.44    0.68
   7   4 -10   13.44    0.68
  -7  -4 -10   14.29    0.68
  -7  -4 -10   14.46    0.69
   7  -4  10   12.08    0.67
   7  -4 -10   13.90    0.68
   7   4  10   12.71    0.68
  -7  -4  10   13.71    0.69
  -7   4 -10   12.87    0.69
  -7  -4  10   14.31    0.67
   7  -4 -10   12.87    0.68
   0  -5 -10   -0.13    0.07
   0  -5 -10    0.05    0.08
   0  -5 -10   -0.18    0.09
   0  -5 -10   -0.02    0.08
   0  -5  10    0.04    0.04
   0  -5  10    0.12    0.06
   0  -5  10    0.04    0.05
   0   5 -10    0.03    0.07
   0   5  10   -0.09    0.09
   0  -5  10   -0.05    0.06
   0  -5 -10   -0.11    0.09
   0  -5  10    0.20    0.07
   1   5 -10    5.62    0.31
   1  -5  10    5.29    0.30
  -1  -5 -10    5.31    0.33
  -1  -5 -10    5.54    0.33
   1  -5  10    5.45    0.29
  -1  -5 -10    5.06    0.32
   1  -5  10    5.26    0.29
  -1  -5 -10    5.60    0.32
  -1  -5 -10    5.07    0.31
  -1  -5  10    5.11    0.30
   1  -5 -10    5.58    0.31
  -1  -5  10    5.25    0.29
  -1  -5  10    5.36    0.29
  -1  -5  10    5.28    0.29
   1  -5 -10    5.55    0.32
   1  -5 -10    5.54    0.33
   1  -5 -10    4.91    0.33
   1   5  10    5.53    0.34
  -1  -5  10    5.84    0.31
  -2  -5 -10    2.93    0.20
   2  -5  10    2.89    0.19
  -2  -5 -10    2.97    0.23
   2   5 -10    2.68    0.20
  -2  -5 -10    2.84    0.23
   2  -5  10    2.51    0.17
   2   5 -10    2.78    0.21
  -2  -5 -10    3.06    0.20
   2  -5  10    2.48    0.17
  -2  -5 -10    2.80    0.21
   2  -5  10    3.01    0.19
  -2  -5  10    2.71    0.18
  -2  -5  10    2.66    0.18
   2  -5 -10    2.30    0.21
  -2  -5  10    2.72    0.18
  -2  -5  10    2.85    0.18
   2  -5 -10    2.74    0.22
   2  -5 -10    3.04    0.22
   2   5  10    3.12    0.25
  -2  -5  10    2.74    0.17
   2  -5 -10    2.73    0.19
  -3  -5 -10    1.61    0.15
   3   5 -10    1.50    0.14
  -3  -5 -10    1.32    0.16
  -3  -5 -10    1.43    0.20
   3  -5  10    1.85    0.14
   3  -5  10    1.70    0.15
   3  -5  10    1.75    0.13
  -3  -5 -10    1.62    0.18
  -3  -5 -10    1.34    0.16
   3  -5  10    1.57    0.14
  -3  -5  10    1.62    0.13
   3  -5 -10    1.68    0.18
  -3  -5  10    1.73    0.13
  -3  -5  10    1.70    0.14
  -3  -5  10    1.69    0.13
  -3  -5  10    1.79    0.13
   3  -5 -10    1.46    0.16
   3  -5 -10    1.72    0.15
  -4  -5 -10    0.20    0.11
  -4  -5 -10    0.39    0.11
   4  -5  10    0.36    0.09
  -4  -5 -10    0.33    0.11
   4   5 -10    0.34    0.09
   4  -5  10    0.17    0.08
  -4  -5 -10    0.13    0.10
  -4  -5 -10    0.14    0.09
   4  -5  10    0.23    0.06
  -4  -5  10    0.28    0.08
   4  -5 -10    0.35    0.10
  -4  -5  10    0.18    0.06
   4  -5 -10    0.54    0.16
   4  -5 -10    0.44    0.10
   4   5  10    0.12    0.06
  -5  -5 -10    1.07    0.14
   5  -5  10    1.32    0.11
   5  -5  10    1.15    0.12
   5   5 -10    1.11    0.11
  -5  -5 -10    1.24    0.12
  -5  -5 -10    1.23    0.12
   5  -5  10    0.91    0.13
   5  -5 -10    1.22    0.12
   5   5  10    1.18    0.13
   5  -5 -10    1.09    0.14
  -5  -5  10    1.09    0.11
  -5  -5  10    1.20    0.10
   6   5 -10    0.21    0.06
   6  -5  10    0.17    0.06
  -6  -5 -10    0.13    0.05
  -6  -5 -10    0.37    0.14
   6   5 -10    0.26    0.07
  -6  -5 -10    0.30    0.08
   6  -5 -10    0.22    0.06
   6  -5 -10    0.03    0.08
   6   5  10    0.06    0.06
  -6  -5  10    0.23    0.06
  -6  -5  10    0.27    0.09
   6   5  10    0.12    0.05
   7   5 -10    0.19    0.05
  -7  -5 -10    0.12    0.04
   7  -5 -10    0.19    0.05
  -7  -5  10    0.18    0.05
   7   5  10    0.12    0.04
   0  -6 -10   51.28    2.56
   0  -6 -10   53.87    2.56
   0  -6 -10   51.88    2.55
   0  -6 -10   52.52    2.55
   0  -6  10   51.12    2.53
   0  -6  10   51.54    2.53
   0  -6  10   58.62    2.56
   0  -6  10   50.13    2.54
   0  -6 -10   50.71    2.55
  -1  -6 -10    4.68    0.28
   1  -6  10    4.88    0.27
   1  -6  10    4.97    0.28
  -1  -6 -10    4.61    0.30
   1  -6  10    4.70    0.26
   1  -6  10    4.49    0.27
  -1  -6 -10    4.38    0.29
  -1  -6 -10    5.07    0.29
  -1  -6 -10    4.11    0.29
   1  -6  10    4.99    0.26
  -1  -6  10    4.62    0.26
   1  -6 -10    5.10    0.29
   1  -6 -10    3.95    0.30
   1  -6 -10    4.70    0.29
  -1  -6  10    4.67    0.25
   1  -6 -10    4.85    0.28
  -1  -6  10    4.84    0.26
  -1  -6  10    5.00    0.28
   1  -6 -10    4.19    0.29
  -1  -6  10    4.37    0.27
  -2  -6 -10    3.90    0.25
  -2  -6 -10    3.92    0.27
   2  -6  10    4.17    0.24
   2  -6  10    4.19    0.23
  -2  -6 -10    3.99    0.25
   2  -6  10    3.97    0.25
   2  -6  10    3.84    0.23
   2   6 -10    3.73    0.26
  -2  -6 -10    3.81    0.26
  -2  -6  10    4.16    0.23
   2  -6 -10    3.94    0.27
  -2  -6  10    3.63    0.25
  -2  -6  10    4.12    0.23
   2  -6 -10    4.55    0.26
  -2  -6  10    4.02    0.23
  -2  -6  10    4.08    0.24
   2  -6 -10    4.16    0.25
   2  -6 -10    4.25    0.27
  -3  -6 -10   44.78    2.10
  -3  -6 -10   44.03    2.10
   3  -6  10   44.13    2.09
   3  -6  10   41.74    2.11
   3   6 -10   41.67    2.08
  -3  -6 -10   43.33    2.10
   3  -6  10   43.04    2.08
   3  -6  10   41.24    2.08
  -3  -6 -10   44.16    2.09
  -3  -6 -10   41.38    2.11
  -3  -6  10   41.53    2.08
  -3  -6  10   44.44    2.09
  -3  -6  10   43.99    2.08
   3  -6 -10   44.33    2.09
  -3  -6  10   45.29    2.08
  -3  -6  10   38.52    2.10
   3  -6 -10   44.76    2.11
   3  -6 -10   39.64    2.11
   4   6 -10    0.40    0.09
  -4  -6 -10    0.35    0.10
  -4  -6 -10    0.44    0.15
  -4  -6 -10    0.50    0.10
   4  -6  10    0.39    0.09
  -4  -6 -10    0.50    0.13
   4  -6  10    0.53    0.08
   4  -6  10    0.42    0.11
  -4  -6  10    0.43    0.09
   4  -6 -10    0.59    0.14
   4   6  10    0.48    0.11
   4  -6 -10    0.31    0.07
  -4  -6  10    0.53    0.08
   4  -6 -10    0.56    0.15
   5  -6  10    0.80    0.09
   5   6 -10    0.67    0.08
   5  -6  10    0.77    0.12
  -5  -6 -10    0.97    0.09
  -5  -6 -10    0.82    0.10
   5  -6  10    0.74    0.09
  -5  -6  10    0.65    0.08
   5  -6 -10    0.68    0.13
  -5  -6  10    0.67    0.10
   5  -6 -10    0.80    0.09
   5   6  10    0.81    0.10
   6   6 -10    0.29    0.06
   6   6 -10    0.25    0.07
  -6  -6 -10    0.26    0.06
  -6  -6 -10    0.36    0.07
   6  -6  10    0.22    0.05
  -6  -6  10    0.29    0.09
   6   6  10    0.22    0.07
  -6  -6  10    0.26    0.06
   6  -6 -10    0.32    0.06
   6  -6 -10    0.42    0.13
   6   6  10    0.38    0.07
   0  -7 -10    0.11    0.08
   0  -7  10    0.15    0.06
   0  -7 -10    0.07    0.07
   0  -7 -10    0.03    0.08
   0  -7 -10    0.14    0.08
   0  -7  10    0.04    0.05
   0  -7  10    0.04    0.06
   0  -7 -10   -0.07    0.06
   0  -7  10    0.00    0.04
   0  -7  10   -0.02    0.04
  -1  -7 -10   11.69    0.60
   1  -7  10   11.35    0.58
  -1  -7 -10   11.54    0.59
  -1  -7 -10   11.06    0.59
   1  -7  10   11.38    0.58
  -1  -7 -10   10.82    0.60
   1  -7  10   11.28    0.60
  -1  -7 -10   11.36    0.59
   1  -7  10   11.62    0.57
   1  -7  10   10.85    0.57
  -1  -7  10   11.28    0.57
  -1  -7  10   10.80    0.59
  -1  -7  10   11.82    0.57
   1  -7 -10   11.53    0.60
   1  -7 -10   10.76    0.60
   1  -7 -10   11.07    0.59
  -1  -7  10   11.58    0.57
  -1  -7  10   10.52    0.58
   1  -7 -10   11.98    0.59
  -2  -7 -10    0.17    0.08
  -2  -7 -10    0.21    0.07
   2  -7  10    0.29    0.07
   2  -7  10    0.30    0.10
  -2  -7 -10    0.35    0.09
   2  -7  10    0.39    0.09
  -2  -7 -10    0.24    0.07
  -2  -7  10    0.28    0.07
  -2  -7  10    0.36    0.07
   2  -7 -10    0.15    0.08
   2  -7 -10    0.14    0.08
  -2  -7  10    0.15    0.06
   2  -7 -10    0.19    0.09
   2  -7 -10    0.17    0.07
  -2  -7  10    0.13    0.06
  -2  -7  10    0.28    0.08
  -3  -7 -10   15.88    0.82
  -3  -7 -10   15.78    0.83
   3   7 -10   17.65    0.81
  -3  -7 -10   16.74    0.82
  -3  -7 -10   16.93    0.82
   3  -7  10   15.48    0.80
   3  -7  10   15.31    0.80
   3  -7  10   14.58    0.83
   3  -7  10   17.15    0.81
  -3  -7  10   16.96    0.80
   3  -7 -10   17.00    0.82
   3   7  10   16.16    0.82
  -3  -7  10   16.72    0.80
  -3  -7  10   14.68    0.82
   3  -7 -10   17.22    0.82
  -3  -7  10   15.37    0.81
   3  -7 -10   14.90    0.83
  -4  -7 -10   23.39    1.10
   4   7 -10   23.45    1.10
   4  -7  10   23.36    1.11
  -4  -7 -10   21.91    1.11
   4  -7  10   22.63    1.09
  -4  -7 -10   23.60    1.11
  -4  -7 -10   20.44    1.10
   4  -7 -10   23.03    1.10
   4  -7 -10   21.73    1.12
  -4  -7  10   21.34    1.12
  -4  -7  10   21.66    1.09
  -4  -7  10   20.86    1.10
   4   7  10   23.42    1.11
  -5  -7 -10   41.09    1.94
   5   7 -10   40.58    1.94
   5   7 -10   40.64    1.94
  -5  -7 -10   41.76    1.94
   5  -7  10   38.00    1.94
   5  -7 -10   38.23    1.94
   5   7  10   39.25    1.94
   5  -7 -10   42.40    1.94
  -5  -7  10   39.03    1.95
  -5  -7  10   39.35    1.94
   6   7 -10    0.67    0.07
  -6  -7 -10    0.71    0.07
   6   7  10    0.78    0.07
  -6  -7  10    0.80    0.06
   0  -8  10    7.57    0.39
   0  -8 -10    8.46    0.42
   0  -8  10    7.60    0.39
   0  -8  10    7.63    0.40
   0  -8 -10    7.29    0.42
   0  -8 -10    6.63    0.40
   0  -8  10    7.68    0.39
   0  -8 -10    7.65    0.41
   0  -8  10    7.23    0.41
  -1  -8 -10  103.17    4.63
   1  -8  10   90.78    4.61
  -1  -8 -10   86.99    4.61
   1  -8  10  100.28    4.62
   1  -8  10   92.56    4.63
   1  -8  10   98.42    4.60
  -1  -8 -10  100.51    4.63
  -1  -8 -10   95.39    4.63
   1  -8 -10  104.12    4.63
   1  -8 -10   98.83    4.62
   1  -8 -10   91.72    4.63
  -1  -8  10   98.42    4.61
  -1  -8  10   96.97    4.61
  -1  -8  10   94.46    4.60
   1  -8 -10   82.94    4.61
  -1  -8  10   96.90    4.62
  -2  -8 -10    1.32    0.11
   2  -8  10    1.28    0.14
   2  -8  10    0.94    0.09
  -2  -8 -10    1.37    0.12
   2  -8  10    1.24    0.10
   2  -8  10    1.12    0.09
  -2  -8 -10    0.91    0.11
   2  -8 -10    1.51    0.14
   2  -8 -10    0.80    0.13
   2  -8 -10    1.07    0.12
  -2  -8  10    1.11    0.10
  -2  -8  10    1.19    0.12
  -2  -8  10    1.22    0.09
  -2  -8  10    1.13    0.09
   2  -8 -10    1.10    0.12
   3  -8  10    4.38    0.28
  -3  -8 -10    3.98    0.25
  -3  -8 -10    4.69    0.25
   3  -8  10    4.59    0.24
   3  -8  10    4.61    0.25
  -3  -8 -10    4.38    0.25
   3  -8  10    4.15    0.23
  -3  -8  10    4.08    0.24
   3  -8 -10    3.91    0.25
   3   8  10    4.49    0.26
  -3  -8  10    4.58    0.23
  -3  -8  10    4.36    0.23
   3  -8 -10    4.41    0.26
  -3  -8  10    4.62    0.26
   3  -8 -10    4.84    0.26
   4  -8  10    3.48    0.18
   4  -8  10    3.36    0.19
   4   8 -10    3.41    0.19
  -4  -8 -10    3.24    0.19
  -4  -8 -10    3.05    0.19
  -4  -8 -10    3.06    0.19
   4  -8 -10    3.07    0.21
   4  -8 -10    3.45    0.23
  -4  -8  10    3.53    0.21
   4   8  10    3.14    0.20
  -4  -8  10    3.11    0.18
   5  -8  10    0.47    0.08
   5   8 -10    0.63    0.06
  -5  -8 -10    0.70    0.06
  -5  -8  10    0.67    0.06
   5   8  10    0.65    0.06
   0  -9  10    0.00    0.02
   0  -9 -10    0.01    0.05
   0  -9 -10   -0.02    0.06
   0  -9 -10    0.00    0.04
   0  -9  10    0.03    0.03
   0  -9  10    0.06    0.04
   0  -9 -10    0.03    0.05
   0  -9  10   -0.02    0.09
  -1  -9 -10    4.75    0.28
   1  -9  10    4.87    0.27
  -1  -9 -10    5.04    0.28
   1  -9  10    5.09    0.26
   1  -9  10    5.41    0.27
  -1  -9 -10    4.83    0.27
   1  -9  10    5.27    0.31
  -1  -9 -10    5.19    0.28
   1  -9 -10    5.19    0.28
  -1  -9  10    5.23    0.27
  -1  -9  10    5.22    0.30
   1  -9 -10    4.99    0.29
  -1  -9  10    5.15    0.26
  -1  -9  10    5.10    0.27
   1  -9 -10    5.38    0.28
   2  -9  10    0.33    0.05
   2  -9  10    0.36    0.05
  -2  -9 -10    0.34    0.07
  -2  -9 -10    0.30    0.06
  -2  -9 -10    0.28    0.06
   2  -9  10    0.35    0.06
   2  -9 -10    0.22    0.07
  -2  -9  10    0.28    0.04
  -2  -9  10    0.35    0.05
  -2  -9  10    0.29    0.11
   2  -9 -10    0.26    0.08
   2  -9 -10    0.27    0.08
  -2  -9  10    0.41    0.05
  -3  -9 -10    8.64    0.47
   3  -9  10    9.84    0.46
  -3  -9 -10    9.01    0.46
   3  -9  10    9.49    0.47
  -3  -9  10    9.20    0.46
  -3  -9  10    9.62    0.47
  -3  -9  10    9.43    0.46
   0   0 -11    0.00    0.02
   1   0  11    0.03    0.03
   1   0 -11    0.00    0.03
   2   0 -11    0.00    0.03
   2   0  11    0.06    0.04
   3   0  11    0.01    0.04
   3   0 -11    0.04    0.05
   4   0 -11    0.02    0.08
   4   0 -11    0.00    0.06
   4   0  11   -0.06    0.09
   4   0 -11   -0.01    0.06
   4   0  11    0.06    0.07
  -4   0  11    0.00    0.05
   4   0 -11   -0.05    0.08
   5   0 -11   -0.07    0.05
   5   0  11   -0.04    0.08
  -5   0  11   -0.03    0.06
   5   0  11    0.05    0.07
   5   0 -11   -0.11    0.09
   5   0 -11    0.12    0.06
  -6   0 -11    0.10    0.09
  -6   0 -11    0.02    0.07
   6   0 -11    0.05    0.05
   6   0 -11   -0.03    0.04
   6   0  11   -0.02    0.06
   7   0 -11    0.04    0.04
   7   0  11   -0.06    0.05
  -7   0 -11   -0.02    0.06
   7   0 -11   -0.06    0.04
  -8   0 -11   -0.01    0.03
  -8   0 -11    0.08    0.08
   8   0 -11   -0.05    0.03
   8   0 -11   -0.04    0.04
   8   0  11    0.04    0.04
   0  -1 -11    0.04    0.03
   0   1 -11    0.05    0.02
   1  -1  11   20.57    1.04
   1   1 -11   20.28    1.05
   1  -1  11   21.25    1.05
   1  -1 -11   21.61    1.05
  -1   1 -11   23.72    1.04
   2   1 -11    4.52    0.26
   2  -1  11    5.35    0.26
   2   1  11    4.92    0.25
  -2  -1  11    4.51    0.26
   2  -1 -11    4.96    0.26
   3  -1  11   19.30    0.92
   3   1 -11   17.92    0.93
  -3  -1  11   18.64    0.91
   3  -1 -11   18.58    0.93
   4  -1  11    6.74    0.38
   4   1 -11    6.80    0.38
   4   1 -11    7.01    0.38
   4  -1  11    7.46    0.39
   4   1 -11    6.80    0.40
   4  -1  11    7.30    0.38
  -4  -1 -11    7.27    0.38
  -4  -1  11    7.51    0.37
   4  -1 -11    7.35    0.40
   4  -1 -11    7.01    0.38
   4  -1 -11    7.50    0.39
   4   1  11    6.84    0.39
   4   1  11    7.24    0.41
   4  -1 -11    6.23    0.40
   5  -1  11   21.67    1.08
   5   1 -11   21.12    1.08
   5   1 -11   23.41    1.07
  -5  -1 -11   21.80    1.08
   5  -1  11   19.29    1.09
  -5  -1 -11   22.79    1.09
   5   1 -11   21.36    1.07
  -5  -1  11   21.73    1.07
   5  -1 -11   22.24    1.07
   5  -1 -11   21.06    1.08
   5   1  11   21.37    1.09
   6   1 -11    3.41    0.20
   6  -1  11    3.35    0.21
  -6  -1 -11    3.67    0.23
  -6  -1 -11    3.25    0.22
   6  -1  11    3.17    0.23
   6   1 -11    3.37    0.22
   6  -1 -11    3.41    0.20
   6   1  11    3.00    0.23
  -6  -1  11    3.38    0.21
   6  -1 -11    3.36    0.21
  -6   1 -11    3.14    0.22
  -6   1 -11    3.36    0.23
   7   1 -11    7.65    0.39
  -7  -1 -11    7.92    0.41
   7   1 -11    6.52    0.38
  -7  -1 -11    7.06    0.41
   7  -1  11    7.53    0.40
   7  -1 -11    7.62    0.39
   7   1  11    6.61    0.40
  -7   1 -11    7.19    0.41
   7  -1 -11    8.27    0.40
  -8  -1 -11    5.44    0.29
   8  -1  11    5.93    0.29
   8   1 -11    5.52    0.29
   8   1 -11    5.34    0.28
   8  -1 -11    5.80    0.29
   8  -1 -11    5.29    0.28
   8   1  11    5.32    0.29
  -8   1 -11    5.19    0.32
   0  -2  11   14.50    0.70
   0   2 -11   14.69    0.69
   0  -2 -11   13.34    0.71
   1   2 -11  127.58    6.03
   1  -2  11  126.11    6.03
  -1  -2  11  120.76    6.03
   1  -2 -11  122.58    6.04
  -1   2 -11  130.80    6.02
   2  -2  11   16.36    0.79
  -2  -2 -11   15.19    0.78
   2   2 -11   15.45    0.79
   2  -2 -11   15.99    0.80
   2   2  11   15.86    0.79
  -2  -2  11   16.19    0.78
  -3  -2 -11    0.12    0.06
   3   2 -11    0.06    0.05
   3  -2  11    0.06    0.05
   3  -2 -11    0.03    0.07
   3   2  11    0.15    0.07
  -3  -2  11    0.06    0.04
   4   2 -11   20.91    1.08
   4   2 -11   20.01    1.06
   4  -2  11   22.43    1.07
   4  -2  11   22.40    1.07
  -4  -2 -11   22.89    1.07
  -4  -2 -11   21.22    1.07
   4   2 -11   20.96    1.06
   4  -2  11   21.25    1.06
   4  -2 -11   23.71    1.10
   4   2  11   19.92    1.08
   4  -2 -11   21.63    1.07
   4  -2 -11   21.22    1.06
  -4  -2  11   23.79    1.06
   4  -2 -11   18.15    1.08
   5   2 -11   13.43    0.65
   5  -2  11   12.73    0.66
  -5  -2 -11   13.40    0.67
   5   2 -11   12.92    0.66
   5  -2  11   11.11    0.68
  -5  -2 -11   13.92    0.67
   5   2 -11   11.78    0.65
   5  -2 -11   13.28    0.66
  -5  -2  11   13.85    0.66
   5   2  11   12.54    0.68
   5  -2 -11   13.01    0.66
  -6  -2 -11   10.53    0.54
   6   2 -11   10.38    0.52
   6   2 -11   10.15    0.54
   6  -2  11   10.46    0.54
  -6  -2 -11    9.88    0.54
   6  -2  11   10.22    0.53
   6  -2 -11   10.53    0.53
   6   2  11    9.93    0.55
  -6  -2  11    9.94    0.53
   6  -2 -11    9.97    0.53
   7   2 -11    2.43    0.15
  -7  -2 -11    2.35    0.18
  -7  -2 -11    2.27    0.16
  -7  -2 -11    2.66    0.19
   7  -2  11    2.49    0.16
   7   2 -11    2.31    0.16
   7  -2 -11    2.59    0.16
   7  -2 -11    2.48    0.15
  -7  -2  11    2.50    0.19
   7   2  11    2.05    0.16
  -7   2 -11    2.47    0.18
  -8  -2 -11    0.19    0.05
   8   2 -11    0.16    0.05
   8  -2 -11    0.10    0.03
   8  -2 -11    0.33    0.08
   8   2  11    0.15    0.05
   0   3 -11    0.03    0.03
   0  -3  11    0.09    0.04
   1  -3  11    0.49    0.06
   1   3 -11    0.33    0.06
  -1   3 -11    0.39    0.05
   1  -3 -11    0.34    0.09
  -1  -3  11    0.36    0.06
   2   3 -11    0.04    0.04
   2  -3  11    0.17    0.05
  -2  -3  11    0.10    0.04
   2   3  11    0.13    0.07
   2  -3 -11    0.02    0.06
  -3  -3 -11   18.17    0.82
   3  -3  11   15.93    0.82
   3   3 -11   17.88    0.83
   3  -3  11   17.15    0.83
   3   3 -11   14.51    0.82
  -3  -3 -11   16.20    0.83
  -3  -3  11   17.83    0.82
   3  -3 -11   15.51    0.84
   3  -3 -11   15.05    0.85
   3  -3 -11   16.51    0.83
   3   3  11   15.60    0.83
   3  -3 -11   16.22    0.82
   4   3 -11   30.05    1.49
  -4  -3 -11   30.70    1.50
  -4  -3 -11   33.23    1.50
   4   3 -11   28.32    1.51
   4  -3  11   30.30    1.49
   4  -3  11   31.50    1.50
   4  -3  11   32.24    1.51
  -4  -3 -11   29.70    1.50
   4  -3 -11   31.26    1.50
  -4  -3  11   29.37    1.49
  -4  -3  11   33.69    1.50
   4  -3 -11   30.76    1.50
   4   3  11   29.75    1.51
   4  -3 -11   29.72    1.51
   4  -3 -11   26.46    1.54
  -5  -3 -11   45.26    2.19
   5  -3  11   41.91    2.20
   5   3 -11   44.43    2.19
   5  -3  11   45.41    2.18
   5   3 -11   45.52    2.18
  -5  -3 -11   48.27    2.20
  -5  -3 -11   44.93    2.20
   5  -3  11   46.14    2.19
  -5  -3  11   44.32    2.19
   5   3  11   44.71    2.21
  -5  -3  11   43.24    2.18
   5  -3 -11   44.41    2.19
   5  -3 -11   46.39    2.20
  -6  -3 -11   21.91    1.06
   6   3 -11   21.03    1.06
   6  -3  11   21.23    1.06
  -6  -3 -11   20.43    1.07
  -6  -3 -11   23.43    1.07
   6   3 -11   22.20    1.05
   6  -3 -11   22.64    1.07
  -6  -3  11   20.40    1.05
   6   3  11   20.34    1.07
  -6  -3  11   19.74    1.06
   6  -3 -11   21.24    1.06
  -7  -3 -11    1.10    0.13
   7  -3  11    1.09    0.10
  -7  -3 -11    1.09    0.09
   7   3 -11    1.05    0.10
  -7  -3 -11    0.97    0.13
   7  -3 -11    0.97    0.09
   7   3  11    0.92    0.10
   7  -3 -11    1.19    0.11
  -7  -3  11    0.96    0.13
  -7   3 -11    1.11    0.13
  -8  -3 -11   12.64    0.62
   8   3 -11   13.02    0.62
   8  -3 -11   12.78    0.62
   8   3  11   11.96    0.62
   0   4 -11  273.40   13.23
   0  -4  11  278.73   13.26
   1   4 -11   10.45    0.55
   1  -4  11   11.51    0.56
   1   4  11   11.00    0.58
  -1  -4  11   10.67    0.56
   2  -4  11   10.30    0.53
  -2  -4 -11   10.16    0.55
   2  -4  11   10.13    0.53
  -2  -4 -11    9.74    0.55
   2  -4  11   10.73    0.54
   2  -4  11   11.41    0.54
  -2  -4 -11    9.86    0.57
   2   4 -11   10.76    0.54
  -2  -4 -11   10.62    0.55
   2   4  11   10.20    0.56
   2  -4 -11   10.31    0.54
  -2  -4  11   10.80    0.54
  -2  -4  11   10.47    0.54
   2  -4 -11   10.25    0.55
  -2  -4  11   10.51    0.53
   2  -4 -11   11.11    0.57
  -2  -4  11   10.11    0.54
   3  -4  11   19.90    0.99
   3  -4  11   19.61    0.98
   3   4 -11   19.72    0.99
  -3  -4 -11   19.54    1.00
  -3  -4 -11   18.90    1.01
   3   4 -11   20.91    1.01
  -3  -4 -11   21.76    1.01
  -3  -4 -11   19.53    1.00
   3  -4  11   21.99    1.01
   3   4  11   18.58    1.02
   3  -4 -11   19.80    1.00
  -3  -4  11   20.75    0.99
  -3  -4  11   19.96    0.99
  -3  -4  11   19.72    0.98
   3  -4 -11   21.19    1.02
   3  -4 -11   17.67    1.04
   3  -4 -11   19.52    1.00
  -4  -4 -11    4.14    0.24
   4  -4  11    4.45    0.25
  -4  -4 -11    3.19    0.28
   4   4 -11    3.19    0.23
  -4  -4 -11    4.27    0.25
   4  -4  11    3.56    0.22
  -4  -4 -11    3.76    0.25
   4  -4  11    3.88    0.23
   4   4  11    3.85    0.25
  -4  -4  11    3.84    0.23
   4  -4 -11    3.81    0.25
  -4  -4  11    3.94    0.23
   4  -4 -11    4.16    0.28
   4  -4 -11    3.85    0.24
   5   4 -11   15.82    0.78
  -5  -4 -11   15.88    0.78
  -5  -4 -11   15.31    0.78
   5  -4  11   14.34    0.79
  -5  -4 -11   15.50    0.79
   5  -4  11   15.67    0.78
   5  -4  11   15.42    0.77
   5   4 -11   15.40    0.77
  -5  -4  11   16.04    0.77
   5  -4 -11   14.91    0.78
  -5  -4  11   14.55    0.78
   5  -4 -11   16.69    0.79
   5   4  11   14.78    0.79
   6   4 -11    0.04    0.04
  -6  -4 -11   -0.06    0.05
  -6  -4 -11    0.03    0.06
   6   4 -11   -0.05    0.05
   6  -4  11    0.03    0.05
  -6  -4 -11    0.03    0.08
  -6  -4  11    0.01    0.05
   6   4  11    0.05    0.05
  -6  -4  11   -0.03    0.06
   6  -4 -11    0.04    0.04
   6   4  11    0.01    0.07
   6  -4 -11   -0.01    0.07
  -7  -4 -11    2.84    0.18
  -7  -4 -11    2.85    0.16
   7   4 -11    2.61    0.16
   7  -4  11    2.68    0.16
   7  -4 -11    2.62    0.16
  -7   4 -11    2.55    0.19
   7  -4 -11    2.84    0.18
   7   4  11    2.43    0.17
  -7  -4  11    2.57    0.20
   0  -5 -11   -0.01    0.10
   0  -5  11    0.05    0.05
   0  -5  11    0.03    0.06
   0  -5  11    0.00    0.05
   0   5 -11    0.01    0.08
   0  -5 -11   -0.07    0.07
   0  -5  11   -0.05    0.04
   0  -5  11    0.01    0.06
   0  -5 -11   -0.08    0.07
   0  -5 -11   -0.09    0.08
   0   5  11   -0.05    0.10
   0  -5 -11    0.15    0.09
  -1  -5 -11   20.29    0.99
   1  -5  11   19.81    0.97
   1  -5  11   20.10    0.97
  -1  -5 -11   19.24    1.00
  -1  -5 -11   18.06    1.00
   1   5 -11   18.83    0.98
  -1  -5 -11   19.73    0.99
   1  -5  11   22.15    0.99
  -1  -5 -11   19.84    0.99
   1  -5  11   19.42    0.98
  -1  -5  11   19.62    0.97
   1  -5 -11   17.68    1.00
  -1  -5  11   18.78    0.97
   1  -5 -11   20.77    1.00
   1  -5 -11   19.94    0.99
  -1  -5  11   20.49    0.99
   1  -5 -11   20.59    0.98
  -1  -5  11   19.17    0.97
  -1  -5  11   19.84    0.98
   1   5  11   20.02    1.03
  -2  -5 -11    5.51    0.32
   2  -5  11    5.20    0.29
   2  -5  11    5.59    0.29
  -2  -5 -11    5.07    0.31
   2   5 -11    4.98    0.32
   2  -5  11    5.57    0.30
   2  -5  11    5.98    0.31
  -2  -5 -11    4.77    0.33
  -2  -5 -11    5.76    0.34
  -2  -5 -11    5.00    0.32
  -2  -5  11    5.61    0.31
   2  -5 -11    5.44    0.30
   2   5  11    5.31    0.36
   2  -5 -11    5.12    0.33
   2  -5 -11    5.12    0.33
   2  -5 -11    5.07    0.32
  -2  -5  11    5.40    0.30
  -2  -5  11    4.95    0.29
  -2  -5  11    5.55    0.29
  -2  -5  11    5.44    0.30
  -3  -5 -11   29.15    1.37
   3  -5  11   25.67    1.34
  -3  -5 -11   28.25    1.36
  -3  -5 -11   26.90    1.37
   3  -5  11   26.06    1.34
   3   5 -11   27.32    1.35
  -3  -5 -11   27.05    1.35
   3  -5  11   28.51    1.35
   3  -5  11   30.87    1.37
  -3  -5  11   27.04    1.35
   3  -5 -11   26.87    1.37
  -3  -5  11   25.09    1.35
  -3  -5  11   28.10    1.36
   3  -5 -11   27.15    1.35
   3  -5 -11   27.02    1.37
  -3  -5  11   28.61    1.34
   4  -5  11   27.61    1.42
  -4  -5 -11   30.15    1.40
   4  -5  11   29.98    1.41
  -4  -5 -11   29.07    1.41
   4  -5  11   27.78    1.39
  -4  -5 -11   28.54    1.41
   4   5 -11   31.03    1.40
  -4  -5 -11   26.96    1.42
  -4  -5  11   28.63    1.40
   4  -5 -11   29.18    1.42
  -4  -5  11   26.59    1.41
   4  -5 -11   27.83    1.40
   4  -5 -11   28.37    1.42
   4   5  11   27.49    1.42
   5   5 -11    0.10    0.05
  -5  -5 -11    0.14    0.06
   5  -5  11    0.09    0.06
   5  -5  11    0.03    0.06
   5  -5  11    0.31    0.09
  -5  -5 -11    0.06    0.10
  -5  -5 -11    0.09    0.06
   5   5 -11    0.16    0.05
  -5  -5  11    0.27    0.07
  -5  -5  11    0.14    0.07
   5   5  11    0.09    0.06
   5  -5 -11    0.03    0.07
   5  -5 -11    0.10    0.05
   6   5 -11   16.51    0.85
   6  -5  11   16.80    0.85
   6   5 -11   17.23    0.84
  -6  -5 -11   18.31    0.85
  -6  -5 -11   17.14    0.84
  -6  -5  11   16.90    0.86
   6   5  11   17.46    0.85
   6  -5 -11   16.80    0.85
   6  -5 -11   16.94    0.86
  -6  -5  11   17.31    0.84
   6   5  11   16.40    0.86
  -7  -5 -11    8.93    0.42
   7   5 -11    8.36    0.43
   7  -5 -11    8.94    0.42
   7   5  11    7.61    0.43
   0  -6 -11    4.04    0.25
   0  -6  11    3.31    0.20
   0  -6  11    3.84    0.21
   0  -6  11    3.34    0.22
   0  -6 -11    3.02    0.23
   0  -6 -11    3.11    0.24
   0  -6  11    4.02    0.21
   0  -6 -11    3.41    0.25
  -1  -6 -11    8.53    0.46
  -1  -6 -11    7.72    0.47
  -1  -6 -11    8.17    0.46
  -1  -6 -11    8.84    0.47
   1  -6  11    8.62    0.45
   1  -6  11    8.52    0.43
   1  -6  11    8.23    0.44
  -1  -6 -11    8.25    0.46
   1  -6  11    8.56    0.43
   1  -6  11    8.00    0.44
  -1  -6  11    8.33    0.43
   1  -6 -11    9.08    0.47
  -1  -6  11    7.95    0.43
  -1  -6  11    8.14    0.44
   1  -6 -11    8.97    0.45
   1  -6 -11    7.36    0.46
   1  -6 -11    8.90    0.46
  -1  -6  11    8.40    0.45
  -1  -6  11    8.37    0.44
  -2  -6 -11    7.44    0.41
   2  -6  11    7.65    0.39
   2  -6  11    7.09    0.38
  -2  -6 -11    7.27    0.41
   2  -6  11    7.41    0.41
   2  -6  11    7.60    0.38
  -2  -6 -11    7.02    0.42
  -2  -6 -11    7.58    0.42
  -2  -6  11    6.60    0.40
  -2  -6  11    7.23    0.39
  -2  -6  11    7.30    0.38
   2  -6 -11    7.97    0.42
   2  -6 -11    6.28    0.41
  -2  -6  11    7.38    0.38
   2  -6 -11    7.11    0.41
   2  -6 -11    7.90    0.40
  -2  -6  11    7.36    0.39
   3   6 -11    0.17    0.07
  -3  -6 -11    0.39    0.10
  -3  -6 -11    0.10    0.10
  -3  -6 -11    0.11    0.07
   3  -6  11    0.35    0.08
  -3  -6 -11    0.25    0.09
   3  -6  11    0.14    0.06
   3  -6  11    0.15    0.05
   3  -6  11    0.21    0.08
  -3  -6 -11    0.11    0.10
  -3  -6  11    0.24    0.07
   3  -6 -11    0.20    0.08
   3  -6 -11    0.15    0.06
  -3  -6  11    0.17    0.05
  -3  -6  11    0.22    0.07
  -3  -6  11    0.28    0.08
   3  -6 -11    0.39    0.14
   4  -6  11   13.94    0.79
   4   6 -11   16.68    0.78
   4  -6  11   16.09    0.78
  -4  -6 -11   15.31    0.79
  -4  -6 -11   16.03    0.77
  -4  -6 -11   16.73    0.79
   4  -6  11   15.32    0.77
  -4  -6  11   13.63    0.78
  -4  -6  11   15.68    0.77
   4   6  11   15.07    0.79
   4  -6 -11   16.42    0.79
   4  -6 -11   15.25    0.77
   4  -6 -11   14.30    0.79
   5   6 -11    0.96    0.09
  -5  -6 -11    1.20    0.11
  -5  -6 -11    1.02    0.10
   5  -6  11    1.21    0.10
   5   6 -11    1.11    0.10
   5  -6  11    0.83    0.13
   5  -6  11    1.23    0.10
   5   6  11    1.04    0.11
   5  -6 -11    1.11    0.10
  -5  -6  11    1.07    0.09
   5  -6 -11    1.06    0.13
  -5  -6  11    0.93    0.11
   6  -6  11    0.18    0.06
  -6  -6 -11    0.23    0.06
   6   6 -11    0.17    0.05
  -6  -6 -11    0.25    0.07
   6   6 -11    0.27    0.06
   6   6  11    0.15    0.04
  -6  -6  11    0.36    0.11
   6   6  11    0.30    0.07
   6  -6 -11    0.25    0.08
   6  -6 -11    0.19    0.06
  -6  -6  11    0.19    0.05
   0  -7  11    0.01    0.05
   0  -7  11    0.01    0.03
   0  -7 -11   -0.01    0.06
   0  -7 -11    0.02    0.08
   0  -7 -11    0.01    0.07
   0  -7  11    0.05    0.06
   0  -7  11    0.03    0.05
   0  -7 -11   -0.09    0.08
   0  -7 -11   -0.03    0.07
  -1  -7 -11    1.29    0.13
  -1  -7 -11    1.08    0.13
  -1  -7 -11    0.91    0.15
  -1  -7 -11    0.91    0.14
   1  -7  11    1.16    0.12
   1  -7  11    1.12    0.09
   1  -7  11    0.94    0.13
  -1  -7 -11    1.04    0.14
   1  -7  11    0.98    0.09
   1  -7  11    0.94    0.10
   1  -7 -11    0.95    0.15
   1  -7 -11    1.02    0.13
  -1  -7  11    0.99    0.10
  -1  -7  11    1.25    0.12
   1  -7 -11    0.90    0.13
   1  -7 -11    1.04    0.14
  -1  -7  11    1.13    0.09
  -1  -7  11    1.06    0.10
  -1  -7  11    0.95    0.11
  -2  -7 -11    2.40    0.20
   2  -7  11    2.46    0.16
  -2  -7 -11    2.49    0.18
   2  -7  11    2.45    0.15
  -2  -7 -11    2.47    0.20
   2  -7  11    2.57    0.18
   2  -7  11    2.36    0.16
  -2  -7 -11    2.44    0.18
   2  -7 -11    2.37    0.19
  -2  -7  11    2.45    0.15
   2  -7 -11    2.63    0.19
   2  -7 -11    2.62    0.18
   2  -7 -11    2.21    0.20
  -2  -7  11    2.44    0.15
  -2  -7  11    2.35    0.16
  -2  -7  11    2.24    0.17
  -2  -7  11    2.36    0.16
   3  -7  11    0.56    0.09
   3   7 -11    0.62    0.11
  -3  -7 -11    0.44    0.10
   3  -7  11    0.67    0.09
  -3  -7 -11    0.89    0.12
  -3  -7 -11    0.52    0.12
   3  -7  11    0.59    0.11
   3  -7  11    0.63    0.08
  -3  -7 -11    0.41    0.10
   3  -7 -11    0.36    0.10
   3  -7 -11    0.69    0.13
  -3  -7  11    0.59    0.08
   3  -7 -11    0.87    0.11
  -3  -7  11    0.62    0.08
  -3  -7  11    0.61    0.10
   3   7  11    0.44    0.11
  -3  -7  11    0.55    0.07
  -4  -7 -11    5.15    0.29
  -4  -7 -11    4.89    0.29
  -4  -7 -11    4.82    0.29
   4   7 -11    5.61    0.28
   4  -7  11    4.87    0.30
   4  -7  11    5.30    0.28
   4  -7  11    5.15    0.27
   4   7  11    5.47    0.30
   4  -7 -11    4.62    0.30
  -4  -7  11    5.27    0.28
   4  -7 -11    5.35    0.31
  -4  -7  11    5.07    0.30
   4  -7 -11    5.42    0.28
  -5  -7 -11    0.55    0.08
   5   7 -11    0.58    0.06
   5   7 -11    0.64    0.07
  -5  -7 -11    0.48    0.08
   5  -7  11    0.52    0.07
   5  -7 -11    0.56    0.12
  -5  -7  11    0.64    0.07
   5   7  11    0.76    0.09
  -5  -7  11    0.54    0.10
   5  -7 -11    0.68    0.08
   6   7 -11    0.18    0.06
   6   7  11    0.27    0.09
  -6  -7  11    0.35    0.06
   0  -8  11    4.27    0.24
   0  -8  11    4.25    0.23
   0  -8 -11    4.31    0.26
   0  -8 -11    3.97    0.26
   0  -8 -11    3.90    0.26
   0  -8 -11    4.16    0.25
   0  -8 -11    3.91    0.24
   0  -8  11    4.10    0.25
   0  -8  11    4.44    0.23
   1  -8  11    0.79    0.11
  -1  -8 -11    0.97    0.12
   1  -8  11    0.88    0.09
   1  -8  11    0.76    0.08
  -1  -8 -11    0.76    0.10
  -1  -8 -11    0.55    0.10
  -1  -8 -11    0.82    0.13
   1  -8  11    0.81    0.08
   1  -8 -11    0.82    0.12
   1  -8 -11    0.90    0.13
   1  -8 -11    0.82    0.11
  -1  -8  11    0.82    0.08
  -1  -8  11    0.76    0.10
  -1  -8  11    0.87    0.09
   1  -8 -11    0.90    0.13
  -1  -8  11    0.69    0.07
   2  -8  11    0.74    0.12
   2  -8  11    0.91    0.08
  -2  -8 -11    0.70    0.10
   2  -8  11    0.88    0.07
  -2  -8 -11    0.72    0.09
  -2  -8 -11    0.61    0.09
   2  -8  11    0.78    0.07
  -2  -8 -11    0.58    0.11
  -2  -8  11    0.79    0.10
  -2  -8  11    0.73    0.08
   2  -8 -11    0.67    0.12
   2  -8 -11    0.71    0.11
  -2  -8  11    0.67    0.07
   2  -8 -11    0.62    0.12
   2  -8 -11    0.79    0.11
  -2  -8  11    0.70    0.07
  -3  -8 -11    2.21    0.16
   3  -8  11    2.65    0.15
   3  -8  11    2.47    0.14
   3  -8  11    2.54    0.19
  -3  -8 -11    2.59    0.16
  -3  -8 -11    2.23    0.16
   3  -8  11    2.44    0.14
   3  -8 -11    2.41    0.18
   3  -8 -11    2.57    0.18
   3  -8 -11    2.32    0.17
  -3  -8  11    2.27    0.15
  -3  -8  11    2.36    0.14
   3   8  11    2.33    0.17
  -3  -8  11    2.45    0.14
  -3  -8  11    2.55    0.17
  -4  -8 -11    0.22    0.06
   4  -8  11    0.26    0.06
  -4  -8 -11    0.31    0.06
   4  -8  11    0.30    0.06
   4   8  11    0.46    0.10
   4  -8 -11    0.26    0.09
  -4  -8  11    0.31    0.05
  -4  -8  11    0.27    0.10
   4  -8 -11    0.12    0.06
   0  -9  11    0.04    0.02
   0  -9  11    0.00    0.04
   0  -9 -11    0.02    0.05
   0  -9 -11    0.00    0.04
   0  -9 -11    0.00    0.05
   0  -9  11    0.13    0.08
   0  -9 -11    0.03    0.06
   0  -9  11   -0.03    0.03
  -1  -9 -11   12.55    0.66
  -1  -9 -11   12.35    0.66
   1  -9  11   13.09    0.65
   1  -9  11   14.64    0.66
   1  -9  11   12.99    0.65
  -1  -9 -11   12.77    0.66
  -1  -9 -11   13.55    0.65
   1  -9  11   13.27    0.68
   1  -9 -11   12.57    0.66
  -1  -9  11   13.87    0.67
   1  -9 -11   12.41    0.66
  -1  -9  11   13.24    0.65
  -1  -9  11   13.51    0.65
  -1  -9  11   13.35    0.65
   1  -9 -11   13.05    0.66
  -2  -9 -11    0.18    0.06
  -2  -9 -11    0.25    0.07
   2  -9  11    0.23    0.04
   2  -9  11    0.20    0.05
  -2  -9 -11    0.37    0.06
   2  -9  11    0.35    0.06
  -2  -9  11    0.17    0.04
   2  -9 -11    0.19    0.06
   2  -9 -11    0.29    0.09
  -2  -9  11    0.28    0.05
  -2  -9  11    0.20    0.05
   2  -9 -11    0.26    0.08
  -3  -9 -11    0.15    0.05
   3  -9  11    0.17    0.05
   3  -9  11    0.11    0.03
  -3  -9 -11    0.19    0.06
  -3  -9 -11    0.19    0.06
  -3  -9  11    0.15    0.04
  -3  -9  11    0.10    0.03
  -3  -9  11    0.16    0.04
   0   0 -12  331.35   15.93
  -1   0 -12    0.96    0.07
   1   0  12    0.72    0.08
   1   0 -12    0.93    0.07
   2   0 -12   66.64    3.33
   2   0  12   71.44    3.33
   3   0  12    6.22    0.33
   3   0 -12    6.04    0.33
   4   0  12   50.76    2.33
   4   0 -12   46.98    2.33
   4   0 -12   49.62    2.34
   4   0  12   41.99    2.34
   4   0 -12   48.48    2.34
   4   0 -12   50.02    2.33
   5   0  12    3.24    0.25
   5   0 -12    3.18    0.23
   5   0 -12    3.32    0.22
   5   0  12    3.52    0.22
   5   0 -12    3.35    0.21
  -6   0 -12    0.04    0.06
   6   0 -12    0.02    0.04
   6   0  12   -0.05    0.06
   6   0 -12    0.12    0.05
  -6   0 -12    0.16    0.08
  -7   0 -12    2.50    0.19
   7   0 -12    2.95    0.17
   7   0 -12    2.56    0.16
   7   0  12    2.78    0.18
  -7   0 -12    2.87    0.21
   8   0  12    2.60    0.15
   8   0 -12    2.36    0.14
  -8   0 -12    2.35    0.14
   8   0 -12    2.54    0.15
   0  -1  12    0.02    0.04
   0  -1 -12    0.03    0.03
   1  -1  12    0.73    0.08
   1   1 -12    0.80    0.07
   1  -1  12    0.64    0.08
  -1  -1  12    0.57    0.09
  -1   1 -12    0.88    0.06
   1  -1 -12    0.80    0.07
   2   1 -12   93.47    4.61
   2  -1  12   99.14    4.60
   2  -1 -12   97.86    4.61
  -2  -1  12   94.82    4.60
   2   1  12   93.07    4.60
   3   1 -12    6.59    0.38
   3  -1 -12    6.79    0.38
  -3  -1  12    7.98    0.37
   4   1 -12   27.74    1.44
   4   1 -12   26.88    1.43
   4  -1  12   31.69    1.44
   4   1 -12   28.73    1.42
  -4  -1 -12   32.32    1.44
   4   1 -12   29.02    1.43
   4  -1  12   29.33    1.43
   4  -1 -12   29.74    1.43
   4   1  12   29.15    1.43
   4   1  12   28.23    1.45
   4  -1 -12   30.41    1.45
   4  -1 -12   27.56    1.43
   4  -1 -12   27.93    1.44
  -4  -1  12   29.57    1.42
   5  -1  12    0.42    0.10
   5   1 -12    0.44    0.10
   5  -1  12    0.50    0.17
   5   1 -12    0.44    0.11
  -5  -1 -12    0.47    0.13
  -5  -1 -12    0.66    0.10
   5   1 -12    0.35    0.11
   5  -1 -12    0.56    0.09
   5   1  12    0.66    0.13
   5  -1 -12    0.37    0.09
   5  -1 -12    0.62    0.13
  -6  -1 -12   46.12    2.13
   6   1 -12   43.87    2.13
   6  -1  12   46.77    2.13
  -6  -1 -12   43.53    2.14
   6   1 -12   45.56    2.12
   6  -1  12   43.51    2.13
   6  -1 -12   43.16    2.13
   6   1  12   39.83    2.14
   6  -1 -12   45.36    2.12
  -6   1 -12   41.18    2.12
  -6   1 -12   40.63    2.14
  -7  -1 -12    2.51    0.19
   7   1 -12    2.77    0.17
  -7  -1 -12    3.06    0.20
   7  -1  12    2.78    0.18
   7   1 -12    2.60    0.16
   7   1  12    2.38    0.18
   7  -1 -12    2.75    0.17
   7  -1 -12    2.29    0.16
  -7   1 -12    2.60    0.19
   8   1 -12    7.21    0.37
   8  -1  12    7.72    0.37
  -8  -1 -12    7.48    0.38
   8   1 -12    7.13    0.37
   8   1  12    7.46    0.38
   8  -1 -12    7.49    0.38
   8  -1 -12    7.15    0.37
   0  -2 -12   22.46    1.18
   0   2 -12   25.25    1.17
   0  -2  12   24.20    1.17
   1   2 -12   21.93    1.08
   1  -2  12   21.44    1.08
  -1   2 -12   22.99    1.06
  -1  -2  12   21.47    1.08
   1  -2 -12   22.33    1.09
   2   2 -12  137.89    6.60
   2  -2 -12  140.02    6.61
   2   2  12  135.89    6.61
  -2  -2  12  135.91    6.60
  -3  -2 -12    6.87    0.35
   3  -2  12    6.72    0.36
   3   2 -12    6.88    0.36
   3  -2 -12    5.61    0.36
   3  -2 -12    6.73    0.37
  -3  -2  12    6.64    0.35
   4   2 -12    6.78    0.37
   4  -2  12    6.74    0.36
   4  -2  12    6.98    0.36
  -4  -2 -12    6.60    0.38
  -4  -2 -12    7.18    0.37
   4  -2  12    7.01    0.37
   4   2 -12    6.80    0.39
   4   2 -12    6.51    0.36
   4  -2 -12    6.65    0.36
   4  -2 -12    6.54    0.37
   4  -2 -12    7.16    0.41
   4   2  12    6.38    0.38
   4  -2 -12    5.58    0.39
  -4  -2  12    7.23    0.36
   5  -2  12    7.24    0.39
  -5  -2 -12    7.56    0.41
  -5  -2 -12    7.75    0.40
   5   2 -12    7.41    0.39
   5   2 -12    7.34    0.40
  -5  -2  12    7.44    0.39
   5  -2 -12    5.96    0.44
   5  -2 -12    7.71    0.39
   5  -2 -12    7.15    0.39
   5   2  12    7.12    0.41
  -6  -2 -12   10.86    0.56
   6  -2  12   11.11    0.55
   6  -2  12   10.38    0.56
   6   2 -12   10.68    0.54
   6   2 -12    9.50    0.55
  -6  -2 -12   11.03    0.56
   6   2 -12   11.02    0.56
   6  -2 -12   11.36    0.55
  -6  -2  12   10.21    0.55
   6   2  12   10.03    0.57
   6  -2 -12   11.23    0.56
   7  -2  12    0.79    0.10
   7   2 -12    0.61    0.08
   7   2 -12    0.61    0.10
  -7  -2 -12    0.63    0.08
  -7  -2 -12    0.84    0.12
  -7  -2 -12    0.44    0.11
   7  -2 -12    0.69    0.08
   7  -2 -12    0.62    0.08
  -7   2 -12    0.65    0.11
   7   2  12    0.60    0.09
   8   2 -12    0.62    0.06
  -8  -2 -12    0.64    0.06
   8  -2 -12    0.77    0.08
   8   2  12    0.73    0.07
   8  -2 -12    0.52    0.06
   0  -3  12    0.08    0.04
   0   3 -12    0.13    0.05
   1  -3  12    6.88    0.35
   1   3 -12    6.89    0.35
  -1  -3  12    6.58    0.35
  -1   3 -12    7.25    0.34
   1  -3 -12    6.02    0.37
   2   3 -12    0.09    0.05
   2  -3  12    0.08    0.04
   2   3  12    0.18    0.08
   2  -3 -12    0.09    0.08
  -2  -3  12    0.18    0.06
   3   3 -12    2.48    0.17
   3   3 -12    2.23    0.18
  -3  -3 -12    2.35    0.23
   3  -3  12    2.60    0.16
  -3  -3 -12    2.15    0.19
  -3  -3 -12    2.19    0.17
   3  -3  12    2.26    0.16
   3  -3  12    2.16    0.15
   3   3  12    1.97    0.20
   3  -3 -12    2.44    0.22
   3  -3 -12    2.61    0.18
  -3  -3  12    2.37    0.15
   3  -3 -12    2.27    0.17
  -4  -3 -12    5.31    0.28
   4   3 -12    4.64    0.28
   4  -3  12    5.58    0.29
   4  -3  12    5.58    0.28
  -4  -3 -12    4.42    0.29
   4  -3  12    4.78    0.26
  -4  -3 -12    4.52    0.28
  -4  -3  12    4.14    0.28
   4  -3 -12    4.41    0.31
   4  -3 -12    4.96    0.38
   4  -3 -12    4.90    0.28
   4  -3 -12    4.73    0.28
  -4  -3  12    5.08    0.27
   4   3  12    4.14    0.29
   5   3 -12    2.86    0.18
   5  -3  12    2.81    0.18
  -5  -3 -12    3.12    0.19
   5   3 -12    2.56    0.18
  -5  -3 -12    3.00    0.20
  -5  -3 -12    3.13    0.21
   5  -3  12    2.81    0.18
   5  -3  12    2.52    0.19
   5  -3 -12    2.86    0.19
   5  -3 -12    2.85    0.19
  -5  -3  12    2.75    0.18
  -5  -3  12    2.48    0.18
   5   3  12    2.72    0.21
   6   3 -12   27.48    1.28
  -6  -3 -12   27.63    1.29
  -6  -3 -12   27.20    1.30
   6  -3  12   25.78    1.29
   6   3 -12   25.49    1.29
  -6  -3 -12   25.19    1.30
   6  -3 -12   27.36    1.30
  -6  -3  12   24.50    1.29
   6  -3 -12   26.34    1.29
   6   3  12   24.88    1.31
   7   3 -12    1.06    0.09
   7  -3  12    1.07    0.09
  -7  -3 -12    1.24    0.12
  -7  -3 -12    1.20    0.09
  -7  -3 -12    1.16    0.13
   7   3  12    0.92    0.10
   7  -3 -12    1.17    0.10
   7  -3 -12    1.07    0.09
   8   3 -12    2.86    0.16
  -8  -3 -12    3.15    0.16
   8  -3 -12    2.64    0.15
   8   3  12    2.86    0.16
   0  -4  12    4.07    0.24
   0  -4  12    4.71    0.25
   0  -4 -12    4.51    0.26
   0  -4 -12    3.73    0.27
   0   4 -12    4.56    0.24
   1  -4  12    2.10    0.14
   1   4 -12    2.11    0.14
  -1  -4 -12    2.00    0.19
  -1  -4 -12    2.21    0.17
   1  -4  12    1.81    0.14
   1  -4  12    2.15    0.14
  -1  -4 -12    1.67    0.21
   1  -4  12    2.00    0.16
   1   4  12    2.10    0.18
   1  -4 -12    1.89    0.16
   1  -4 -12    1.86    0.18
  -1  -4  12    2.27    0.16
  -1  -4  12    2.12    0.14
  -1  -4  12    2.18    0.14
   1  -4 -12    2.08    0.19
   2  -4  12    5.13    0.27
   2  -4  12    4.58    0.26
   2  -4  12    4.47    0.26
  -2  -4 -12    4.44    0.33
  -2  -4 -12    4.68    0.29
  -2  -4 -12    4.29    0.28
   2   4 -12    4.60    0.27
  -2  -4 -12    4.39    0.29
  -2  -4 -12    4.22    0.31
   2  -4  12    4.49    0.26
   2   4  12    4.35    0.30
  -2  -4  12    4.69    0.26
  -2  -4  12    4.81    0.26
   2  -4 -12    4.80    0.30
   2  -4 -12    4.74    0.27
   2  -4 -12    4.64    0.28
   2  -4 -12    4.04    0.31
  -2  -4  12    4.68    0.26
   3   4 -12    2.10    0.19
   3   4 -12    1.86    0.16
  -3  -4 -12    1.87    0.20
   3  -4  12    1.86    0.14
   3  -4  12    1.89    0.15
  -3  -4 -12    2.02    0.17
  -3  -4 -12    1.59    0.22
   3  -4  12    1.99    0.14
  -3  -4 -12    1.93    0.19
   3  -4 -12    2.16    0.21
   3  -4 -12    1.97    0.17
  -3  -4  12    1.83    0.14
  -3  -4  12    2.00    0.15
  -3  -4  12    2.12    0.16
   3  -4 -12    1.99    0.15
   3  -4 -12    1.85    0.26
  -4  -4 -12   13.84    0.76
   4  -4  12   14.54    0.73
  -4  -4 -12   15.40    0.74
   4  -4  12   14.44    0.75
   4   4 -12   14.78    0.74
  -4  -4 -12   14.37    0.75
   4  -4  12   14.98    0.74
  -4  -4 -12   15.32    0.77
   4  -4 -12   14.79    0.76
   4   4  12   13.95    0.75
  -4  -4  12   14.65    0.73
  -4  -4  12   13.83    0.74
   4  -4 -12   14.08    0.74
   4  -4 -12   15.05    0.75
  -5  -4 -12    4.01    0.24
  -5  -4 -12    3.78    0.24
   5  -4  12    3.80    0.22
   5   4 -12    3.77    0.22
   5  -4  12    4.00    0.23
   5  -4  12    3.80    0.25
  -5  -4 -12    4.20    0.25
   5   4 -12    4.22    0.24
   5  -4 -12    4.07    0.25
   5   4  12    3.72    0.25
  -5  -4  12    3.64    0.23
   5  -4 -12    3.94    0.24
  -5  -4  12    3.68    0.23
   6   4 -12   13.53    0.68
   6   4 -12   13.01    0.67
   6  -4  12   14.05    0.68
  -6  -4 -12   14.73    0.69
  -6  -4 -12   12.51    0.68
  -6  -4 -12   14.17    0.68
  -6  -4  12   12.87    0.68
   6  -4 -12   12.98    0.68
  -6  -4  12   13.19    0.67
   6  -4 -12   14.01    0.69
   6   4  12   12.69    0.69
  -7  -4 -12    0.20    0.06
   7   4 -12    0.12    0.04
   7  -4  12    0.12    0.04
  -7  -4 -12    0.19    0.05
   7   4  12    0.08    0.04
   7  -4 -12    0.19    0.06
  -7   4 -12    0.04    0.08
   7  -4 -12    0.14    0.05
   0  -5 -12    0.24    0.10
   0  -5  12   -0.04    0.05
   0   5  12    0.02    0.13
   0  -5 -12    0.10    0.08
   0  -5 -12    0.01    0.07
   0  -5  12   -0.05    0.06
   0  -5  12    0.01    0.04
   0  -5 -12    0.06    0.10
   0  -5 -12    0.04    0.08
   0  -5  12    0.00    0.06
  -1  -5 -12    4.89    0.28
  -1  -5 -12    3.77    0.30
   1   5 -12    4.53    0.28
  -1  -5 -12    4.99    0.29
   1  -5  12    5.02    0.27
   1  -5  12    4.38    0.26
  -1  -5 -12    4.26    0.29
  -1  -5 -12    4.80    0.30
   1  -5  12    4.62    0.25
   1  -5  12    4.48    0.26
   1  -5 -12    4.15    0.29
   1  -5 -12    4.90    0.30
   1  -5 -12    4.79    0.27
  -1  -5  12    4.59    0.26
   1  -5 -12    5.06    0.29
  -1  -5  12    4.68    0.25
  -1  -5  12    4.38    0.27
  -1  -5  12    4.52    0.26
   1   5  12    4.31    0.33
  -1  -5  12    4.65    0.27
  -2  -5 -12    0.38    0.11
  -2  -5 -12    0.25    0.08
  -2  -5 -12    0.22    0.08
  -2  -5 -12    0.04    0.07
   2  -5  12    0.18    0.05
  -2  -5 -12    0.36    0.11
   2  -5  12    0.21    0.08
   2   5 -12    0.27    0.11
   2  -5  12    0.18    0.06
   2  -5  12    0.32    0.08
  -2  -5  12    0.13    0.06
   2   5  12    0.12    0.17
   2  -5 -12    0.14    0.08
   2  -5 -12    0.08    0.09
   2  -5 -12    0.15    0.09
   2  -5 -12    0.20    0.06
  -2  -5  12    0.17    0.06
  -2  -5  12    0.11    0.06
  -2  -5  12    0.16    0.07
  -2  -5  12    0.17    0.05
   3  -5  12    8.53    0.47
   3  -5  12    8.84    0.47
  -3  -5 -12    8.74    0.51
  -3  -5 -12    9.19    0.49
  -3  -5 -12    8.64    0.50
   3  -5  12    9.26    0.49
  -3  -5 -12    9.00    0.49
   3  -5  12    9.48    0.47
  -3  -5  12    9.23    0.46
   3  -5 -12    8.99    0.49
  -3  -5  12    9.02    0.48
   3  -5 -12    9.68    0.51
   3  -5 -12    8.96    0.47
  -3  -5  12    9.12    0.47
   4  -5  12    2.20    0.15
  -4  -5 -12    2.19    0.17
   4  -5  12    2.07    0.14
  -4  -5 -12    2.37    0.21
   4   5 -12    2.05    0.15
   4  -5  12    1.97    0.16
  -4  -5 -12    2.09    0.16
  -4  -5 -12    1.90    0.20
   4  -5 -12    2.36    0.21
   4   5  12    2.20    0.17
   4  -5 -12    2.08    0.15
  -4  -5  12    2.24    0.15
   4  -5 -12    2.14    0.18
  -4  -5  12    1.94    0.16
   5   5 -12    3.67    0.21
  -5  -5 -12    3.42    0.20
   5   5 -12    3.30    0.20
   5  -5  12    3.51    0.21
  -5  -5 -12    3.37    0.22
   5  -5  12    3.09    0.22
   5  -5  12    3.40    0.20
  -5  -5  12    3.50    0.20
  -5  -5  12    3.02    0.21
   5   5  12    3.29    0.22
   5  -5 -12    3.62    0.23
   5  -5 -12    3.27    0.20
  -6  -5 -12   13.28    0.64
  -6  -5 -12   13.11    0.65
   6  -5  12   13.20    0.65
   6   5 -12   12.48    0.64
   6   5 -12   12.77    0.64
   6  -5 -12   13.13    0.65
   6  -5 -12   12.54    0.64
  -6  -5  12   12.83    0.64
   6   5  12   13.02    0.64
   6   5  12   11.87    0.65
  -6  -5  12   12.93    0.66
   7   5 -12    3.46    0.19
  -7  -5 -12    3.81    0.18
  -7  -5 -12    3.05    0.20
   7   5  12    3.35    0.19
   7  -5 -12    3.40    0.18
   0  -6 -12   39.37    2.18
   0  -6  12   42.77    2.16
   0  -6  12   42.85    2.15
   0  -6  12   45.98    2.17
   0  -6  12   45.25    2.15
   0  -6  12   43.40    2.15
   0  -6 -12   46.47    2.17
   0  -6 -12   46.64    2.18
   0  -6 -12   46.27    2.17
   1  -6  12    1.17    0.10
   1  -6  12    1.35    0.11
  -1  -6 -12    1.54    0.17
   1  -6  12    1.25    0.12
  -1  -6 -12    1.28    0.16
   1  -6  12    1.35    0.12
  -1  -6 -12    1.36    0.15
  -1  -6 -12    1.33    0.15
  -1  -6 -12    1.29    0.16
  -1  -6  12    1.37    0.12
   1  -6 -12    1.72    0.16
   1  -6 -12    1.12    0.16
  -1  -6  12    1.25    0.10
  -1  -6  12    1.19    0.12
  -1  -6  12    1.22    0.11
  -1  -6  12    1.54    0.13
   1  -6 -12    1.48    0.14
   1  -6 -12    1.34    0.16
  -2  -6 -12   22.58    1.20
  -2  -6 -12   23.79    1.21
   2  -6  12   24.99    1.18
  -2  -6 -12   21.29    1.21
   2  -6  12   23.38    1.19
   2  -6  12   24.67    1.21
   2  -6  12   24.20    1.19
  -2  -6 -12   25.02    1.21
   2  -6 -12   25.05    1.20
  -2  -6  12   23.69    1.21
   2  -6 -12   25.69    1.22
  -2  -6  12   24.68    1.18
   2  -6 -12   25.96    1.21
  -2  -6  12   24.85    1.19
   2  -6 -12   22.01    1.21
  -2  -6  12   24.23    1.18
  -3  -6 -12    0.05    0.10
   3   6 -12   -0.05    0.07
  -3  -6 -12    0.04    0.06
   3  -6  12    0.05    0.06
  -3  -6 -12   -0.02    0.08
   3  -6  12    0.07    0.05
  -3  -6 -12    0.22    0.08
   3  -6  12    0.00    0.05
   3  -6  12   -0.01    0.06
  -3  -6  12   -0.01    0.05
  -3  -6  12    0.10    0.06
  -3  -6  12    0.16    0.05
   3  -6 -12    0.04    0.08
  -3  -6  12   -0.02    0.06
   3  -6 -12   -0.06    0.08
   3  -6 -12   -0.01    0.05
  -4  -6 -12    2.81    0.20
   4  -6  12    2.87    0.17
   4  -6  12    2.89    0.18
  -4  -6 -12    3.07    0.18
   4  -6  12    2.72    0.20
  -4  -6 -12    3.18    0.21
   4   6 -12    2.99    0.19
   4  -6 -12    3.11    0.23
  -4  -6  12    2.92    0.18
   4  -6 -12    2.93    0.18
   4  -6 -12    2.83    0.21
   4   6  12    2.75    0.20
  -4  -6  12    2.67    0.20
   5   6 -12    0.97    0.09
   5  -6  12    0.80    0.12
   5   6 -12    0.87    0.08
  -5  -6 -12    0.95    0.10
   5  -6  12    0.98    0.09
   5  -6  12    0.97    0.09
  -5  -6 -12    0.76    0.09
   5   6  12    0.82    0.10
  -5  -6  12    0.91    0.09
  -5  -6  12    0.96    0.11
   5  -6 -12    0.97    0.12
   5  -6 -12    0.90    0.09
  -6  -6 -12    2.84    0.16
  -6  -6 -12    2.60    0.16
   6   6 -12    2.77    0.16
   6   6 -12    2.67    0.15
   6  -6  12    2.87    0.16
   6  -6 -12    2.79    0.19
   6   6  12    3.01    0.16
  -6  -6  12    2.83    0.16
   6  -6 -12    2.89    0.16
   6   6  12    2.42    0.16
   0  -7 -12   -0.08    0.08
   0  -7 -12    0.06    0.08
   0  -7 -12    0.08    0.07
   0  -7  12    0.03    0.04
   0  -7  12    0.02    0.06
   0  -7  12   -0.05    0.05
   0  -7  12    0.01    0.05
   0  -7  12    0.06    0.04
   0  -7 -12   -0.02    0.08
   0  -7 -12    0.02    0.07
  -1  -7 -12    0.03    0.07
   1  -7  12    0.07    0.06
   1  -7  12    0.03    0.04
  -1  -7 -12    0.05    0.08
  -1  -7 -12    0.08    0.06
   1  -7  12    0.00    0.05
   1  -7  12    0.02    0.04
  -1  -7 -12    0.03    0.07
  -1  -7 -12    0.00    0.08
   1  -7 -12    0.10    0.08
  -1  -7  12    0.04    0.04
  -1  -7  12    0.04    0.04
   1  -7 -12    0.16    0.06
  -1  -7  12    0.03    0.06
   1  -7 -12    0.02    0.08
  -1  -7  12    0.00    0.05
  -1  -7  12    0.00    0.05
   1  -7 -12    0.06    0.07
   2  -7  12   21.36    1.01
   2  -7  12   20.61    1.00
  -2  -7 -12   19.55    1.02
  -2  -7 -12   19.57    1.03
   2  -7  12   19.79    1.01
  -2  -7 -12   21.59    1.03
   2  -7  12   19.59    1.03
  -2  -7 -12   20.33    1.03
   2  -7 -12   17.87    1.03
  -2  -7  12   20.92    1.00
  -2  -7  12   17.92    1.02
   2  -7 -12   21.42    1.02
   2  -7 -12   22.33    1.03
  -2  -7  12   21.65    1.00
  -2  -7  12   19.85    1.01
   2  -7 -12   21.37    1.03
  -3  -7 -12   -0.04    0.06
   3  -7  12    0.00    0.05
  -3  -7 -12    0.13    0.08
  -3  -7 -12   -0.08    0.07
   3  -7  12   -0.07    0.06
  -3  -7 -12   -0.02    0.06
   3  -7  12    0.09    0.04
   3  -7  12   -0.03    0.05
  -3  -7  12    0.04    0.04
   3  -7 -12    0.00    0.08
  -3  -7  12    0.02    0.05
   3  -7 -12   -0.02    0.07
  -3  -7  12   -0.04    0.06
  -3  -7  12    0.05    0.05
   3  -7 -12   -0.02    0.05
   4  -7  12   10.68    0.53
   4   7 -12   11.10    0.54
  -4  -7 -12   10.07    0.55
  -4  -7 -12   10.86    0.55
   4  -7  12   11.01    0.56
   4  -7  12   11.17    0.54
   4  -7 -12   11.22    0.54
  -4  -7  12   10.57    0.56
   4   7  12    9.96    0.55
   4  -7 -12    9.53    0.55
  -4  -7  12   10.48    0.54
   4  -7 -12   11.32    0.56
   5   7 -12    0.35    0.07
  -5  -7 -12    0.32    0.07
   5   7 -12    0.39    0.05
   5  -7  12    0.41    0.06
   5  -7 -12    0.43    0.07
  -5  -7  12    0.33    0.10
   5   7  12    0.47    0.06
   5  -7 -12    0.22    0.08
  -5  -7  12    0.37    0.06
   5   7  12    0.38    0.07
   0  -8 -12    2.55    0.19
   0  -8  12    2.65    0.15
   0  -8  12    2.58    0.18
   0  -8  12    2.77    0.16
   0  -8 -12    2.47    0.19
   0  -8 -12    2.62    0.17
   0  -8 -12    2.84    0.18
   0  -8 -12    2.38    0.19
   0  -8  12    2.52    0.16
   1  -8  12    0.55    0.07
   1  -8  12    0.43    0.07
   1  -8  12    0.50    0.10
  -1  -8 -12    0.56    0.11
   1  -8  12    0.42    0.06
  -1  -8 -12    0.60    0.09
  -1  -8 -12    0.48    0.11
  -1  -8 -12    0.52    0.09
   1  -8 -12    0.46    0.10
  -1  -8  12    0.43    0.06
  -1  -8  12    0.51    0.07
   1  -8 -12    0.23    0.08
   1  -8 -12    0.43    0.11
   1  -8 -12    0.51    0.09
  -1  -8  12    0.36    0.09
  -1  -8  12    0.34    0.06
  -2  -8 -12   56.49    2.98
  -2  -8 -12   59.76    2.99
   2  -8  12   66.51    3.00
   2  -8  12   61.16    2.97
   2  -8  12   63.96    2.98
  -2  -8 -12   55.91    2.98
   2  -8  12   62.99    2.97
  -2  -8 -12   64.93    2.99
  -2  -8  12   61.74    2.99
   2  -8 -12   56.87    2.99
   2  -8 -12   64.19    2.99
   2  -8 -12   60.07    2.98
   2  -8 -12   62.32    2.98
  -2  -8  12   64.39    2.97
  -2  -8  12   64.16    2.97
  -2  -8  12   60.59    2.98
  -3  -8 -12    4.77    0.27
  -3  -8 -12    4.85    0.27
   3  -8  12    5.39    0.30
   3  -8  12    4.78    0.25
   3  -8  12    5.45    0.27
  -3  -8 -12    4.38    0.27
   3  -8 -12    4.89    0.28
   3  -8 -12    4.39    0.28
  -3  -8  12    4.96    0.25
  -3  -8  12    5.03    0.28
   3   8  12    4.82    0.27
   3  -8 -12    4.90    0.27
  -3  -8  12    4.91    0.25
  -3  -8  12    4.85    0.26
   4  -8  12    6.57    0.34
  -4  -8 -12    6.52    0.34
  -4  -8 -12    6.43    0.34
   4  -8  12    7.54    0.34
   4   8 -12    6.78    0.34
  -4  -8  12    7.06    0.34
   4  -8 -12    5.81    0.35
   4   8  12    6.30    0.35
   4  -8 -12    6.93    0.35
   0  -9 -12    0.01    0.05
   0  -9 -12   -0.10    0.05
   0  -9  12    0.03    0.04
   0  -9 -12   -0.04    0.04
   0  -9  12   -0.03    0.07
   0  -9  12    0.02    0.03
   0  -9  12   -0.03    0.02
   0  -9 -12    0.04    0.05
  -1  -9 -12    0.06    0.05
  -1  -9 -12    0.15    0.04
  -1  -9 -12    0.06    0.05
   1  -9  12    0.23    0.05
   1  -9  12    0.14    0.04
   1  -9  12    0.15    0.04
  -1  -9 -12    0.08    0.04
   1  -9  12    0.14    0.12
   1  -9 -12    0.08    0.06
  -1  -9  12    0.21    0.05
  -1  -9  12    0.01    0.08
  -1  -9  12    0.17    0.04
   1  -9 -12    0.10    0.05
   1  -9 -12    0.16    0.05
  -1  -9  12    0.07    0.03
  -2  -9 -12    4.87    0.27
  -2  -9 -12    5.44    0.27
   2  -9  12    5.25    0.26
   2  -9  12    5.27    0.27
   2  -9  12    5.95    0.27
  -2  -9 -12    5.05    0.28
  -2  -9  12    5.15    0.27
   2  -9 -12    4.93    0.28
  -2  -9  12    5.46    0.27
   2  -9 -12    5.11    0.27
  -2  -9  12    5.34    0.27
   2  -9 -12    4.61    0.28
   3  -9  12    2.34    0.12
   3   9 -12    2.06    0.12
  -3  -9 -12    2.23    0.13
  -3  -9 -12    2.06    0.13
  -3  -9 -12    2.23    0.13
   3  -9  12    2.36    0.13
   0   0 -13    0.03    0.03
   1   0  13    0.01    0.06
  -1   0 -13    0.07    0.04
   2   0  13   -0.06    0.04
   2   0 -13    0.03    0.04
   3   0 -13    0.04    0.06
   4   0 -13   -0.01    0.06
   4   0 -13    0.00    0.07
   4   0 -13    0.03    0.06
   4   0  13   -0.05    0.10
   4   0  13    0.03    0.07
   4   0 -13    0.05    0.10
   5   0  13   -0.05    0.06
   5   0 -13    0.03    0.08
   5   0 -13   -0.07    0.05
   5   0 -13    0.03    0.05
  -6   0 -13    0.02    0.07
   6   0 -13    0.03    0.05
   6   0  13   -0.12    0.06
  -6   0 -13    0.02    0.06
   6   0 -13    0.10    0.05
  -7   0 -13   -0.03    0.06
   7   0 -13    0.00    0.04
   7   0  13    0.02    0.05
  -7   0 -13    0.13    0.09
   7   0 -13    0.07    0.04
   8   0 -13   -0.04    0.03
   8   0 -13    0.04    0.03
  -8   0 -13   -0.04    0.03
   8   0  13    0.01    0.03
   0  -1 -13    0.00    0.04
   0   1 -13   -0.01    0.03
   0  -1  13    0.10    0.05
   1  -1  13    3.30    0.19
   1   1 -13    3.42    0.19
  -1  -1  13    3.28    0.20
  -1   1 -13    3.73    0.18
   1  -1 -13    3.60    0.20
   2   1 -13   24.02    1.18
   2  -1  13   24.35    1.18
   2  -1 -13   24.63    1.18
  -2  -1  13   23.37    1.17
   2   1  13   23.77    1.17
   3  -1  13    0.11    0.05
   3   1 -13    0.12    0.07
  -3  -1  13    0.18    0.06
   3  -1 -13    0.13    0.06
   4   1 -13   25.49    1.26
   4  -1  13   26.70    1.25
   4   1 -13   22.25    1.25
  -4  -1 -13   28.58    1.26
   4  -1  13   28.05    1.26
   4   1 -13   23.91    1.24
   4   1  13   25.82    1.25
   4  -1 -13   25.86    1.26
  -4  -1  13   25.32    1.24
   4  -1 -13   25.12    1.26
   4   1  13   22.45    1.27
   4  -1 -13   25.21    1.27
   4  -1 -13   25.96    1.25
   5   1 -13    0.11    0.06
  -5  -1 -13    0.19    0.08
   5   1 -13    0.10    0.06
  -5  -1 -13    0.09    0.07
   5  -1  13    0.13    0.09
   5   1 -13    0.30    0.07
   5  -1  13    0.14    0.06
   5  -1 -13    0.11    0.05
   5  -1 -13    0.32    0.11
  -5  -1  13    0.15    0.07
   5  -1 -13    0.16    0.05
   5   1  13    0.06    0.08
   6  -1  13    4.19    0.26
   6  -1  13    4.33    0.24
  -6  -1 -13    3.60    0.25
   6   1 -13    3.90    0.23
   6   1 -13    3.92    0.24
  -6  -1 -13    3.95    0.25
   6  -1 -13    3.95    0.24
   6   1  13    3.63    0.25
  -6   1 -13    4.03    0.25
  -6   1 -13    3.68    0.25
   6  -1 -13    4.02    0.23
   7   1 -13    1.12    0.10
   7   1 -13    1.14    0.10
  -7  -1 -13    1.22    0.13
  -7  -1 -13    1.26    0.13
   7  -1  13    0.92    0.11
   7  -1 -13    1.32    0.10
  -7   1 -13    1.19    0.12
   7   1  13    1.12    0.11
   7  -1 -13    1.16    0.10
  -8  -1 -13    0.04    0.03
   8   1 -13    0.01    0.05
   8  -1  13    0.00    0.05
   8   1 -13    0.07    0.03
  -8   1 -13    0.05    0.03
   8   1  13    0.00    0.03
   8  -1 -13    0.02    0.04
   8  -1 -13    0.03    0.03
   0  -2 -13   17.53    0.90
   0  -2  13   18.25    0.89
   0   2 -13   18.40    0.89
   1  -2  13   49.53    2.34
   1   2 -13   48.27    2.34
  -1  -2  13   47.89    2.34
   1  -2 -13   47.90    2.35
  -1   2 -13   48.47    2.33
   2  -2  13   49.39    2.28
   2   2 -13   46.41    2.28
  -2  -2  13   46.52    2.27
   2   2  13   44.98    2.28
   2  -2 -13   47.75    2.29
   3  -2  13    0.45    0.08
  -3  -2 -13    0.42    0.10
   3  -2  13    0.46    0.10
   3   2 -13    0.62    0.11
  -3  -2 -13    0.66    0.10
   3  -2  13    0.55    0.08
   3  -2 -13    0.57    0.11
   3  -2 -13    0.38    0.10
   3  -2 -13    0.41    0.08
   3  -2 -13    0.53    0.14
  -3  -2  13    0.45    0.08
  -4  -2 -13    1.77    0.14
   4  -2  13    1.93    0.14
  -4  -2 -13    1.42    0.16
   4  -2  13    1.83    0.14
   4   2 -13    1.82    0.21
   4   2 -13    1.55    0.15
   4   2 -13    1.67    0.13
   4  -2  13    1.88    0.13
   4  -2 -13    1.72    0.14
  -4  -2  13    1.69    0.13
   4   2  13    1.48    0.17
   4  -2 -13    1.59    0.21
   4  -2 -13    1.56    0.19
   4  -2 -13    1.88    0.15
   5   2 -13    3.19    0.19
   5  -2  13    3.51    0.20
  -5  -2 -13    3.10    0.20
  -5  -2 -13    2.77    0.22
   5   2 -13    3.22    0.20
  -5  -2  13    3.17    0.20
   5  -2 -13    3.08    0.20
   5   2  13    2.62    0.22
   5  -2 -13    2.82    0.26
   5  -2 -13    3.24    0.20
   6  -2  13    5.10    0.29
   6   2 -13    5.35    0.29
   6   2 -13    5.11    0.30
  -6  -2 -13    5.11    0.30
   6   2 -13    5.09    0.29
  -6  -2 -13    5.14    0.30
   6   2  13    4.64    0.31
   6  -2 -13    5.34    0.29
  -6  -2  13    4.78    0.30
   6  -2 -13    5.50    0.29
  -7  -2 -13    0.48    0.11
   7   2 -13    0.58    0.07
  -7  -2 -13    0.52    0.11
  -7  -2 -13    0.57    0.07
   7   2  13    0.58    0.09
  -7   2 -13    0.69    0.10
   7  -2 -13    0.53    0.08
   7  -2 -13    0.50    0.08
   8   2 -13    2.28    0.13
  -8  -2 -13    2.16    0.13
   8  -2 -13    2.61    0.14
   8  -2 -13    2.30    0.13
   8   2  13    2.26    0.14
   0   3 -13   -0.01    0.04
   0  -3  13    0.00    0.04
   1  -3  13    5.09    0.28
   1   3 -13    5.26    0.28
   1  -3 -13    4.98    0.31
  -1  -3  13    5.11    0.28
  -2  -3 -13   12.33    0.65
   2   3 -13   14.06    0.65
   2  -3  13   12.18    0.63
  -2  -3 -13   11.14    0.65
   2  -3  13   14.29    0.65
   2  -3 -13   13.13    0.67
  -2  -3  13   13.45    0.64
   2  -3 -13   12.23    0.64
   2   3  13   12.38    0.66
   2  -3 -13   12.83    0.65
   2  -3 -13   10.99    0.66
   3  -3  13   22.75    1.11
  -3  -3 -13   20.07    1.14
   3  -3  13   22.87    1.11
   3   3 -13   25.09    1.14
  -3  -3 -13   21.16    1.13
   3  -3  13   24.75    1.13
  -3  -3 -13   22.58    1.14
   3   3 -13   21.54    1.12
   3  -3 -13   23.96    1.12
   3  -3 -13   20.03    1.13
   3  -3 -13   22.11    1.12
   3  -3 -13   23.84    1.16
  -3  -3  13   20.95    1.11
  -3  -3  13   24.71    1.12
  -4  -3 -13    3.74    0.24
   4   3 -13    3.71    0.23
   4   3 -13    3.57    0.21
  -4  -3 -13    3.61    0.23
   4  -3  13    3.43    0.21
   4  -3  13    4.01    0.23
  -4  -3 -13    3.71    0.23
   4  -3  13    3.83    0.22
   4  -3 -13    3.70    0.23
   4  -3 -13    3.77    0.23
  -4  -3  13    3.83    0.22
   4  -3 -13    3.04    0.26
  -4  -3  13    3.24    0.23
   4   3  13    3.21    0.24
   5  -3  13   36.65    1.87
  -5  -3 -13   36.21    1.86
  -5  -3 -13   40.35    1.86
  -5  -3 -13   38.00    1.86
   5   3 -13   38.86    1.86
   5  -3  13   38.53    1.86
   5   3 -13   38.18    1.85
   5  -3 -13   40.89    1.86
   5  -3 -13   37.14    1.87
   5   3  13   36.05    1.87
   5  -3 -13   37.66    1.86
  -5  -3  13   37.12    1.86
   6   3 -13   12.83    0.61
  -6  -3 -13   12.40    0.63
   6  -3  13   12.35    0.62
  -6  -3 -13   12.94    0.62
   6   3 -13   12.52    0.62
  -6  -3 -13   11.28    0.62
   6  -3 -13   11.80    0.62
   6  -3 -13   12.56    0.62
  -6  -3  13   10.73    0.62
   6   3  13   11.17    0.63
  -7  -3 -13    0.18    0.06
  -7  -3 -13    0.16    0.05
   7   3 -13    0.06    0.04
   7   3  13    0.07    0.04
   7  -3 -13    0.05    0.04
   7  -3 -13    0.14    0.05
  -7   3 -13    0.00    0.07
   0  -4 -13    3.46    0.21
   0  -4  13    2.83    0.21
   0  -4 -13    3.30    0.24
   0  -4  13    3.28    0.19
   0  -4 -13    3.31    0.25
   0   4 -13    3.70    0.21
   0  -4 -13    3.17    0.24
   0  -4  13    3.16    0.20
   0  -4  13    3.38    0.20
   1  -4  13   49.95    2.55
   1  -4  13   56.72    2.54
   1  -4  13   55.77    2.56
  -1  -4 -13   50.12    2.57
   1  -4  13   54.85    2.55
  -1  -4 -13   50.03    2.57
  -1  -4 -13   56.73    2.56
   1   4 -13   52.92    2.55
  -1  -4 -13   45.01    2.56
  -1  -4 -13   55.22    2.57
  -1  -4  13   55.61    2.56
   1  -4 -13   55.70    2.55
  -1  -4  13   47.11    2.54
   1   4  13   49.63    2.58
   1  -4 -13   55.04    2.57
  -1  -4  13   54.25    2.54
   1  -4 -13   53.12    2.57
  -1  -4  13   51.10    2.55
   1  -4 -13   51.58    2.57
  -2  -4 -13   22.17    1.19
   2  -4  13   26.24    1.18
   2  -4  13   22.88    1.17
  -2  -4 -13   22.01    1.18
   2  -4  13   23.73    1.16
   2   4 -13   25.91    1.19
   2  -4  13   23.13    1.17
  -2  -4 -13   22.00    1.20
  -2  -4 -13   24.07    1.19
  -2  -4 -13   24.62    1.18
   2  -4 -13   23.64    1.19
  -2  -4  13   24.87    1.16
   2   4  13   21.36    1.20
   2  -4 -13   23.96    1.19
  -2  -4  13   22.96    1.17
   2  -4 -13   24.51    1.18
   2  -4 -13   23.35    1.17
  -2  -4  13   25.65    1.18
  -3  -4 -13    6.59    0.39
   3  -4  13    6.73    0.36
   3  -4  13    6.75    0.35
   3   4 -13    6.52    0.39
   3  -4  13    7.00    0.37
   3   4 -13    6.42    0.36
  -3  -4 -13    6.20    0.40
  -3  -4 -13    6.39    0.38
   3  -4  13    6.19    0.36
   3  -4 -13    6.83    0.40
  -3  -4  13    6.40    0.36
   3  -4 -13    7.11    0.38
  -3  -4  13    7.24    0.37
   3  -4 -13    6.99    0.37
  -3  -4  13    6.63    0.36
   4  -4  13    2.89    0.18
  -4  -4 -13    3.11    0.20
  -4  -4 -13    2.87    0.25
  -4  -4 -13    2.90    0.25
   4  -4  13    3.13    0.19
   4  -4  13    3.19    0.21
   4   4 -13    3.12    0.20
  -4  -4 -13    2.94    0.21
   4  -4 -13    3.14    0.24
  -4  -4  13    2.86    0.19
  -4  -4  13    3.18    0.20
   4  -4 -13    2.95    0.20
   4   4  13    2.68    0.21
   4  -4 -13    3.21    0.21
   5  -4  13   32.14    1.64
   5   4 -13   33.69    1.63
   5  -4  13   33.44    1.62
  -5  -4 -13   31.87    1.63
   5  -4  13   34.73    1.62
  -5  -4 -13   36.57    1.63
   5   4 -13   31.20    1.61
  -5  -4  13   33.56    1.62
   5  -4 -13   35.00    1.64
   5   4  13   29.56    1.64
  -5  -4  13   31.97    1.63
   5  -4 -13   34.26    1.63
  -6  -4 -13    0.10    0.05
   6   4 -13    0.20    0.05
   6   4 -13    0.08    0.05
   6  -4  13    0.16    0.05
  -6  -4 -13    0.09    0.06
   6  -4 -13    0.11    0.06
  -6  -4  13    0.31    0.09
   6  -4 -13    0.05    0.04
   6   4  13    0.10    0.05
  -6  -4  13    0.23    0.09
   7  -4  13   11.33    0.52
   7   4 -13   10.21    0.52
  -7  -4 -13    9.65    0.52
  -7  -4 -13   11.14    0.52
   7  -4 -13    9.92    0.52
   7   4  13   10.01    0.53
   7  -4 -13   10.66    0.53
  -7   4 -13   10.24    0.54
   0  -5  13    0.00    0.05
   0  -5  13    0.02    0.04
   0  -5 -13    0.05    0.08
   0  -5 -13    0.04    0.11
   0   5  13   -0.04    0.14
   0  -5  13   -0.01    0.04
   0  -5  13    0.01    0.06
   0  -5 -13    0.18    0.08
   0  -5  13   -0.01    0.07
   0  -5 -13    0.03    0.06
   0  -5 -13    0.07    0.09
  -1  -5 -13   16.53    0.91
  -1  -5 -13   17.57    0.92
   1  -5  13   18.30    0.89
   1  -5  13   17.49    0.90
   1  -5  13   18.20    0.89
   1  -5  13   19.48    0.91
  -1  -5 -13   16.97    0.92
  -1  -5 -13   20.10    0.92
  -1  -5 -13   19.09    0.92
   1   5 -13   16.91    0.91
   1  -5 -13   17.72    0.92
   1  -5 -13   19.11    0.90
  -1  -5  13   17.53    0.89
  -1  -5  13   17.59    0.90
   1  -5 -13   18.36    0.92
   1   5  13   15.76    0.95
  -1  -5  13   18.26    0.89
  -1  -5  13   17.62    0.89
  -1  -5  13   18.96    0.91
   1  -5 -13   18.52    0.92
   2  -5  13    6.88    0.37
  -2  -5 -13    6.90    0.40
  -2  -5 -13    6.82    0.41
  -2  -5 -13    6.70    0.41
  -2  -5 -13    6.94    0.40
   2  -5  13    6.81    0.37
   2  -5  13    7.86    0.39
   2  -5  13    6.94    0.37
  -2  -5 -13    7.35    0.40
  -2  -5  13    6.97    0.38
  -2  -5  13    7.18    0.37
   2  -5 -13    7.01    0.38
  -2  -5  13    6.47    0.37
   2  -5 -13    7.44    0.41
   2  -5 -13    7.04    0.41
  -2  -5  13    6.99    0.39
   2  -5 -13    6.94    0.40
  -3  -5 -13   61.65    3.41
   3  -5  13   71.40    3.42
   3  -5  13   71.66    3.39
  -3  -5 -13   71.16    3.42
   3  -5  13   67.84    3.39
  -3  -5 -13   66.27    3.41
   3   5 -13   66.31    3.39
  -3  -5 -13   74.57    3.42
   3  -5  13   72.42    3.40
  -3  -5  13   75.68    3.39
   3  -5 -13   70.57    3.40
  -3  -5  13   72.60    3.40
   3  -5 -13   73.33    3.42
  -3  -5  13   68.46    3.41
   3  -5 -13   70.84    3.42
  -4  -5 -13    4.02    0.23
  -4  -5 -13    3.86    0.26
  -4  -5 -13    3.50    0.24
  -4  -5 -13    3.76    0.27
   4  -5  13    3.91    0.21
   4   5 -13    4.00    0.23
   4  -5  13    3.59    0.24
   4  -5  13    3.88    0.23
   4  -5 -13    3.59    0.23
   4  -5 -13    3.82    0.24
   4  -5 -13    4.06    0.27
  -4  -5  13    3.58    0.24
  -4  -5  13    3.79    0.22
   4   5  13    3.69    0.24
   5  -5  13    9.37    0.52
  -5  -5 -13   10.21    0.50
   5  -5  13   10.52    0.50
   5   5 -13    9.60    0.50
   5  -5  13   10.07    0.50
  -5  -5 -13    9.50    0.51
   5   5 -13   10.17    0.51
  -5  -5  13   10.38    0.50
   5  -5 -13    9.54    0.50
   5  -5 -13   10.24    0.52
   5   5  13    8.68    0.51
  -5  -5  13    8.97    0.51
   6   5 -13   21.88    1.04
  -6  -5 -13   22.64    1.04
   6   5 -13   20.58    1.05
  -6  -5 -13   20.19    1.05
   6  -5  13   21.69    1.05
   6  -5 -13   20.76    1.05
   6   5  13   19.57    1.06
  -6  -5  13   21.50    1.06
   6  -5 -13   22.42    1.06
  -6  -5  13   22.12    1.04
  -7  -5 -13   18.51    0.83
   7  -5 -13   17.87    0.83
   7   5  13   14.90    0.84
   0  -6  13   14.02    0.75
   0  -6  13   15.11    0.74
   0  -6 -13   12.77    0.75
   0  -6  13   15.36    0.73
   0  -6 -13   14.33    0.77
   0  -6  13   14.37    0.74
   0  -6 -13   15.98    0.76
   0  -6 -13   15.75    0.76
   0  -6 -13   14.92    0.77
  -1  -6 -13   63.64    3.66
  -1  -6 -13   76.18    3.68
  -1  -6 -13   73.51    3.68
   1  -6  13   73.50    3.66
  -1  -6 -13   78.74    3.67
   1  -6  13   77.21    3.64
   1  -6  13   74.70    3.65
   1  -6  13   79.16    3.65
  -1  -6 -13   81.71    3.67
   1  -6 -13   73.89    3.67
  -1  -6  13   75.81    3.66
   1  -6 -13   76.10    3.68
  -1  -6  13   75.62    3.64
   1  -6 -13   78.96    3.67
  -1  -6  13   71.25    3.66
  -1  -6  13   76.08    3.64
   1  -6 -13   79.37    3.66
  -2  -6 -13   21.22    1.08
  -2  -6 -13   20.94    1.08
  -2  -6 -13   21.79    1.08
   2  -6  13   20.38    1.07
   2  -6  13   21.60    1.06
   2  -6  13   20.99    1.05
   2  -6  13   21.41    1.05
  -2  -6  13   21.42    1.05
   2  -6 -13   22.08    1.06
   2  -6 -13   20.59    1.08
  -2  -6  13   20.31    1.07
   2  -6 -13   21.03    1.08
  -2  -6  13   21.02    1.06
   2  -6 -13   22.18    1.07
  -2  -6  13   22.58    1.05
   3  -6  13    9.91    0.51
   3  -6  13    9.63    0.53
  -3  -6 -13    8.98    0.53
   3   6 -13   10.42    0.52
   3  -6  13   10.36    0.52
   3  -6  13    9.95    0.51
  -3  -6 -13   10.32    0.54
  -3  -6 -13   10.74    0.54
  -3  -6 -13    9.13    0.54
   3  -6 -13    9.76    0.54
   3  -6 -13    9.85    0.52
  -3  -6  13   10.33    0.52
  -3  -6  13    9.81    0.51
  -3  -6  13   10.32    0.51
   3  -6 -13   10.82    0.55
  -3  -6  13    9.12    0.53
   4  -6  13    1.27    0.11
  -4  -6 -13    1.37    0.13
   4   6 -13    1.32    0.12
  -4  -6 -13    1.58    0.15
   4  -6  13    1.18    0.10
   4  -6  13    1.10    0.13
   4  -6 -13    1.15    0.11
  -4  -6  13    1.22    0.13
   4   6  13    1.21    0.13
  -4  -6  13    1.37    0.11
   4  -6 -13    1.30    0.14
   4  -6 -13    1.11    0.16
   5  -6  13    2.83    0.16
  -5  -6 -13    2.83    0.16
   5   6 -13    2.76    0.17
   5   6 -13    2.63    0.16
   5  -6  13    2.67    0.19
   5  -6  13    2.92    0.17
  -5  -6 -13    2.49    0.17
   5   6  13    2.46    0.18
   5  -6 -13    2.70    0.16
  -5  -6  13    2.82    0.19
  -5  -6  13    2.78    0.17
   5  -6 -13    2.91    0.19
   6  -6  13    0.38    0.06
  -6  -6 -13    0.38    0.07
  -6  -6 -13    0.42    0.07
   6   6 -13    0.30    0.07
   6   6 -13    0.36    0.06
   6  -6 -13    0.55    0.10
   6   6  13    0.36    0.07
  -6  -6  13    0.53    0.07
   6  -6 -13    0.44    0.05
   0  -7 -13   -0.09    0.07
   0  -7  13    0.07    0.06
   0  -7 -13    0.04    0.08
   0  -7 -13   -0.05    0.06
   0  -7  13    0.06    0.04
   0  -7 -13    0.03    0.07
   0  -7  13   -0.01    0.05
   0  -7 -13    0.15    0.08
   0  -7  13    0.05    0.04
  -1  -7 -13    8.17    0.42
   1  -7  13    7.71    0.39
   1  -7  13    7.64    0.40
  -1  -7 -13    7.89    0.42
  -1  -7 -13    7.65    0.43
   1  -7  13    7.53    0.40
  -1  -7 -13    6.67    0.41
   1  -7  13    7.31    0.41
  -1  -7 -13    6.87    0.43
  -1  -7  13    7.90    0.39
   1  -7 -13    7.13    0.43
   1  -7 -13    8.09    0.42
  -1  -7  13    7.98    0.39
   1  -7 -13    7.83    0.43
  -1  -7  13    7.51    0.40
   1  -7 -13    8.00    0.41
  -1  -7  13    6.86    0.41
   2  -7  13   10.51    0.54
  -2  -7 -13    9.67    0.56
  -2  -7 -13   10.00    0.56
   2  -7  13   10.63    0.56
  -2  -7 -13   10.75    0.57
   2  -7  13   10.26    0.54
  -2  -7 -13   11.61    0.57
   2  -7  13   10.84    0.55
   2  -7 -13   10.92    0.55
  -2  -7  13   11.35    0.54
   2  -7 -13   11.01    0.57
  -2  -7  13    9.80    0.56
   2  -7 -13   10.45    0.57
  -2  -7  13   10.69    0.55
  -2  -7  13   10.63    0.54
   2  -7 -13   11.09    0.56
   3  -7  13    5.40    0.29
  -3  -7 -13    5.42    0.32
  -3  -7 -13    6.31    0.32
   3  -7  13    5.70    0.32
   3  -7  13    5.99    0.31
   3  -7  13    5.49    0.29
  -3  -7 -13    5.98    0.33
  -3  -7 -13    4.73    0.31
  -3  -7  13    5.03    0.31
  -3  -7  13    4.88    0.29
  -3  -7  13    5.52    0.29
  -3  -7  13    5.88    0.31
   3  -7 -13    5.71    0.33
   3  -7 -13    5.95    0.31
   3  -7 -13    5.98    0.33
  -4  -7 -13    3.43    0.21
   4  -7  13    3.47    0.19
   4  -7  13    3.45    0.20
   4  -7  13    3.79    0.22
   4   7 -13    3.70    0.20
  -4  -7 -13    2.88    0.20
   4  -7 -13    3.28    0.23
   4  -7 -13    3.31    0.20
   4   7  13    3.03    0.21
   4  -7 -13    3.42    0.22
  -4  -7  13    3.37    0.21
  -4  -7  13    3.32    0.19
  -5  -7 -13   19.69    1.05
   5   7 -13   21.47    1.04
   5   7 -13   20.95    1.04
   5  -7  13   23.42    1.05
  -5  -7  13   21.28    1.04
   5  -7 -13   21.16    1.05
   5   7  13   20.24    1.05
   5  -7 -13   22.19    1.04
   5   7  13   22.30    1.04
   0  -8 -13    2.11    0.15
   0  -8 -13    1.76    0.16
   0  -8 -13    2.12    0.16
   0  -8  13    2.08    0.13
   0  -8  13    2.06    0.13
   0  -8 -13    1.99    0.16
   0  -8 -13    2.14    0.15
   0  -8  13    1.78    0.13
   0  -8  13    2.04    0.15
   1  -8  13    0.37    0.06
   1  -8  13    0.28    0.06
  -1  -8 -13    0.16    0.06
  -1  -8 -13    0.36    0.10
  -1  -8 -13    0.20    0.07
  -1  -8 -13    0.37    0.08
   1  -8  13    0.44    0.09
   1  -8  13    0.34    0.06
   1  -8 -13    0.48    0.10
  -1  -8  13    0.28    0.08
   1  -8 -13    0.41    0.09
  -1  -8  13    0.28    0.06
   1  -8 -13    0.30    0.10
  -1  -8  13    0.22    0.05
   1  -8 -13    0.35    0.10
  -1  -8  13    0.27    0.06
  -2  -8 -13    0.14    0.06
  -2  -8 -13    0.13    0.06
  -2  -8 -13    0.35    0.09
  -2  -8 -13    0.15    0.05
   2  -8  13    0.14    0.07
   2  -8  13    0.28    0.05
   2  -8  13    0.19    0.06
  -2  -8  13    0.33    0.08
   2  -8 -13    0.34    0.10
   2  -8 -13    0.28    0.09
  -2  -8  13    0.25    0.06
   2  -8 -13    0.35    0.10
  -2  -8  13    0.27    0.06
  -2  -8  13    0.18    0.05
   2  -8 -13    0.42    0.09
   3  -8  13    0.89    0.07
   3  -8  13    0.82    0.06
   3  -8  13    0.87    0.12
  -3  -8 -13    0.62    0.09
  -3  -8 -13    0.67    0.08
  -3  -8 -13    0.85    0.09
   3  -8 -13    0.80    0.11
   3  -8 -13    0.79    0.11
  -3  -8  13    0.82    0.07
   3  -8 -13    0.76    0.09
   3   8  13    0.66    0.09
  -3  -8  13    0.67    0.10
  -3  -8  13    0.69    0.07
  -3  -8  13    0.78    0.08
   4   8 -13    0.17    0.04
   4  -8  13    0.03    0.03
   4  -8  13    0.22    0.05
   4  -8 -13    0.15    0.07
   4  -8 -13    0.02    0.05
   4   8  13    0.12    0.05
  -4  -8  13    0.10    0.04
   0  -9 -13    0.07    0.05
   0  -9 -13    0.02    0.04
   0  -9 -13    0.13    0.05
   0  -9  13    0.03    0.03
   0  -9  13   -0.04    0.09
   0  -9  13    0.01    0.03
   0  -9  13    0.01    0.03
  -1  -9 -13   13.05    0.62
  -1  -9 -13   11.45    0.61
  -1  -9 -13   12.67    0.60
   1  -9  13   12.52    0.60
  -1  -9 -13   12.01    0.61
   1  -9  13   12.57    0.60
   1  -9  13   12.16    0.60
  -1  -9  13   12.60    0.60
   1  -9 -13   11.38    0.61
  -1  -9  13   12.46    0.60
   1  -9 -13   11.06    0.61
   1  -9 -13   12.32    0.62
  -1  -9  13   12.63    0.60
   2  -9  13    2.69    0.14
   2  -9  13    2.39    0.13
  -2  -9 -13    2.64    0.14
  -2  -9 -13    2.32    0.15
  -2  -9 -13    2.54    0.15
   2  -9 -13    2.33    0.16
  -2  -9  13    2.49    0.14
   2  -9 -13    2.26    0.15
  -2  -9  13    2.39    0.13
  -2  -9  13    2.62    0.14
   0   0 -14  364.06   17.49
   1   0 -14  106.91    5.35
  -1   0 -14  117.22    5.34
   1   0  14  109.67    5.34
   2   0  14    0.89    0.09
   2   0 -14    0.95    0.09
   3   0 -14   27.80    1.37
   3   0 -14   27.64    1.36
   4   0  14    0.73    0.11
   4   0 -14    0.89    0.12
   4   0 -14    0.86    0.13
   4   0  14    0.64    0.19
   4   0 -14    1.15    0.15
   5   0 -14    7.19    0.39
   5   0  14    6.65    0.42
   5   0  14    8.08    0.40
   5   0 -14    7.22    0.40
   5   0 -14    7.38    0.40
  -5   0 -14    7.61    0.41
  -6   0 -14    1.65    0.15
   6   0 -14    1.78    0.14
   6   0  14    1.82    0.16
  -6   0 -14    1.53    0.14
   6   0 -14    1.80    0.13
  -7   0 -14    0.64    0.12
   7   0  14    0.58    0.09
   7   0 -14    0.53    0.08
  -7   0 -14    0.54    0.09
   7   0 -14    0.63    0.07
   8   0 -14    9.07    0.46
   8   0 -14    8.97    0.46
   8   0  14    9.43    0.46
  -8   0 -14    9.35    0.46
   0  -1 -14    0.17    0.05
   0  -1  14    0.01    0.05
   0   1 -14    0.06    0.04
   1   1 -14    0.08    0.04
   1  -1  14    0.03    0.04
   1  -1 -14    0.05    0.04
  -1   1 -14   -0.02    0.04
  -1  -1  14    0.02    0.06
   2  -1  14    0.06    0.05
   2   1 -14    0.10    0.05
  -2  -1  14    0.36    0.13
   2   1  14    0.02    0.06
   2  -1 -14    0.03    0.05
   3   1 -14   15.92    0.82
   3  -1  14   17.72    0.83
   3  -1  14   15.99    0.82
   3   1 -14   16.64    0.84
   3  -1 -14   16.74    0.83
   3  -1 -14   16.81    0.84
   3  -1 -14   15.96    0.83
   4  -1  14    5.30    0.28
   4   1 -14    4.52    0.31
  -4  -1 -14    5.28    0.28
   4   1 -14    4.93    0.27
  -4  -1 -14    4.88    0.29
   4   1 -14    4.92    0.29
   4  -1 -14    4.27    0.31
   4   1  14    4.93    0.31
   4   1  14    4.89    0.28
   4  -1 -14    4.74    0.28
   4  -1 -14    4.80    0.28
   4  -1 -14    4.98    0.29
   5  -1  14   77.41    3.57
   5   1 -14   76.65    3.57
  -5  -1 -14   71.72    3.57
   5  -1  14   71.72    3.57
   5   1 -14   74.02    3.56
  -5  -1 -14   78.00    3.57
   5   1 -14   68.11    3.55
   5  -1 -14   73.35    3.57
   5  -1 -14   76.96    3.56
   5   1  14   71.15    3.58
   5  -1 -14   71.87    3.57
   6  -1  14    2.33    0.16
  -6  -1 -14    2.02    0.16
   6   1 -14    2.10    0.15
   6  -1  14    2.07    0.18
   6   1 -14    2.25    0.16
  -6  -1 -14    1.79    0.17
   6   1 -14    2.52    0.18
   6   1  14    2.20    0.18
  -6   1 -14    2.28    0.17
   6  -1 -14    2.09    0.15
  -6   1 -14    2.12    0.16
   6  -1 -14    2.16    0.15
   7   1 -14   17.67    0.88
  -7  -1 -14   18.16    0.88
   7  -1  14   18.39    0.88
  -7  -1 -14   16.40    0.88
   7   1 -14   17.83    0.88
  -7  -1 -14   17.50    0.89
   7   1  14   18.74    0.89
   7  -1 -14   17.93    0.88
  -7   1 -14   18.29    0.90
  -7   1 -14   16.40    0.88
   7  -1 -14   18.50    0.88
   8   1 -14    0.02    0.03
  -8  -1 -14    0.01    0.03
   8  -1 -14   -0.04    0.03
  -8   1 -14    0.02    0.03
   8   1  14    0.01    0.03
   8  -1 -14    0.03    0.04
   0  -2 -14   54.51    2.62
   0  -2  14   53.02    2.61
   0   2 -14   54.37    2.60
   1   2 -14   45.07    2.19
   1  -2  14   43.98    2.18
  -1   2 -14   44.93    2.17
  -1  -2  14   45.18    2.19
   1  -2 -14   46.45    2.20
   2   2 -14    6.57    0.35
   2  -2  14    6.46    0.34
   2   2  14    6.24    0.35
   2  -2 -14    6.48    0.35
  -2  -2  14    5.63    0.33
   3  -2  14    6.48    0.35
  -3  -2 -14    6.33    0.38
   3  -2  14    6.76    0.36
   3  -2  14    7.40    0.37
   3   2 -14    6.87    0.39
  -3  -2 -14    6.93    0.36
   3   2 -14    6.35    0.38
   3   2 -14    6.77    0.36
   3  -2 -14    7.05    0.39
   3  -2 -14    6.83    0.39
   3  -2 -14    6.83    0.37
   3  -2 -14    7.05    0.38
  -3  -2  14    6.81    0.36
   4  -2  14    2.28    0.15
   4   2 -14    2.39    0.18
   4  -2  14    2.66    0.17
  -4  -2 -14    2.59    0.17
   4   2 -14    2.63    0.16
  -4  -2 -14    2.36    0.18
   4  -2  14    2.31    0.16
   4  -2 -14    2.14    0.16
   4   2  14    2.45    0.19
   4  -2 -14    2.11    0.21
   4  -2 -14    2.25    0.17
   4  -2 -14    2.05    0.28
  -4  -2  14    2.26    0.16
  -5  -2 -14   15.73    0.80
  -5  -2 -14   13.96    0.81
   5   2 -14   16.78    0.81
   5  -2  14   16.61    0.80
   5   2 -14   16.25    0.79
   5   2  14   15.94    0.82
   5  -2 -14   15.18    0.80
   5  -2 -14   14.93    0.82
   5  -2 -14   16.17    0.80
  -5  -2  14   16.23    0.80
  -6  -2 -14    1.31    0.14
   6   2 -14    1.46    0.13
   6  -2  14    1.47    0.12
  -6  -2 -14    1.50    0.14
  -6  -2 -14    1.70    0.12
   6   2 -14    1.29    0.13
   6  -2 -14    1.52    0.13
   6  -2 -14    1.64    0.12
   6   2  14    1.30    0.14
  -7  -2 -14    5.11    0.30
  -7  -2 -14    5.56    0.31
   7   2 -14    5.42    0.30
  -7  -2 -14    5.62    0.29
   7   2  14    5.76    0.31
  -7   2 -14    5.67    0.31
   7  -2 -14    5.61    0.30
   7  -2 -14    5.44    0.30
  -8  -2 -14    0.08    0.03
   8   2 -14    0.06    0.02
   8  -2 -14    0.09    0.05
   8   2  14    0.07    0.03
   0  -3  14    0.34    0.06
   1  -3  14    0.16    0.06
   1   3 -14    0.13    0.06
   1  -3 -14    0.08    0.08
  -1  -3  14    0.08    0.05
  -2  -3 -14   11.76    0.63
   2  -3  14   12.48    0.61
   2   3 -14   12.51    0.61
  -2  -3 -14   12.10    0.62
  -2  -3 -14   11.02    0.62
   2  -3  14   11.78    0.60
   2  -3  14   11.51    0.60
   2  -3  14   11.70    0.60
   2   3  14   11.27    0.62
   2  -3 -14   12.41    0.61
  -2  -3  14   11.91    0.60
   2  -3 -14   10.54    0.63
  -2  -3  14   12.72    0.61
   2  -3 -14   12.01    0.61
   2  -3 -14   12.11    0.63
  -3  -3 -14   32.00    1.53
  -3  -3 -14   27.53    1.53
   3  -3  14   34.20    1.52
   3   3 -14   31.93    1.53
   3  -3  14   31.08    1.50
   3   3 -14   32.23    1.51
  -3  -3 -14   27.29    1.52
   3  -3  14   31.79    1.51
  -3  -3  14   33.45    1.51
   3  -3 -14   31.16    1.55
   3  -3 -14   31.60    1.52
   3  -3 -14   27.57    1.53
   3  -3 -14   30.77    1.51
  -3  -3  14   28.67    1.50
   4  -3  14    2.35    0.15
   4   3 -14    2.56    0.18
   4   3 -14    2.37    0.16
  -4  -3 -14    2.30    0.18
   4  -3  14    2.59    0.17
  -4  -3 -14    2.19    0.18
   4  -3  14    2.48    0.16
   4  -3 -14    2.40    0.18
  -4  -3  14    2.48    0.17
   4   3  14    2.24    0.19
   4  -3 -14    2.19    0.17
  -5  -3 -14    0.24    0.08
  -5  -3 -14    0.27    0.09
   5   3 -14    0.13    0.06
   5  -3  14    0.28    0.08
   5   3 -14    0.12    0.05
   5  -3 -14    0.17    0.06
  -5  -3  14    0.26    0.10
   5  -3 -14    0.05    0.11
   5  -3 -14    0.17    0.06
   5   3  14    0.18    0.07
  -6  -3 -14   27.13    1.23
  -6  -3 -14   23.34    1.23
  -6  -3 -14   23.60    1.23
   6   3 -14   22.52    1.21
   6  -3  14   25.80    1.23
   6   3 -14   25.97    1.23
   6  -3 -14   26.56    1.23
  -6  -3  14   23.93    1.23
   6  -3 -14   25.32    1.23
   6   3  14   24.50    1.24
  -7  -3 -14    5.60    0.28
  -7  -3 -14    5.05    0.29
   7   3 -14    5.24    0.29
   7  -3 -14    5.63    0.29
   7   3  14    5.32    0.29
  -7   3 -14    5.61    0.30
   7  -3 -14    5.15    0.28
   0  -4 -14   16.05    0.80
   0  -4 -14   15.78    0.82
   0  -4  14   15.80    0.79
   0   4 -14   17.27    0.82
   0  -4  14   15.80    0.79
   0  -4 -14   16.57    0.82
   0  -4  14   16.97    0.80
   0  -4  14   14.85    0.80
   0  -4 -14   14.55    0.82
  -1  -4 -14    0.50    0.15
  -1  -4 -14    0.84    0.12
   1   4 -14    0.71    0.12
   1  -4  14    0.75    0.09
   1  -4  14    0.85    0.09
  -1  -4 -14    0.78    0.18
   1  -4  14    0.72    0.10
  -1  -4 -14    0.67    0.12
   1  -4  14    0.63    0.10
  -1  -4 -14    0.65    0.17
   1  -4 -14    0.86    0.17
  -1  -4  14    0.73    0.11
   1  -4 -14    0.86    0.14
   1  -4 -14    0.54    0.11
  -1  -4  14    0.80    0.09
  -1  -4  14    0.65    0.08
  -1  -4  14    0.63    0.12
   1  -4 -14    0.66    0.10
   1   4  14    0.82    0.17
   2  -4  14    2.47    0.16
  -2  -4 -14    2.42    0.25
  -2  -4 -14    2.11    0.20
   2  -4  14    2.80    0.17
   2  -4  14    2.43    0.16
   2  -4  14    2.32    0.17
  -2  -4 -14    2.57    0.19
  -2  -4 -14    2.73    0.24
   2   4 -14    2.42    0.20
  -2  -4 -14    2.30    0.21
  -2  -4  14    2.65    0.17
   2  -4 -14    2.74    0.19
   2  -4 -14    2.41    0.17
  -2  -4  14    2.65    0.17
  -2  -4  14    2.21    0.18
   2  -4 -14    2.14    0.21
   2  -4 -14    2.73    0.24
   2   4  14    2.27    0.24
   3  -4  14    0.24    0.08
  -3  -4 -14    0.58    0.16
   3   4 -14    0.50    0.12
  -3  -4 -14    0.21    0.09
  -3  -4 -14    0.45    0.13
   3  -4  14    0.27    0.08
   3  -4  14    0.31    0.09
   3  -4  14    0.19    0.05
  -3  -4  14    0.30    0.08
  -3  -4  14    0.34    0.11
   3  -4 -14    0.28    0.10
   3  -4 -14    0.35    0.10
  -3  -4  14    0.31    0.09
   3  -4 -14    0.15    0.06
   4  -4  14    0.72    0.10
   4  -4  14    0.75    0.09
  -4  -4 -14    0.54    0.12
   4   4 -14    0.85    0.11
  -4  -4 -14    0.72    0.12
  -4  -4 -14    0.68    0.13
   4  -4  14    0.80    0.08
  -4  -4  14    0.77    0.10
   4  -4 -14    0.69    0.10
   4  -4 -14    0.58    0.10
  -4  -4  14    0.63    0.11
   4   4  14    0.59    0.12
   4  -4 -14    0.58    0.16
   5  -4  14    0.54    0.08
   5   4 -14    0.39    0.08
  -5  -4 -14    0.63    0.09
   5  -4  14    0.60    0.10
   5   4 -14    0.72    0.10
   5  -4  14    0.59    0.09
  -5  -4 -14    0.54    0.11
  -5  -4  14    0.48    0.10
   5  -4 -14    0.74    0.18
   5  -4 -14    0.41    0.09
  -5  -4  14    0.72    0.11
   5   4  14    0.52    0.11
   5  -4 -14    0.57    0.10
   6  -4  14    0.37    0.07
  -6  -4 -14    0.31    0.09
  -6  -4 -14    0.36    0.07
   6   4 -14    0.45    0.08
   6   4 -14    0.36    0.07
   6  -4 -14    0.37    0.07
   6   4  14    0.42    0.08
   6  -4 -14    0.46    0.09
  -6  -4  14    0.40    0.13
   7   4 -14    0.01    0.03
  -7  -4 -14    0.01    0.03
  -7  -4 -14    0.11    0.05
   7  -4 -14    0.04    0.03
   7  -4 -14    0.03    0.05
   7   4  14    0.01    0.03
   0   5  14    0.11    0.18
   0  -5 -14    0.08    0.08
   0  -5 -14    0.11    0.06
   0  -5  14    0.05    0.06
   0  -5  14    0.04    0.05
   0  -5 -14    0.02    0.11
   0  -5 -14    0.00    0.08
   0  -5 -14    0.04    0.09
   0  -5  14    0.02    0.04
  -1  -5 -14    8.59    0.51
  -1  -5 -14    9.64    0.49
   1  -5  14    9.59    0.49
  -1  -5 -14    8.64    0.51
  -1  -5 -14    9.65    0.51
   1  -5  14    8.96    0.47
   1  -5  14    9.26    0.47
   1  -5  14    9.03    0.48
  -1  -5  14    8.77    0.47
   1  -5 -14    9.86    0.51
   1  -5 -14    9.26    0.48
  -1  -5  14    9.32    0.49
  -1  -5  14    8.93    0.48
   1  -5 -14    8.93    0.51
  -1  -5  14    9.04    0.47
  -2  -5 -14    0.03    0.11
   2  -5  14   -0.01    0.06
   2  -5  14    0.10    0.05
  -2  -5 -14    0.10    0.08
   2  -5  14    0.02    0.05
  -2  -5 -14    0.05    0.06
  -2  -5 -14   -0.07    0.09
  -2  -5 -14    0.03    0.08
   2  -5  14   -0.01    0.04
  -2  -5  14    0.01    0.06
  -2  -5  14   -0.07    0.06
   2  -5 -14    0.03    0.04
   2  -5 -14    0.03    0.07
  -2  -5  14    0.09    0.06
   2  -5 -14    0.13    0.10
   2  -5 -14   -0.03    0.09
  -2  -5  14    0.06    0.04
   3  -5  14    2.37    0.15
  -3  -5 -14    2.18    0.19
  -3  -5 -14    1.87    0.24
  -3  -5 -14    2.54    0.21
   3  -5  14    2.48    0.16
  -3  -5 -14    2.44    0.21
   3  -5  14    2.53    0.16
   3   5 -14    2.38    0.18
   3  -5  14    2.86    0.18
  -3  -5  14    2.60    0.17
  -3  -5  14    2.41    0.18
   3  -5 -14    2.69    0.19
   3  -5 -14    2.61    0.22
  -3  -5  14    2.46    0.17
   3  -5 -14    2.38    0.17
   4  -5  14    5.09    0.27
  -4  -5 -14    4.71    0.30
  -4  -5 -14    4.37    0.28
   4  -5  14    4.69    0.26
   4   5 -14    4.69    0.27
   4  -5  14    4.61    0.28
   4   5  14    4.55    0.28
   4  -5 -14    4.94    0.31
   4  -5 -14    4.76    0.27
   4  -5 -14    4.74    0.29
  -4  -5  14    4.85    0.27
  -4  -5  14    4.51    0.28
  -5  -5 -14    3.91    0.25
   5  -5  14    4.57    0.24
   5  -5  14    4.00    0.26
   5   5 -14    4.24    0.23
   5   5 -14    4.41    0.24
   5  -5  14    3.88    0.23
  -5  -5 -14    4.05    0.24
   5   5  14    4.18    0.25
   5  -5 -14    4.29    0.24
   5  -5 -14    4.60    0.26
  -5  -5  14    4.34    0.24
  -5  -5  14    4.24    0.26
  -6  -5 -14    1.18    0.09
   6  -5  14    1.26    0.09
   6   5 -14    1.23    0.09
   6   5 -14    1.31    0.10
  -6  -5 -14    1.07    0.10
   6   5  14    1.13    0.10
   6  -5 -14    1.40    0.11
   6  -5 -14    1.36    0.09
  -6  -5  14    0.96    0.15
   7   5 -14    0.40    0.05
   0  -6 -14    4.15    0.27
   0  -6 -14    4.13    0.26
   0  -6  14    3.97    0.23
   0  -6  14    3.89    0.24
   0  -6 -14    3.78    0.27
   0  -6  14    3.84    0.22
   0  -6 -14    3.75    0.27
   0  -6 -14    4.08    0.25
   0  -6  14    3.94    0.23
   1  -6  14    5.43    0.30
   1  -6  14    5.52    0.29
  -1  -6 -14    5.70    0.34
   1  -6  14    5.51    0.29
  -1  -6 -14    4.67    0.32
  -1  -6 -14    5.95    0.32
  -1  -6 -14    5.02    0.33
   1  -6  14    5.25    0.31
   1  -6 -14    4.90    0.33
  -1  -6  14    5.24    0.29
   1  -6 -14    5.88    0.33
  -1  -6  14    5.23    0.29
  -1  -6  14    5.28    0.30
   1  -6 -14    5.39    0.33
   1  -6 -14    5.72    0.31
  -1  -6  14    5.09    0.31
  -2  -6 -14    4.35    0.27
  -2  -6 -14    3.74    0.26
   2  -6  14    4.30    0.24
  -2  -6 -14    4.11    0.28
   2  -6  14    3.94    0.25
   2  -6  14    4.09    0.24
   2  -6  14    4.41    0.24
  -2  -6 -14    3.81    0.28
   2  -6 -14    4.38    0.27
   2  -6 -14    4.27    0.25
  -2  -6  14    3.88    0.25
  -2  -6  14    4.08    0.23
  -2  -6  14    4.30    0.25
   2  -6 -14    4.08    0.28
  -2  -6  14    4.19    0.23
   2  -6 -14    4.56    0.28
  -3  -6 -14    3.82    0.27
  -3  -6 -14    4.20    0.26
   3  -6  14    4.08    0.23
   3  -6  14    3.70    0.24
  -3  -6 -14    3.49    0.24
   3  -6  14    3.78    0.22
   3  -6  14    3.88    0.22
  -3  -6 -14    4.18    0.26
  -3  -6  14    4.19    0.23
   3  -6 -14    4.35    0.27
   3  -6 -14    3.89    0.23
   3  -6 -14    4.07    0.26
  -3  -6  14    3.59    0.24
  -3  -6  14    4.17    0.24
   4  -6  14    1.09    0.09
  -4  -6 -14    0.91    0.11
   4  -6  14    1.02    0.09
   4   6 -14    0.80    0.11
  -4  -6 -14    0.70    0.13
   4  -6  14    0.81    0.11
   4  -6 -14    1.00    0.14
   4  -6 -14    1.00    0.13
  -4  -6  14    0.83    0.11
   4   6  14    0.94    0.11
  -4  -6  14    1.16    0.10
   4  -6 -14    0.93    0.10
   5   6 -14   11.31    0.55
   5   6 -14   10.89    0.54
   5  -6  14   11.34    0.54
  -5  -6 -14    9.71    0.56
   5  -6  14   11.19    0.55
   5  -6  14   11.19    0.57
   5   6  14   10.38    0.56
   5  -6 -14   10.10    0.55
   5  -6 -14   11.45    0.56
  -5  -6  14   11.32    0.57
  -5  -6  14   11.17    0.55
   6  -6  14    1.16    0.08
   6   6 -14    1.09    0.08
  -6  -6 -14    0.89    0.08
   6   6 -14    0.95    0.08
   6  -6 -14    0.92    0.07
   6   6  14    0.93    0.08
   6  -6 -14    1.13    0.11
   0  -7  14    0.08    0.05
   0  -7 -14    0.04    0.06
   0  -7  14    0.04    0.05
   0  -7 -14    0.01    0.06
   0  -7  14   -0.03    0.03
   0  -7  14   -0.01    0.05
   0  -7 -14    0.07    0.08
   0  -7 -14   -0.18    0.08
   0  -7 -14   -0.04    0.08
   1  -7  14   17.82    0.96
  -1  -7 -14   17.51    0.96
   1  -7  14   19.24    0.95
  -1  -7 -14   18.19    0.98
   1  -7  14   19.82    0.95
   1  -7  14   19.65    0.95
  -1  -7 -14   19.29    0.98
  -1  -7 -14   20.13    0.97
  -1  -7 -14   19.71    0.97
  -1  -7  14   19.40    0.95
  -1  -7  14   20.89    0.95
   1  -7 -14   19.80    0.97
   1  -7 -14   18.50    0.98
   1  -7 -14   19.82    0.96
   1  -7 -14   19.12    0.98
  -1  -7  14   19.43    0.94
  -1  -7  14   17.73    0.96
   2  -7  14    6.78    0.39
   2  -7  14    6.91    0.37
  -2  -7 -14    7.17    0.40
   2  -7  14    7.02    0.37
  -2  -7 -14    6.51    0.39
  -2  -7 -14    7.00    0.39
  -2  -7 -14    7.27    0.39
   2  -7  14    7.04    0.37
   2  -7 -14    6.90    0.39
   2  -7 -14    7.14    0.40
   2  -7 -14    7.33    0.38
  -2  -7  14    7.12    0.37
  -2  -7  14    7.48    0.36
  -2  -7  14    7.08    0.36
  -2  -7  14    6.57    0.38
   2  -7 -14    6.74    0.40
  -3  -7 -14    5.23    0.31
   3  -7  14    5.42    0.29
  -3  -7 -14    5.43    0.31
  -3  -7 -14    5.35    0.31
   3  -7  14    5.45    0.31
  -3  -7 -14    4.70    0.30
   3  -7  14    5.87    0.30
  -3  -7  14    5.64    0.30
  -3  -7  14    5.62    0.29
  -3  -7  14    5.62    0.29
   3  -7 -14    5.64    0.30
   3  -7 -14    5.47    0.32
   3  -7 -14    5.67    0.32
  -3  -7  14    5.40    0.31
   4  -7  14    0.61    0.10
  -4  -7 -14    0.55    0.11
  -4  -7 -14    0.66    0.09
   4   7 -14    0.63    0.07
   4  -7  14    0.75    0.06
   4  -7  14    0.82    0.07
   4  -7 -14    0.73    0.08
   4  -7 -14    0.97    0.13
   4  -7 -14    0.56    0.10
   4   7  14    0.81    0.09
  -4  -7  14    0.71    0.10
  -4  -7  14    0.65    0.08
  -5  -7 -14    2.18    0.14
   5  -7  14    2.45    0.13
   5   7 -14    2.25    0.13
  -5  -7  14    2.27    0.13
   5  -7 -14    2.25    0.15
   5   7  14    2.11    0.14
   5   7  14    2.29    0.13
   5  -7 -14    2.09    0.13
   0  -8 -14    0.58    0.11
   0  -8  14    0.66    0.07
   0  -8 -14    0.53    0.10
   0  -8  14    0.63    0.07
   0  -8 -14    0.75    0.10
   0  -8  14    0.54    0.09
   0  -8 -14    0.56    0.09
   0  -8  14    0.62    0.06
   1  -8  14   12.83    0.64
  -1  -8 -14   11.34    0.64
   1  -8  14   12.58    0.62
  -1  -8 -14   12.17    0.64
  -1  -8 -14   13.11    0.62
   1  -8  14   12.74    0.62
  -1  -8 -14   11.93    0.63
   1  -8  14   12.61    0.62
  -1  -8  14   12.92    0.62
  -1  -8  14   12.42    0.63
   1  -8 -14   13.03    0.63
  -1  -8  14   12.05    0.62
   1  -8 -14   12.37    0.64
   1  -8 -14   11.68    0.63
  -1  -8  14   12.64    0.62
   1  -8 -14   11.40    0.64
   2  -8  14    7.51    0.39
  -2  -8 -14    6.87    0.39
   2  -8  14    7.51    0.37
  -2  -8 -14    6.97    0.39
   2  -8  14    6.99    0.37
  -2  -8 -14    7.70    0.38
  -2  -8 -14    7.43    0.39
   2  -8  14    7.36    0.38
   2  -8 -14    7.80    0.40
  -2  -8  14    7.54    0.37
   2  -8 -14    6.77    0.39
   2  -8 -14    7.77    0.38
  -2  -8  14    7.07    0.37
  -2  -8  14    7.32    0.39
  -2  -8  14    7.34    0.37
   2  -8 -14    6.38    0.38
   3  -8  14    3.23    0.21
  -3  -8 -14    3.38    0.18
   3  -8  14    3.18    0.18
  -3  -8 -14    3.21    0.18
   3  -8  14    3.06    0.17
  -3  -8 -14    2.71    0.18
   3  -8 -14    3.03    0.18
   3   8  14    2.97    0.19
   3  -8 -14    3.28    0.20
   3  -8 -14    2.87    0.19
  -3  -8  14    3.11    0.17
  -3  -8  14    3.37    0.20
  -3  -8  14    3.27    0.17
   4  -8  14    1.77    0.10
  -4  -8 -14    1.70    0.11
   4  -8  14    1.65    0.10
   4   8 -14    1.61    0.10
  -4  -8  14    1.62    0.10
   4   8  14    1.50    0.12
   4  -8 -14    1.85    0.13
   4  -8 -14    1.59    0.12
   0  -9  14   -0.03    0.03
   0  -9  14    0.04    0.03
   0  -9  14    0.00    0.02
   0  -9 -14   -0.06    0.05
   0  -9 -14    0.05    0.05
   0  -9 -14    0.00    0.04
   1  -9  14    0.12    0.03
  -1  -9 -14    0.11    0.05
  -1  -9 -14    0.08    0.05
  -1  -9 -14    0.04    0.04
   1  -9  14    0.14    0.04
  -1  -9 -14    0.07    0.04
   1  -9  14    0.07    0.02
   1   9 -14    0.20    0.05
  -1  -9  14    0.12    0.04
   1  -9 -14    0.15    0.05
  -1  -9  14    0.09    0.03
  -1  -9  14    0.05    0.03
   1  -9 -14    0.19    0.06
   1  -9 -14    0.16    0.06
   2  -9  14    1.32    0.08
  -2  -9 -14    1.22    0.09
   2   9 -14    1.38    0.09
  -2  -9 -14    1.48    0.10
  -2  -9 -14    1.46    0.09
   2  -9  14    1.38    0.09
   2  -9 -14    1.44    0.10
  -2  -9  14    1.34    0.09
  -2  -9  14    1.39    0.08
   2  -9 -14    1.30    0.11
  -2  -9  14    1.34    0.09
   0   0 -15    0.05    0.04
  -1   0 -15    0.25    0.07
   2   0  15    0.04    0.06
   2   0 -15   -0.03    0.05
   3   0 -15    0.50    0.12
   3   0 -15    0.03    0.06
   3   0 -15    0.05    0.08
   4   0  15    0.08    0.10
   4   0  15    0.08    0.07
   4   0 -15    0.00    0.06
   4   0 -15    0.06    0.07
   4   0 -15    0.01    0.11
   4   0 -15    0.00    0.06
   5   0  15   -0.06    0.08
  -5   0 -15   -0.10    0.06
   5   0 -15    0.09    0.07
   5   0 -15    0.00    0.05
   5   0  15    0.18    0.07
  -6   0 -15    0.11    0.07
   6   0 -15    0.01    0.09
   6   0  15    0.03    0.06
   6   0 -15   -0.03    0.05
  -6   0 -15   -0.02    0.06
   6   0 -15    0.00    0.05
   7   0 -15    0.05    0.04
  -7   0 -15    0.03    0.07
   7   0 -15    0.01    0.03
   7   0  15   -0.04    0.04
  -7   0 -15   -0.12    0.06
   8   0 -15    0.00    0.03
  -8   0 -15    0.04    0.03
   0  -1 -15   -0.03    0.05
   0  -1  15   -0.06    0.05
   0   1 -15   -0.02    0.04
   1  -1  15   59.50    2.92
   1   1 -15   59.84    2.93
  -1   1 -15   64.06    2.92
   1  -1 -15   59.12    2.93
   2  -1  15   17.44    0.81
   2   1 -15   16.04    0.82
   2  -1 -15   15.52    0.82
   3  -1  15   18.01    0.89
   3   1 -15   17.37    0.89
   3   1 -15   17.40    0.90
   3  -1  15   18.71    0.89
   3   1 -15   18.11    0.91
  -3  -1 -15   18.58    0.89
   3  -1  15   17.65    0.88
   3  -1 -15   18.00    0.90
   3  -1 -15   17.65    0.90
   3  -1 -15   17.31    0.90
   3  -1 -15   18.46    0.90
   4   1 -15   36.40    1.83
  -4  -1 -15   40.88    1.84
   4  -1  15   37.04    1.84
  -4  -1 -15   39.66    1.85
   4   1 -15   37.58    1.85
   4   1  15   37.88    1.84
   4  -1 -15   36.96    1.84
   4  -1 -15   35.81    1.84
   4  -1 -15   38.62    1.84
   4   1  15   36.07    1.86
  -5  -1 -15    1.59    0.14
  -5  -1 -15    1.53    0.15
   5   1 -15    1.62    0.15
   5  -1  15    1.57    0.13
   5   1 -15    1.52    0.14
   5   1 -15    1.51    0.13
   5  -1  15    1.46    0.18
   5  -1 -15    1.53    0.14
   5  -1 -15    1.53    0.13
   5   1  15    1.59    0.16
   6   1 -15    1.63    0.14
   6   1 -15    1.94    0.15
   6   1 -15    1.62    0.13
  -6  -1 -15    1.40    0.14
   6  -1  15    1.68    0.16
   6  -1  15    1.69    0.13
  -6  -1 -15    1.60    0.15
   6   1  15    1.74    0.16
  -6   1 -15    1.48    0.14
   6  -1 -15    1.64    0.13
  -6   1 -15    1.56    0.14
   6  -1 -15    1.80    0.13
  -7  -1 -15   10.18    0.55
  -7  -1 -15    9.94    0.54
   7   1 -15   10.52    0.54
  -7  -1 -15   10.76    0.54
   7   1 -15   10.54    0.54
   7  -1  15   10.89    0.54
   7  -1 -15   10.87    0.54
   7   1  15   11.65    0.55
  -7   1 -15   10.63    0.55
   7  -1 -15   10.26    0.54
  -7   1 -15   11.26    0.56
   8   1 -15    0.04    0.02
  -8  -1 -15    0.03    0.03
   8   1  15    0.15    0.05
  -8   1 -15    0.01    0.02
   8  -1 -15    0.04    0.03
   8  -1 -15   -0.03    0.03
   0  -2 -15   33.36    1.61
   0  -2  15   32.20    1.59
   0   2 -15   32.33    1.58
   1  -2  15   43.48    2.13
   1   2 -15   43.82    2.13
  -1  -2  15   44.43    2.13
   1  -2 -15   43.90    2.15
   2  -2  15   16.43    0.81
   2   2 -15   16.78    0.82
   2   2 -15   15.49    0.80
   2  -2  15   14.95    0.80
  -2  -2 -15   15.98    0.82
   2  -2 -15   17.43    0.83
   2  -2 -15   15.31    0.82
  -2  -2  15   16.83    0.81
   3   2 -15   33.01    1.55
   3  -2  15   29.97    1.52
   3  -2  15   30.13    1.52
   3   2 -15   31.55    1.52
   3  -2  15   34.96    1.54
  -3  -2 -15   32.76    1.54
   3   2 -15   28.81    1.53
  -3  -2 -15   28.02    1.55
   3  -2 -15   32.62    1.55
   3  -2 -15   31.96    1.54
   3  -2 -15   29.80    1.53
  -3  -2  15   31.88    1.53
   3  -2 -15   29.97    1.53
   4  -2  15   55.45    2.70
   4   2 -15   56.80    2.71
   4   2 -15   52.71    2.70
  -4  -2 -15   57.24    2.72
  -4  -2 -15   57.46    2.71
   4  -2  15   60.66    2.72
   4  -2  15   55.86    2.70
   4  -2 -15   55.57    2.71
   4  -2 -15   54.52    2.71
   4   2  15   53.00    2.72
  -4  -2  15   54.98    2.70
   4  -2 -15   55.68    2.72
   5   2 -15    1.29    0.12
  -5  -2 -15    1.56    0.15
   5  -2  15    1.34    0.12
   5   2 -15    1.29    0.14
  -5  -2 -15    1.44    0.14
   5   2  15    1.38    0.16
   5  -2 -15    1.81    0.14
   5  -2 -15    1.64    0.20
   5  -2 -15    1.38    0.13
  -6  -2 -15    7.32    0.42
   6  -2  15    8.13    0.41
   6   2 -15    8.04    0.41
  -6  -2 -15    8.16    0.41
   6   2 -15    7.88    0.42
  -6  -2 -15    7.09    0.42
   6   2  15    7.75    0.43
   6  -2 -15    7.43    0.41
   6  -2 -15    8.05    0.42
  -7  -2 -15    1.49    0.13
   7   2 -15    1.56    0.11
  -7  -2 -15    1.19    0.15
  -7  -2 -15    1.51    0.10
  -7   2 -15    1.53    0.13
   7  -2 -15    1.59    0.11
   7   2  15    1.50    0.11
   7  -2 -15    1.53    0.11
  -7   2 -15    1.39    0.18
   0  -3  15    0.01    0.04
   0  -3  15    0.03    0.06
   0   3 -15   -0.02    0.08
   0  -3 -15    0.02    0.06
   0  -3 -15    0.19    0.11
  -1  -3 -15    3.45    0.21
   1  -3  15    3.19    0.19
  -1  -3 -15    3.12    0.24
   1  -3  15    3.20    0.20
   1  -3  15    3.00    0.19
   1   3 -15    3.25    0.21
   1  -3 -15    3.03    0.20
   1  -3 -15    2.78    0.23
   1  -3 -15    2.81    0.22
   1  -3 -15    3.22    0.23
   1  -3 -15    3.03    0.25
  -1  -3  15    3.33    0.19
  -1  -3  15    3.19    0.19
  -2  -3 -15   25.72    1.22
   2  -3  15   24.33    1.20
   2   3 -15   24.93    1.22
   2  -3  15   25.55    1.21
  -2  -3 -15   22.68    1.23
  -2  -3 -15   24.08    1.23
   2  -3  15   25.42    1.20
  -2  -3 -15   25.21    1.22
   2  -3  15   24.16    1.20
   2  -3 -15   23.33    1.22
   2  -3 -15   24.92    1.21
   2   3  15   22.35    1.23
   2  -3 -15   24.78    1.21
   2  -3 -15   25.59    1.24
   2  -3 -15   21.62    1.23
  -2  -3  15   25.17    1.20
  -2  -3  15   26.27    1.21
   3   3 -15   25.62    1.39
  -3  -3 -15   27.89    1.38
   3   3 -15   26.84    1.36
  -3  -3 -15   26.75    1.37
   3  -3  15   30.49    1.37
   3  -3  15   27.78    1.35
   3  -3  15   27.91    1.36
   3  -3 -15   29.00    1.37
   3  -3 -15   27.14    1.38
   3  -3 -15   27.47    1.37
  -3  -3  15   26.27    1.35
  -3  -3  15   28.57    1.36
   3  -3 -15   28.21    1.41
  -4  -3 -15    0.19    0.17
   4  -3  15    0.06    0.05
   4   3 -15    0.16    0.07
   4   3 -15    0.06    0.05
   4  -3  15    0.18    0.06
   4  -3  15    0.11    0.06
  -4  -3 -15    0.26    0.08
  -4  -3 -15    0.40    0.12
   4  -3 -15    0.16    0.09
   4   3  15    0.18    0.06
  -4  -3  15    0.26    0.10
   4  -3 -15    0.05    0.06
  -5  -3 -15   65.97    2.92
   5  -3  15   60.67    2.91
   5   3 -15   62.82    2.92
   5   3 -15   58.64    2.91
  -5  -3 -15   56.95    2.93
  -5  -3  15   57.69    2.92
   5   3  15   60.48    2.93
   5  -3 -15   60.65    2.92
   5  -3 -15   62.05    2.92
   5  -3 -15   55.95    2.93
   6  -3  15   51.85    2.45
  -6  -3 -15   47.18    2.45
   6   3 -15   48.52    2.44
   6   3 -15   52.29    2.45
  -6  -3 -15   48.63    2.44
   6   3  15   52.81    2.46
   6  -3 -15   49.61    2.45
   6  -3 -15   52.88    2.45
   7   3 -15    5.21    0.27
  -7  -3 -15    5.06    0.27
  -7  -3 -15    4.85    0.28
   7  -3 -15    4.96    0.27
   7   3  15    5.27    0.28
   7  -3 -15    5.61    0.28
  -7   3 -15    5.19    0.29
   0  -4  15   32.54    1.67
   0  -4  15   34.67    1.67
   0  -4 -15   34.87    1.69
   0  -4 -15   29.62    1.69
   0  -4 -15   35.52    1.68
   0  -4  15   36.06    1.67
   0  -4 -15   34.12    1.70
   0  -4  15   37.03    1.68
   1  -4  15   55.60    2.62
   1   4 -15   55.47    2.63
  -1  -4 -15   47.96    2.64
   1  -4  15   52.98    2.62
  -1  -4 -15   54.12    2.64
  -1  -4 -15   48.12    2.63
  -1  -4 -15   56.41    2.65
   1  -4  15   55.87    2.62
  -1  -4 -15   57.11    2.63
   1  -4  15   56.40    2.63
   1  -4 -15   56.42    2.64
  -1  -4  15   52.26    2.63
  -1  -4  15   56.42    2.62
   1  -4 -15   55.35    2.63
   1  -4 -15   55.00    2.64
  -1  -4  15   58.26    2.63
   1   4  15   55.88    2.67
  -1  -4  15   51.69    2.62
   1  -4 -15   47.39    2.64
   2  -4  15   30.79    1.52
  -2  -4 -15   27.46    1.55
  -2  -4 -15   32.84    1.55
  -2  -4 -15   30.58    1.55
  -2  -4 -15   28.82    1.54
   2  -4  15   32.06    1.52
   2  -4  15   32.94    1.54
   2  -4  15   31.82    1.52
  -2  -4 -15   34.05    1.54
   2   4 -15   31.05    1.54
   2  -4 -15   31.99    1.54
   2  -4 -15   31.39    1.53
  -2  -4  15   33.46    1.52
  -2  -4  15   31.04    1.53
   2   4  15   28.55    1.56
  -2  -4  15   33.47    1.54
   2  -4 -15   26.92    1.54
   2  -4 -15   31.30    1.55
  -3  -4 -15   16.25    0.79
   3   4 -15   13.64    0.76
   3  -4  15   14.51    0.75
   3  -4  15   14.97    0.76
  -3  -4 -15   14.41    0.77
   3  -4  15   15.94    0.77
  -3  -4 -15   15.59    0.78
   3  -4 -15   15.38    0.77
  -3  -4  15   15.24    0.75
  -3  -4  15   14.32    0.76
   3  -4 -15   15.31    0.76
   3  -4 -15   13.69    0.78
  -3  -4  15   16.48    0.77
  -4  -4 -15   -0.01    0.12
   4   4 -15    0.16    0.05
   4  -4  15    0.09    0.04
  -4  -4 -15    0.05    0.08
   4  -4  15    0.12    0.06
   4   4 -15    0.07    0.06
  -4  -4 -15    0.08    0.07
   4  -4  15    0.07    0.05
  -4  -4  15    0.12    0.08
   4  -4 -15    0.07    0.09
  -4  -4  15    0.18    0.08
   4  -4 -15    0.06    0.05
   4   4  15    0.11    0.06
   4  -4 -15    0.17    0.06
   5  -4  15    6.67    0.34
   5   4 -15    6.75    0.36
   5  -4  15    6.23    0.36
   5  -4  15    6.80    0.35
  -5  -4 -15    6.18    0.37
   5   4 -15    6.42    0.34
  -5  -4 -15    6.41    0.35
   5  -4 -15    6.14    0.39
   5  -4 -15    7.30    0.36
   5  -4 -15    6.67    0.36
   5   4  15    6.75    0.37
  -5  -4  15    6.20    0.37
  -6  -4 -15    2.86    0.19
   6   4 -15    3.02    0.18
   6   4 -15    3.06    0.17
  -6  -4 -15    2.85    0.17
   6  -4  15    3.02    0.18
  -6  -4  15    2.99    0.23
   6   4  15    3.07    0.19
   6  -4 -15    2.94    0.18
   6  -4 -15    3.14    0.19
   7   4 -15    2.80    0.15
  -7  -4 -15    2.69    0.15
  -7  -4 -15    2.54    0.16
   7   4  15    2.72    0.16
   7  -4 -15    2.56    0.16
   7  -4 -15    2.68    0.15
   0  -5 -15    0.11    0.09
   0  -5  15   -0.03    0.04
   0  -5  15    0.00    0.06
   0  -5 -15    0.08    0.06
   0  -5 -15    0.02    0.08
   0  -5 -15   -0.13    0.11
   0  -5 -15   -0.01    0.08
   0  -5  15    0.00    0.05
   0  -5  15   -0.01    0.04
  -1  -5 -15   22.46    1.29
   1  -5  15   27.46    1.27
  -1  -5 -15   27.47    1.30
  -1  -5 -15   22.67    1.28
   1  -5  15   29.07    1.28
  -1  -5 -15   23.94    1.28
   1  -5  15   24.89    1.26
   1  -5  15   27.96    1.27
  -1  -5 -15   24.35    1.29
  -1  -5  15   27.29    1.27
   1  -5 -15   24.77    1.29
  -1  -5  15   27.11    1.26
   1  -5 -15   28.25    1.30
  -1  -5  15   26.56    1.26
   1  -5 -15   22.49    1.27
  -2  -5 -15    0.02    0.08
  -2  -5 -15   -0.05    0.11
   2  -5  15    0.04    0.05
  -2  -5 -15    0.05    0.10
   2  -5  15    0.09    0.05
  -2  -5 -15    0.08    0.06
   2  -5  15    0.06    0.05
   2  -5  15    0.08    0.05
  -2  -5 -15    0.10    0.08
   2  -5 -15   -0.15    0.10
  -2  -5  15    0.06    0.07
   2  -5 -15    0.08    0.05
  -2  -5  15    0.07    0.06
  -2  -5  15    0.13    0.07
   2  -5 -15    0.08    0.07
   2  -5 -15   -0.05    0.08
  -2  -5  15    0.02    0.05
  -3  -5 -15    1.24    0.15
  -3  -5 -15    1.31    0.22
   3  -5  15    1.37    0.12
  -3  -5 -15    1.42    0.16
   3  -5  15    1.35    0.11
  -3  -5 -15    1.23    0.17
   3  -5  15    1.46    0.13
   3   5 -15    1.30    0.15
  -3  -5  15    1.45    0.13
   3  -5 -15    1.26    0.17
  -3  -5  15    1.38    0.12
   3  -5 -15    1.45    0.14
  -3  -5  15    1.38    0.14
   3  -5 -15    1.60    0.12
   4   5 -15    2.34    0.16
  -4  -5 -15    2.36    0.19
   4   5 -15    2.43    0.17
  -4  -5 -15    2.55    0.21
   4  -5  15    2.35    0.17
   4  -5  15    2.55    0.16
   4  -5  15    2.41    0.15
  -4  -5  15    2.50    0.18
   4  -5 -15    2.44    0.17
  -4  -5  15    2.81    0.17
   4  -5 -15    2.61    0.18
   4  -5 -15    2.50    0.21
   4   5  15    2.68    0.19
   5   5 -15    0.86    0.10
  -5  -5 -15    0.68    0.09
   5  -5  15    0.91    0.08
   5   5 -15    0.72    0.07
  -5  -5 -15    0.77    0.10
   5  -5  15    0.72    0.08
   5  -5  15    0.75    0.10
  -5  -5  15    0.64    0.10
   5  -5 -15    0.71    0.08
   5  -5 -15    0.67    0.15
   5   5  15    0.79    0.10
   5  -5 -15    0.60    0.09
  -5  -5  15    0.70    0.12
   6   5 -15   12.58    0.63
  -6  -5 -15   12.47    0.64
   6  -5  15   12.88    0.63
   6   5 -15   12.90    0.64
  -6  -5 -15   11.83    0.62
   6  -5 -15   12.27    0.63
   6   5  15   12.68    0.64
   6  -5 -15   14.12    0.64
   0  -6  15   21.49    1.12
   0  -6  15   21.74    1.10
   0  -6 -15   24.44    1.13
   0  -6  15   22.76    1.11
   0  -6 -15   23.65    1.14
   0  -6 -15   22.69    1.14
   0  -6  15   22.89    1.11
   0  -6 -15   20.46    1.14
   0  -6 -15   22.61    1.13
   1  -6  15    0.10    0.05
  -1  -6 -15    0.05    0.06
  -1  -6 -15    0.07    0.08
   1  -6  15    0.01    0.05
  -1  -6 -15    0.07    0.08
  -1  -6 -15    0.08    0.09
   1  -6  15    0.04    0.05
  -1  -6 -15    0.02    0.07
   1  -6  15    0.12    0.04
  -1  -6  15    0.07    0.04
  -1  -6  15    0.02    0.05
   1  -6 -15    0.10    0.08
  -1  -6  15    0.26    0.08
   1  -6 -15    0.15    0.08
   1  -6 -15    0.04    0.07
   1  -6 -15    0.05    0.05
  -2  -6 -15   36.01    2.01
   2  -6  15   41.70    1.99
   2  -6  15   41.59    1.99
  -2  -6 -15   41.58    2.01
   2  -6  15   39.86    2.00
  -2  -6 -15   42.05    2.01
   2  -6  15   41.30    1.98
  -2  -6  15   40.53    1.98
  -2  -6  15   39.12    2.00
   2  -6 -15   37.10    2.01
   2  -6 -15   42.64    2.01
  -2  -6  15   41.82    1.98
  -2  -6  15   42.55    2.00
   2  -6 -15   43.12    2.00
   2  -6 -15   42.06    2.01
   3  -6  15    2.24    0.17
   3  -6  15    2.26    0.14
  -3  -6 -15    2.47    0.19
  -3  -6 -15    2.13    0.20
  -3  -6 -15    2.05    0.17
   3  -6  15    2.45    0.15
  -3  -6 -15    2.36    0.18
  -3  -6  15    2.29    0.17
  -3  -6  15    2.36    0.15
   3  -6 -15    1.99    0.19
   3  -6 -15    2.42    0.16
   3  -6 -15    2.36    0.18
  -3  -6  15    2.34    0.16
  -4  -6 -15    0.16    0.07
   4   6 -15    0.03    0.07
   4  -6  15    0.18    0.05
   4   6 -15    0.25    0.06
  -4  -6 -15    0.19    0.06
   4  -6  15    0.11    0.06
   4  -6  15    0.20    0.05
  -4  -6  15    0.16    0.07
   4  -6 -15    0.14    0.07
   4   6  15    0.13    0.05
  -4  -6  15    0.14    0.06
   4  -6 -15    0.10    0.04
   4  -6 -15    0.18    0.08
   5  -6  15    1.17    0.09
  -5  -6 -15    1.11    0.10
   5   6 -15    1.11    0.11
   5   6 -15    1.11    0.08
   5  -6 -15    1.13    0.09
  -5  -6  15    1.09    0.10
   5  -6 -15    1.32    0.11
  -5  -6  15    1.23    0.14
   5   6  15    1.13    0.10
   5   6  15    1.07    0.10
   6   6 -15    1.40    0.10
   6   6 -15    1.42    0.09
   6  -6  15    1.48    0.09
   6  -6 -15    1.32    0.09
   6   6  15    1.24    0.10
   6  -6 -15    1.67    0.12
   0  -7 -15   -0.02    0.06
   0  -7 -15   -0.05    0.06
   0  -7 -15    0.06    0.08
   0  -7 -15    0.14    0.09
   0  -7  15    0.02    0.04
   0  -7 -15    0.10    0.08
   0  -7  15   -0.09    0.04
   0  -7  15    0.00    0.06
   0  -7  15   -0.02    0.03
   1  -7  15    2.99    0.21
   1  -7  15    3.40    0.20
  -1  -7 -15    3.67    0.23
  -1  -7 -15    3.44    0.21
   1  -7  15    3.30    0.19
  -1  -7 -15    3.67    0.22
   1  -7  15    3.47    0.20
  -1  -7 -15    2.94    0.23
  -1  -7 -15    3.24    0.22
  -1  -7  15    3.29    0.19
  -1  -7  15    3.35    0.20
   1  -7 -15    3.35    0.21
  -1  -7  15    3.38    0.19
   1  -7 -15    3.55    0.23
   1  -7 -15    3.19    0.23
  -1  -7  15    3.04    0.21
   1  -7 -15    3.01    0.23
   2  -7  15    5.10    0.30
  -2  -7 -15    5.73    0.31
  -2  -7 -15    4.86    0.31
  -2  -7 -15    5.00    0.31
   2  -7  15    4.99    0.28
  -2  -7 -15    5.27    0.30
   2  -7  15    5.28    0.28
   2  -7  15    5.30    0.29
   2  -7 -15    5.49    0.31
   2  -7 -15    4.72    0.32
  -2  -7  15    5.63    0.29
   2  -7 -15    5.56    0.30
  -2  -7  15    5.37    0.28
  -2  -7  15    5.54    0.28
  -3  -7 -15    0.10    0.06
   3  -7  15    0.19    0.07
  -3  -7 -15    0.16    0.07
   3  -7  15    0.07    0.04
  -3  -7 -15    0.20    0.08
   3  -7  15    0.10    0.03
  -3  -7 -15    0.06    0.05
   3   7  15    0.27    0.08
  -3  -7  15    0.19    0.06
   3  -7 -15    0.02    0.07
  -3  -7  15    0.24    0.07
   3  -7 -15    0.12    0.04
  -3  -7  15    0.17    0.07
   3  -7 -15    0.12    0.06
   4  -7  15    4.96    0.27
   4  -7  15    4.76    0.25
   4  -7  15    4.69    0.24
  -4  -7 -15    4.71    0.26
  -4  -7 -15    4.23    0.26
   4   7 -15    4.43    0.25
  -4  -7  15    4.85    0.25
   4   7  15    4.64    0.26
   4  -7 -15    4.73    0.25
   4  -7 -15    3.97    0.27
  -4  -7  15    4.69    0.27
   4  -7 -15    5.25    0.27
   5  -7  15    3.99    0.20
  -5  -7 -15    3.97    0.21
   5   7 -15    4.07    0.20
   5  -7 -15    3.58    0.20
  -5  -7  15    3.71    0.20
   5   7  15    3.68    0.20
   5  -7 -15    4.23    0.22
   5   7  15    3.66    0.21
   0  -8 -15   12.31    0.68
   0  -8  15   13.88    0.68
   0  -8  15   13.55    0.66
   0  -8 -15   11.73    0.67
   0  -8  15   13.86    0.66
   0  -8  15   13.51    0.66
   0  -8 -15   13.58    0.68
  -1  -8 -15    2.08    0.15
  -1  -8 -15    1.87    0.15
   1  -8  15    2.09    0.15
   1  -8  15    1.88    0.12
  -1  -8 -15    1.96    0.13
   1  -8  15    1.97    0.12
   1  -8  15    1.95    0.12
  -1  -8 -15    1.77    0.14
   1  -8 -15    2.04    0.14
  -1  -8  15    1.81    0.12
  -1  -8  15    1.99    0.14
   1  -8 -15    1.73    0.14
   1  -8 -15    1.73    0.15
   1  -8 -15    1.93    0.15
  -1  -8  15    1.95    0.12
  -1  -8  15    1.92    0.12
   2  -8  15    0.22    0.05
   2  -8  15    0.20    0.04
  -2  -8 -15    0.17    0.05
   2  -8  15    0.24    0.05
  -2  -8 -15    0.14    0.06
  -2  -8 -15    0.26    0.07
  -2  -8 -15    0.19    0.06
   2  -8  15    0.12    0.07
  -2  -8  15    0.21    0.07
  -2  -8  15    0.20    0.06
   2  -8 -15    0.16    0.06
   2  -8 -15    0.14    0.05
   2  -8 -15    0.27    0.09
  -2  -8  15    0.22    0.05
  -2  -8  15    0.19    0.05
   2  -8 -15    0.23    0.08
  -3  -8 -15    0.02    0.05
   3  -8  15   -0.02    0.11
  -3  -8 -15    0.02    0.04
   3  -8  15    0.00    0.02
  -3  -8 -15    0.02    0.06
   3  -8  15    0.03    0.03
   3   8 -15   -0.01    0.03
   3  -8 -15   -0.01    0.06
   3   8  15    0.05    0.04
   3  -8 -15   -0.02    0.04
   3  -8 -15    0.14    0.06
  -3  -8  15   -0.01    0.03
  -3  -8  15    0.03    0.09
   4  -8  15    0.24    0.05
  -4  -8 -15    0.22    0.05
   4   8 -15    0.29    0.04
   4  -8  15    0.22    0.04
   4  -8 -15    0.31    0.07
   4   8  15    0.33    0.07
   4  -8 -15    0.26    0.09
  -4  -8  15    0.30    0.05
   0  -9  15   -0.05    0.03
   0  -9 -15   -0.03    0.04
   0  -9 -15    0.06    0.04
   0  -9  15   -0.01    0.02
   0  -9 -15   -0.08    0.03
   0  -9  15    0.00    0.02
  -1  -9 -15    0.06    0.04
  -1  -9 -15    0.13    0.05
  -1  -9 -15    0.17    0.06
   1  -9  15    0.12    0.04
   1  -9  15    0.18    0.03
   1   9 -15    0.23    0.05
   1  -9 -15    0.19    0.06
   1  -9 -15    0.07    0.04
  -1  -9  15    0.21    0.04
  -1  -9  15    0.07    0.03
   1  -9 -15    0.24    0.06
  -1  -9  15    0.14    0.03
  -2  -9 -15    0.24    0.06
   2   9 -15    0.30    0.04
   2  -9  15    0.21    0.04
   2  -9  15    0.26    0.03
  -2  -9 -15    0.22    0.05
  -2  -9 -15    0.24    0.05
  -2  -9  15    0.28    0.04
   2  -9 -15    0.17    0.06
   2  -9 -15    0.20    0.06
   0   0 -16  368.10   17.69
   1   0 -16   38.93    2.01
  -1   0 -16   43.77    2.01
   2   0  16  130.11    5.99
   2   0 -16  119.09    5.99
   3   0 -16    1.63    0.15
   3   0 -16    1.63    0.13
   3   0  16    1.87    0.16
  -3   0 -16    1.84    0.19
   3   0 -16    1.73    0.16
   4   0  16    0.75    0.11
   4   0 -16    0.82    0.11
   4   0  16    0.61    0.17
   4   0 -16    0.84    0.10
   4   0 -16    0.69    0.13
   5   0  16    3.04    0.23
   5   0  16    3.08    0.19
   5   0 -16    2.82    0.19
  -5   0 -16    3.12    0.20
   5   0 -16    2.43    0.19
   5   0 -16    2.92    0.19
  -5   0 -16    3.04    0.20
  -6   0 -16    0.97    0.12
   6   0 -16    0.92    0.10
   6   0  16    0.87    0.12
  -6   0 -16    0.84    0.11
   6   0 -16    0.79    0.11
   6   0 -16    1.11    0.14
  -7   0 -16    0.37    0.10
   7   0 -16    0.38    0.06
  -7   0 -16    0.41    0.09
   7   0  16    0.44    0.08
   7   0 -16    0.40    0.08
   0   1 -16   -0.02    0.05
   0  -1  16    0.02    0.06
   0  -1 -16    0.02    0.06
   1   1 -16    1.30    0.11
   1  -1  16    1.22    0.11
   1  -1 -16    1.23    0.11
   2   1 -16   26.34    1.20
   2  -1  16   22.81    1.17
   2  -1  16   26.19    1.18
   2   1 -16   22.44    1.18
   2  -1 -16   22.84    1.19
   2  -1 -16   23.65    1.18
  -3  -1 -16    0.57    0.12
   3   1 -16    0.78    0.09
   3   1 -16    1.11    0.15
   3   1 -16    0.77    0.14
   3  -1  16    0.64    0.09
   3  -1  16    0.77    0.09
   3  -1  16    0.75    0.11
  -3  -1 -16    0.74    0.11
   3   1  16    0.65    0.15
   3  -1 -16    0.49    0.14
  -3   1 -16    0.68    0.13
   3  -1 -16    0.75    0.11
   3  -1 -16    0.71    0.11
   3  -1 -16    0.74    0.13
   4   1 -16  131.60    6.33
  -4  -1 -16  141.16    6.33
   4  -1  16  126.34    6.32
  -4  -1 -16  133.99    6.33
   4   1 -16  129.02    6.32
   4  -1 -16  127.58    6.33
   4  -1 -16  129.91    6.33
   4   1  16  125.25    6.32
   4   1  16  138.21    6.34
   4  -1 -16  131.87    6.33
   5   1 -16    9.42    0.49
  -5  -1 -16    9.67    0.50
   5  -1  16    9.56    0.49
  -5  -1 -16    9.20    0.50
   5   1 -16    9.41    0.50
   5   1 -16    8.25    0.49
   5   1  16    9.75    0.51
   5  -1 -16   10.04    0.51
   5  -1 -16    9.65    0.49
   5  -1 -16    9.13    0.49
  -6  -1 -16   16.04    0.77
   6   1 -16   14.82    0.76
   6   1 -16   16.10    0.76
  -6  -1 -16   13.87    0.76
   6   1 -16   14.34    0.76
   6  -1  16   15.68    0.76
  -6   1 -16   15.66    0.76
   6  -1 -16   15.33    0.76
  -6   1 -16   13.31    0.76
   6   1  16   16.30    0.77
   6  -1 -16   14.87    0.76
   7   1 -16    0.02    0.03
  -7  -1 -16    0.07    0.04
  -7  -1 -16    0.15    0.06
  -7  -1 -16    0.14    0.09
   7  -1 -16    0.22    0.05
   7  -1 -16    0.04    0.04
   7   1  16    0.10    0.04
  -7   1 -16    0.04    0.07
  -7   1 -16    0.09    0.07
   0   2 -16   38.86    1.90
   0  -2  16   38.07    1.90
   0  -2 -16   40.73    1.92
   1  -2  16    4.16    0.24
   1   2 -16    4.36    0.25
   1  -2 -16    4.37    0.26
   2   2 -16   14.11    0.71
   2  -2  16   12.29    0.68
   2  -2  16   13.38    0.68
   2   2 -16   13.55    0.68
  -2  -2 -16   13.48    0.70
  -2  -2 -16   12.76    0.71
   2  -2  16   13.73    0.69
   2  -2 -16   12.96    0.69
   2  -2 -16   15.84    0.70
  -2  -2  16   13.72    0.69
   2  -2 -16   14.36    0.71
   2  -2 -16   13.67    0.70
   3   2 -16    3.46    0.25
  -3  -2 -16    3.95    0.24
   3  -2  16    4.01    0.22
  -3  -2 -16    3.13    0.28
   3  -2  16    3.52    0.22
   3  -2  16    3.70    0.21
   3   2 -16    3.58    0.21
   3   2 -16    3.96    0.27
   3  -2 -16    3.61    0.22
   3  -2 -16    3.96    0.27
   3  -2 -16    3.56    0.24
  -3  -2  16    3.58    0.23
   3  -2 -16    3.85    0.24
   4   2 -16   24.05    1.21
  -4  -2 -16   24.46    1.23
   4  -2  16   24.12    1.22
   4  -2  16   27.24    1.24
   4  -2  16   24.58    1.21
   4  -2 -16   25.13    1.24
   4  -2 -16   24.09    1.22
   4   2  16   24.76    1.24
   4  -2 -16   24.44    1.23
   5   2 -16   14.95    0.75
  -5  -2 -16   14.24    0.75
  -5  -2 -16   15.71    0.76
   5   2 -16   13.42    0.73
   5  -2  16   14.96    0.74
   5  -2 -16   14.85    0.75
   5   2  16   15.13    0.76
   5  -2 -16   15.38    0.77
   5  -2 -16   14.06    0.74
   6   2 -16    2.11    0.15
   6   2 -16    2.27    0.15
   6  -2  16    2.04    0.14
  -6  -2 -16    2.20    0.16
  -6  -2 -16    2.26    0.15
   6  -2 -16    2.18    0.15
   6  -2 -16    2.21    0.16
   6   2  16    2.19    0.17
   7   2 -16    0.07    0.03
  -7  -2 -16    0.16    0.04
  -7  -2 -16    0.24    0.07
   7   2  16    0.29    0.06
  -7   2 -16    0.28    0.08
   7  -2 -16    0.15    0.04
  -7   2 -16    0.28    0.10
   7  -2 -16    0.19    0.06
   0  -3 -16    0.04    0.06
   0  -3 -16   -0.08    0.10
   0  -3  16    0.07    0.05
   0  -3 -16    0.09    0.10
   0  -3  16    0.03    0.05
   0  -3 -16    0.25    0.11
   0  -3  16    0.05    0.07
   1  -3  16    0.16    0.08
  -1  -3 -16    0.36    0.11
   1  -3  16    0.13    0.06
   1  -3  16    0.30    0.09
   1   3 -16    0.16    0.09
   1  -3  16    0.14    0.05
  -1  -3 -16    0.08    0.10
  -1  -3 -16    0.19    0.13
  -1  -3 -16    0.19    0.13
  -1  -3 -16   -0.04    0.10
   1  -3 -16    0.08    0.05
   1  -3 -16    0.15    0.11
   1  -3 -16    0.18    0.09
   1  -3 -16    0.11    0.11
  -1  -3  16    0.25    0.06
  -1  -3  16    0.14    0.06
   2  -3  16    2.25    0.15
   2   3 -16    2.32    0.20
   2  -3  16    2.51    0.16
  -2  -3 -16    2.34    0.20
   2  -3  16    2.09    0.15
  -2  -3 -16    2.02    0.26
  -2  -3 -16    2.17    0.19
  -2  -3  16    2.22    0.16
   2  -3 -16    2.02    0.22
   2  -3 -16    1.94    0.24
   2  -3 -16    2.09    0.19
  -2  -3  16    2.38    0.16
   2  -3 -16    2.10    0.17
   3  -3  16    8.86    0.45
  -3  -3 -16    9.34    0.48
  -3  -3 -16    8.40    0.50
   3   3 -16    8.90    0.46
   3   3 -16    8.35    0.47
   3  -3  16    8.63    0.46
   3  -3  16    9.11    0.47
   3  -3 -16    8.39    0.47
   3  -3 -16    8.60    0.48
   3  -3 -16    9.06    0.47
  -3  -3  16    9.07    0.47
   4   3 -16    0.61    0.12
   4  -3  16    0.59    0.09
   4  -3  16    0.59    0.08
   4   3 -16    0.61    0.08
  -4  -3 -16    1.10    0.21
  -4  -3 -16    0.50    0.12
  -4  -3 -16    0.51    0.11
   4  -3  16    0.62    0.09
  -4  -3  16    0.62    0.11
   4  -3 -16    0.68    0.10
   4   3  16    0.67    0.12
   4  -3 -16    0.63    0.14
   4  -3 -16    0.47    0.11
  -5  -3 -16    5.95    0.34
   5  -3  16    5.77    0.32
   5   3 -16    6.24    0.34
  -5  -3 -16    5.89    0.32
   5   3 -16    5.63    0.32
   5  -3 -16    6.04    0.33
   5  -3 -16    5.81    0.36
  -5  -3  16    5.60    0.34
   5  -3 -16    6.04    0.33
   5   3  16    6.38    0.35
   6   3 -16   11.49    0.59
   6  -3  16   11.51    0.58
  -6  -3 -16   11.25    0.59
  -6  -3 -16   11.43    0.58
   6   3 -16   11.17    0.58
   6  -3 -16   11.70    0.59
   6   3  16   12.06    0.60
   6  -3 -16   11.41    0.59
   7   3 -16    0.01    0.03
  -7  -3 -16    0.00    0.05
  -7  -3 -16    0.07    0.04
   7  -3 -16    0.18    0.06
   7   3  16    0.05    0.03
   7  -3 -16   -0.02    0.03
   0  -4  16   14.43    0.76
   0  -4 -16   15.69    0.78
   0  -4  16   14.81    0.76
   0  -4 -16   13.51    0.78
   0  -4  16   16.65    0.77
   0  -4 -16   14.20    0.78
   0  -4  16   15.74    0.76
   0  -4 -16   15.89    0.76
   1  -4  16    5.55    0.30
  -1  -4 -16    5.09    0.33
   1   4 -16    5.08    0.34
   1  -4  16    5.29    0.30
  -1  -4 -16    4.42    0.34
  -1  -4 -16    5.48    0.33
   1  -4  16    5.73    0.30
   1  -4  16    5.33    0.30
  -1  -4 -16    4.95    0.33
  -1  -4 -16    5.90    0.31
   1  -4 -16    5.01    0.33
  -1  -4  16    5.75    0.29
   1  -4 -16    5.52    0.30
   1  -4 -16    6.00    0.32
   1   4  16    5.34    0.38
  -1  -4  16    5.56    0.31
  -1  -4  16    5.10    0.30
  -1  -4  16    5.89    0.31
   1  -4 -16    4.80    0.33
   2  -4  16    1.98    0.15
   2  -4  16    2.07    0.14
   2  -4  16    2.01    0.15
  -2  -4 -16    1.92    0.21
   2  -4  16    2.04    0.14
  -2  -4 -16    2.14    0.18
  -2  -4 -16    1.68    0.19
  -2  -4 -16    1.79    0.24
  -2  -4 -16    2.19    0.17
   2  -4 -16    2.30    0.16
   2  -4 -16    1.70    0.19
   2  -4 -16    2.09    0.17
  -2  -4  16    2.14    0.17
   2  -4 -16    1.91    0.22
  -2  -4  16    1.94    0.15
  -2  -4  16    2.25    0.16
   3  -4  16    1.33    0.11
  -3  -4 -16    1.23    0.14
   3  -4  16    1.16    0.11
  -3  -4 -16    1.26    0.18
  -3  -4 -16    0.98    0.18
   3  -4  16    1.23    0.10
  -3  -4  16    1.25    0.12
  -3  -4  16    1.27    0.13
  -3  -4  16    1.11    0.15
   3  -4 -16    1.10    0.16
   3  -4 -16    1.10    0.12
   3  -4 -16    1.09    0.12
  -4  -4 -16    0.27    0.08
   4   4 -16    0.29    0.07
  -4  -4 -16    0.15    0.11
   4   4 -16    0.32    0.08
   4  -4  16    0.25    0.08
   4  -4  16    0.35    0.07
   4  -4  16    0.34    0.08
  -4  -4  16    0.31    0.11
   4  -4 -16    0.30    0.09
   4  -4 -16    0.30    0.09
  -4  -4  16    0.34    0.09
   4  -4 -16    0.25    0.10
  -5  -4 -16    0.11    0.06
   5  -4  16    0.22    0.07
   5  -4  16    0.11    0.06
   5   4 -16    0.15    0.07
   5   4 -16    0.13    0.04
   5  -4 -16    0.13    0.06
  -5  -4  16    0.28    0.10
   5   4  16    0.15    0.06
   5  -4 -16    0.10    0.11
   5  -4 -16    0.11    0.05
   6   4 -16    1.01    0.10
   6   4 -16    1.01    0.09
   6  -4  16    1.01    0.08
  -6  -4 -16    1.04    0.09
  -6  -4 -16    1.00    0.10
   6  -4 -16    1.10    0.09
   6   4  16    1.03    0.10
   6  -4 -16    1.09    0.10
  -7  -4 -16    0.18    0.05
  -7  -4 -16    0.28    0.07
   7   4 -16    0.24    0.05
   7  -4 -16    0.22    0.04
   7   4  16    0.19    0.05
   7  -4 -16    0.25    0.06
   0  -5 -16    0.05    0.11
   0  -5  16   -0.07    0.06
   0  -5 -16   -0.07    0.08
   0  -5 -16   -0.09    0.05
   0  -5  16    0.06    0.05
   0  -5 -16   -0.14    0.07
   0  -5 -16    0.03    0.08
   1  -5  16    6.65    0.35
  -1  -5 -16    7.07    0.37
   1  -5  16    6.49    0.35
  -1  -5 -16    5.93    0.39
   1  -5  16    6.53    0.36
   1  -5  16    6.51    0.35
  -1  -5 -16    7.23    0.39
  -1  -5 -16    6.67    0.38
  -1  -5 -16    6.48    0.39
   1  -5 -16    6.67    0.38
   1  -5 -16    6.79    0.36
  -1  -5  16    6.20    0.34
   1  -5 -16    5.79    0.38
  -1  -5  16    6.24    0.34
  -1  -5  16    6.70    0.36
   1  -5 -16    6.25    0.39
  -2  -5 -16    0.14    0.08
   2  -5  16    0.04    0.05
   2  -5  16    0.09    0.05
   2  -5  16    0.11    0.05
  -2  -5 -16    0.25    0.09
  -2  -5 -16    0.03    0.11
  -2  -5 -16    0.09    0.10
   2  -5  16    0.02    0.05
  -2  -5 -16    0.05    0.06
  -2  -5  16   -0.02    0.06
  -2  -5  16    0.01    0.06
  -2  -5  16    0.12    0.07
   2  -5 -16    0.03    0.07
   2  -5 -16    0.13    0.10
  -2  -5  16    0.10    0.05
   2  -5 -16    0.07    0.05
   2  -5 -16    0.18    0.09
  -3  -5 -16    2.10    0.17
   3  -5  16    2.18    0.14
   3  -5  16    2.15    0.15
  -3  -5 -16    2.04    0.19
   3  -5  16    1.98    0.15
  -3  -5 -16    2.00    0.18
  -3  -5  16    2.45    0.16
   3  -5 -16    1.98    0.19
   3  -5 -16    2.16    0.15
   3  -5 -16    2.12    0.17
  -3  -5  16    2.16    0.17
   4  -5  16    0.27    0.07
   4  -5  16    0.32    0.06
  -4  -5 -16    0.49    0.15
   4   5 -16    0.16    0.07
   4   5 -16    0.23    0.07
   4  -5  16    0.30    0.07
  -4  -5 -16    0.10    0.06
   4  -5 -16    0.25    0.07
   4  -5 -16    0.08    0.10
   4   5  16    0.41    0.10
  -4  -5  16    0.29    0.10
   4  -5 -16    0.17    0.07
  -4  -5  16    0.33    0.10
  -5  -5 -16    0.51    0.09
   5  -5  16    0.61    0.09
   5  -5  16    0.52    0.07
   5   5 -16    0.56    0.06
   5   5 -16    0.45    0.09
  -5  -5  16    0.48    0.11
   5  -5 -16    0.78    0.14
   5  -5 -16    0.67    0.09
   5   5  16    0.62    0.09
  -5  -5  16    0.53    0.12
   5  -5 -16    0.58    0.07
   6  -5  16    0.82    0.07
   6   5 -16    0.83    0.08
  -6  -5 -16    0.91    0.08
   6   5 -16    0.84    0.07
   6  -5 -16    0.88    0.09
   6  -5 -16    0.82    0.07
   6   5  16    0.78    0.08
   0  -6 -16   67.81    3.82
   0  -6 -16   84.75    3.81
   0  -6 -16   85.37    3.82
   0  -6  16   80.19    3.80
   0  -6 -16   75.83    3.82
   0  -6 -16   83.55    3.80
   0  -6  16   74.69    3.81
   0  -6  16   79.34    3.79
   0  -6  16   76.41    3.79
  -1  -6 -16    0.02    0.08
  -1  -6 -16    0.12    0.07
  -1  -6 -16    0.32    0.10
   1  -6  16    0.31    0.07
  -1  -6 -16    0.20    0.09
  -1  -6 -16    0.13    0.09
   1  -6  16    0.31    0.07
   1  -6  16    0.25    0.07
   1  -6  16    0.15    0.06
  -1  -6  16    0.24    0.07
  -1  -6  16    0.27    0.07
  -1  -6  16    0.22    0.07
   1  -6 -16    0.16    0.05
   1  -6 -16    0.04    0.08
   1  -6 -16    0.11    0.08
  -1  -6  16    0.17    0.05
   1  -6 -16    0.20    0.08
   2  -6  16    0.06    0.06
  -2  -6 -16    0.13    0.08
   2  -6  16    0.10    0.05
   2  -6  16    0.21    0.07
   2  -6  16    0.13    0.05
  -2  -6 -16    0.18    0.10
  -2  -6 -16    0.06    0.07
  -2  -6 -16    0.10    0.07
  -2  -6  16    0.04    0.06
  -2  -6  16    0.15    0.06
   2  -6 -16    0.07    0.07
  -2  -6  16    0.00    0.04
   2  -6 -16    0.13    0.09
  -2  -6  16    0.07    0.06
   2  -6 -16    0.07    0.07
   2  -6 -16    0.04    0.04
   3  -6  16    0.03    0.04
   3  -6  16    0.10    0.07
  -3  -6 -16    0.16    0.08
  -3  -6 -16    0.50    0.15
  -3  -6 -16    0.20    0.06
  -3  -6 -16    0.17    0.08
   3  -6  16    0.09    0.05
  -3  -6  16    0.09    0.05
   3  -6 -16    0.04    0.07
   3  -6 -16    0.11    0.07
  -3  -6  16    0.07    0.06
   3  -6 -16    0.16    0.05
  -3  -6  16    0.11    0.07
   4  -6  16    0.87    0.07
   4   6 -16    0.88    0.08
   4  -6  16    0.94    0.08
  -4  -6 -16    0.90    0.10
  -4  -6 -16    0.65    0.12
   4  -6  16    0.87    0.10
   4  -6 -16    0.71    0.13
  -4  -6  16    0.93    0.12
   4   6  16    1.05    0.10
   4  -6 -16    0.85    0.08
   4  -6 -16    0.94    0.11
  -4  -6  16    0.93    0.10
   5  -6  16    2.64    0.15
  -5  -6 -16    2.62    0.16
   5   6 -16    2.95    0.17
   5   6 -16    2.74    0.15
   5   6  16    2.69    0.17
   5  -6 -16    2.63    0.17
   5  -6 -16    2.59    0.15
  -5  -6  16    2.64    0.16
   5   6  16    2.62    0.16
  -5  -6  16    2.17    0.20
   6   6 -16    4.08    0.22
   6  -6  16    4.31    0.22
   6  -6 -16    4.62    0.23
   6   6  16    4.25    0.23
   0  -7 -16    0.01    0.05
   0  -7  16   -0.01    0.04
   0  -7 -16   -0.04    0.07
   0  -7  16    0.07    0.06
   0  -7 -16    0.04    0.07
   0  -7 -16   -0.04    0.07
   0  -7  16   -0.01    0.03
   0  -7  16   -0.04    0.04
   0  -7 -16    0.03    0.08
  -1  -7 -16   11.35    0.64
   1  -7  16   12.42    0.61
  -1  -7 -16   13.09    0.62
   1  -7  16   12.16    0.61
  -1  -7 -16   11.86    0.64
  -1  -7 -16   12.84    0.64
   1  -7  16   12.52    0.61
   1  -7  16   11.45    0.63
   1  -7 -16   13.28    0.64
   1  -7 -16   13.24    0.63
  -1  -7  16   12.53    0.61
   1  -7 -16   10.90    0.63
  -1  -7  16   12.02    0.61
   1  -7 -16   11.07    0.64
  -1  -7  16   12.69    0.62
  -1  -7  16   11.09    0.62
  -2  -7 -16    5.24    0.33
   2  -7  16    6.14    0.31
   2  -7  16    5.83    0.31
  -2  -7 -16    5.62    0.33
   2  -7  16    5.49    0.32
  -2  -7 -16    6.56    0.33
  -2  -7 -16    6.20    0.32
   2  -7  16    6.00    0.30
   2  -7 -16    5.55    0.34
  -2  -7  16    5.74    0.30
   2  -7 -16    5.43    0.31
  -2  -7  16    5.99    0.31
  -2  -7  16    5.59    0.32
  -2  -7  16    5.83    0.30
   2  -7 -16    6.33    0.33
   2  -7 -16    4.72    0.33
  -3  -7 -16    1.55    0.12
  -3  -7 -16    1.30    0.13
   3  -7  16    1.42    0.13
   3  -7  16    1.34    0.10
   3  -7  16    1.35    0.10
  -3  -7 -16    1.53    0.13
  -3  -7 -16    1.47    0.13
   3  -7 -16    1.50    0.11
  -3  -7  16    1.54    0.11
   3  -7 -16    1.49    0.14
  -3  -7  16    1.40    0.13
   3   7  16    1.44    0.12
   3  -7 -16    1.61    0.13
  -3  -7  16    1.54    0.10
  -4  -7 -16   23.09    1.11
   4  -7  16   22.23    1.10
   4   7 -16   22.68    1.10
   4  -7  16   22.67    1.12
  -4  -7 -16   21.65    1.11
   4  -7  16   23.05    1.11
   4   7  16   23.21    1.12
   4  -7 -16   21.90    1.11
   4  -7 -16   22.09    1.12
   4  -7 -16   24.04    1.12
  -4  -7  16   22.25    1.12
  -4  -7  16   23.07    1.10
   5   7 -16    0.71    0.06
   5  -7  16    0.76    0.06
  -5  -7 -16    0.76    0.07
   5  -7 -16    0.83    0.09
   5  -7 -16    0.85    0.07
   5   7  16    0.74    0.07
   0  -8 -16   19.32    0.94
   0  -8  16   18.53    0.92
   0  -8  16   18.93    0.93
   0   8 -16   21.08    0.92
   0  -8  16   19.09    0.92
   0  -8 -16   15.78    0.93
   0  -8  16   18.51    0.92
   0  -8 -16   18.43    0.94
   1  -8  16    2.17    0.13
   1  -8  16    2.07    0.13
  -1  -8 -16    2.15    0.14
  -1  -8 -16    2.17    0.15
   1  -8  16    2.14    0.13
  -1  -8 -16    1.96    0.15
  -1  -8 -16    1.94    0.15
   1  -8  16    2.04    0.15
   1  -8 -16    1.96    0.15
   1  -8 -16    2.18    0.15
  -1  -8  16    2.18    0.13
   1  -8 -16    2.26    0.14
  -1  -8  16    2.27    0.13
   1  -8 -16    1.91    0.15
  -1  -8  16    2.07    0.13
  -1  -8  16    2.19    0.15
  -2  -8 -16   22.03    1.04
  -2  -8 -16   18.91    1.03
   2   8 -16   21.13    1.03
   2  -8  16   21.38    1.04
  -2  -8 -16   21.17    1.03
   2  -8  16   20.56    1.03
  -2  -8 -16   22.61    1.03
   2  -8  16   20.06    1.02
   2  -8 -16   22.39    1.04
  -2  -8  16   21.56    1.02
   2  -8 -16   21.83    1.03
  -2  -8  16   20.82    1.02
  -2  -8  16   20.71    1.04
   2  -8 -16   20.01    1.04
   2  -8 -16   20.51    1.03
  -2  -8  16   20.44    1.03
   3  -8  16    3.98    0.20
  -3  -8 -16    4.29    0.22
  -3  -8 -16    3.73    0.22
   3  -8  16    3.73    0.21
   3   8 -16    3.96    0.21
   3  -8 -16    4.11    0.22
   3  -8 -16    3.89    0.23
   3   8  16    3.97    0.22
  -3  -8  16    3.91    0.21
   3  -8 -16    4.08    0.22
   0  -9  16    0.01    0.02
   0  -9  16    0.01    0.03
   0  -9 -16   -0.03    0.04
   0  -9 -16   -0.02    0.04
   0  -9 -16   -0.04    0.03
  -1  -9 -16    1.52    0.10
  -1  -9 -16    1.56    0.10
   1  -9  16    1.47    0.09
  -1  -9 -16    1.53    0.10
   1   9 -16    1.23    0.10
   1  -9  16    1.57    0.09
   1  -9 -16    1.59    0.10
   1  -9 -16    1.53    0.11
  -1  -9  16    1.54    0.09
  -1  -9  16    1.62    0.09
   1  -9 -16    1.64    0.11
   0   0 -17    0.03    0.06
  -1   0 -17   -0.05    0.07
   1   0 -17   -0.01    0.05
  -2   0 -17    0.06    0.07
   2   0 -17    0.03    0.07
   2   0  17    0.23    0.09
   2   0 -17    0.09    0.06
   3   0  17    0.06    0.08
   3   0 -17   -0.03    0.07
   3   0 -17    0.06    0.06
   3   0 -17    0.12    0.10
  -3   0 -17    0.08    0.08
   4   0 -17   -0.04    0.06
   4   0 -17    0.10    0.08
   4   0  17    0.00    0.07
   4   0  17   -0.07    0.09
   4   0 -17    0.03    0.05
   5   0  17    0.04    0.06
   5   0  17    0.01    0.08
   5   0 -17    0.11    0.05
   5   0 -17    0.01    0.06
  -5   0 -17    0.02    0.07
  -6   0 -17    0.13    0.08
   6   0 -17   -0.01    0.05
   6   0 -17    0.02    0.05
  -6   0 -17    0.03    0.06
   6   0  17    0.14    0.06
   6   0 -17    0.03    0.08
   7   0 -17    0.05    0.03
  -7   0 -17    0.01    0.09
  -7   0 -17   -0.03    0.06
   7   0  17   -0.01    0.04
   7   0 -17    0.03    0.05
   0  -1 -17    0.07    0.07
   0   1 -17    0.19    0.06
   1  -1  17    3.48    0.20
   1   1 -17    3.63    0.21
   1  -1 -17    2.97    0.21
   2  -1  17    5.18    0.28
   2   1 -17    4.99    0.28
   2  -1  17    5.32    0.29
  -2  -1 -17    5.55    0.31
   2   1 -17    5.56    0.31
   2  -1 -17    5.05    0.30
   2  -1 -17    5.14    0.31
   2  -1 -17    5.30    0.30
   3  -1  17    1.95    0.14
   3  -1  17    2.31    0.16
   3   1 -17    2.02    0.20
  -3  -1 -17    2.24    0.21
   3   1 -17    2.54    0.19
   3  -1  17    2.24    0.16
   3   1 -17    2.16    0.14
   3  -1 -17    2.17    0.19
   3  -1 -17    1.90    0.16
  -3   1 -17    2.48    0.17
   3  -1 -17    2.55    0.20
   3   1  17    1.72    0.19
   3  -1 -17    1.99    0.16
   4   1 -17    4.52    0.26
   4  -1  17    4.22    0.26
  -4  -1 -17    4.47    0.27
   4   1 -17    4.60    0.28
  -4  -1 -17    4.72    0.27
   4   1  17    4.38    0.29
   4  -1 -17    4.46    0.27
   4  -1 -17    4.58    0.26
   4  -1 -17    4.73    0.27
   5  -1  17    1.21    0.12
   5   1 -17    1.40    0.12
  -5  -1 -17    1.28    0.13
   5   1 -17    1.50    0.13
  -5  -1 -17    1.66    0.14
   5  -1 -17    1.84    0.15
   5  -1 -17    1.37    0.14
   5   1  17    1.62    0.16
   5  -1 -17    1.36    0.12
   6  -1  17    8.36    0.43
  -6  -1 -17    7.28    0.43
   6   1 -17    7.82    0.42
   6   1 -17    8.22    0.43
  -6  -1 -17    8.42    0.44
  -6   1 -17    8.39    0.43
   6  -1 -17    8.30    0.43
   6  -1 -17    8.31    0.44
   6   1  17    8.78    0.44
  -6   1 -17    7.46    0.43
   6  -1 -17    8.31    0.43
   7   1 -17    1.44    0.10
  -7  -1 -17    1.66    0.12
  -7  -1 -17    1.47    0.10
   7   1  17    1.49    0.11
   7  -1 -17    1.42    0.10
  -7   1 -17    1.41    0.12
   7  -1 -17    1.58    0.11
  -7   1 -17    1.25    0.13
   0  -2  17   40.34    1.81
   0  -2 -17   31.88    1.82
   0  -2 -17   38.31    1.82
   0   2 -17   38.16    1.81
   1  -2  17    6.48    0.34
   1   2 -17    6.57    0.35
   1  -2  17    6.30    0.34
  -1  -2 -17    6.31    0.36
   1   2 -17    6.45    0.34
  -1  -2 -17    6.54    0.36
   1  -2 -17    6.29    0.36
   1  -2 -17    6.39    0.36
  -1  -2  17    6.41    0.34
   1  -2 -17    5.86    0.34
   1  -2 -17    6.19    0.37
   2  -2  17    3.32    0.23
   2  -2  17    4.30    0.22
  -2  -2 -17    3.82    0.26
  -2  -2 -17    3.94    0.24
   2   2 -17    3.77    0.22
  -2  -2 -17    4.08    0.25
   2   2 -17    3.88    0.25
   2  -2  17    3.84    0.22
   2  -2 -17    4.12    0.27
   2  -2 -17    3.33    0.23
   2  -2 -17    3.56    0.23
   2  -2 -17    3.69    0.24
   2  -2 -17    3.37    0.28
  -2  -2  17    3.90    0.23
  -3  -2 -17   16.74    0.93
   3  -2  17   17.93    0.90
   3  -2  17   18.38    0.89
   3   2 -17   17.32    0.91
   3  -2  17   19.22    0.91
  -3  -2 -17   19.51    0.91
   3   2 -17   17.49    0.90
   3  -2 -17   17.25    0.90
   3  -2 -17   19.24    0.92
   3  -2 -17   18.23    0.91
   3  -2 -17   17.61    0.94
  -4  -2 -17    0.21    0.07
   4  -2  17    0.25    0.08
   4  -2  17    0.20    0.06
   4  -2  17    0.16    0.05
   4   2 -17    0.19    0.08
   4   2 -17    0.31    0.07
   4  -2 -17    0.16    0.07
   4   2  17    0.44    0.12
   4  -2 -17    0.16    0.06
   4  -2 -17    0.26    0.08
   5   2 -17    2.64    0.19
  -5  -2 -17    2.69    0.20
   5  -2  17    2.77    0.18
   5   2 -17    2.58    0.17
   5  -2 -17    3.16    0.22
   5  -2 -17    2.81    0.18
   5   2  17    3.01    0.20
   5  -2 -17    2.83    0.19
   6   2 -17    0.07    0.05
  -6  -2 -17    0.14    0.06
   6  -2  17    0.10    0.05
   6   2 -17    0.09    0.05
  -6  -2 -17    0.05    0.04
   6   2  17    0.03    0.05
  -6   2 -17    0.08    0.06
   6  -2 -17    0.04    0.05
   6  -2 -17    0.00    0.04
  -6   2 -17   -0.03    0.05
   6  -2 -17   -0.02    0.10
   7   2 -17    1.53    0.10
  -7  -2 -17    1.45    0.10
  -7  -2 -17    1.57    0.12
   7   2  17    1.61    0.11
   7  -2 -17    1.49    0.10
  -7   2 -17    1.42    0.13
   7  -2 -17    1.64    0.10
   0  -3  17   -0.04    0.05
   0  -3 -17   -0.02    0.06
   0  -3 -17    0.06    0.10
   0  -3 -17    0.07    0.10
   0  -3 -17    0.22    0.10
   0  -3  17    0.09    0.05
   0  -3  17   -0.03    0.09
   0   3 -17    0.04    0.07
   0  -3  17    0.09    0.07
  -1  -3 -17   28.25    1.29
   1  -3  17   23.83    1.26
   1  -3  17   26.45    1.26
  -1  -3 -17   26.83    1.28
   1  -3  17   28.19    1.27
   1   3 -17   27.56    1.29
   1   3 -17   25.14    1.27
   1  -3  17   26.10    1.26
  -1  -3 -17   22.63    1.29
  -1  -3 -17   24.17    1.29
  -1  -3 -17   23.38    1.29
   1  -3 -17   27.16    1.31
  -1  -3  17   25.84    1.28
  -1  -3  17   28.48    1.28
   1  -3 -17   24.98    1.29
   1  -3 -17   26.47    1.27
   1  -3 -17   25.10    1.28
  -1  -3  17   27.32    1.27
   1   3  17   24.84    1.30
   1  -3 -17   23.35    1.29
  -2  -3 -17    0.84    0.26
  -2  -3 -17    1.24    0.14
   2   3 -17    1.61    0.12
  -2  -3 -17    1.07    0.15
  -2  -3 -17    1.32    0.17
   2  -3  17    1.52    0.12
   2   3 -17    1.11    0.21
   2  -3  17    1.37    0.11
   2  -3  17    1.37    0.13
   2  -3 -17    1.21    0.22
   2  -3 -17    1.24    0.13
   2  -3 -17    1.40    0.14
   2  -3 -17    1.50    0.16
  -2  -3  17    1.56    0.13
   2  -3 -17    1.56    0.21
  -2  -3  17    1.54    0.12
   3  -3  17    7.27    0.38
   3   3 -17    6.86    0.40
  -3  -3 -17    6.76    0.42
   3   3 -17    7.11    0.38
  -3  -3 -17    7.54    0.40
   3  -3  17    8.00    0.40
   3  -3  17    7.61    0.38
   3  -3 -17    6.25    0.39
   3  -3 -17    6.97    0.41
  -3  -3  17    7.57    0.40
   4   3 -17    9.78    0.51
   4  -3  17    9.66    0.50
  -4  -3 -17    9.05    0.54
   4   3 -17   10.22    0.50
   4  -3  17    9.32    0.51
  -4  -3 -17    9.81    0.52
   4  -3  17    9.34    0.49
   4  -3 -17    9.94    0.53
   4  -3 -17    9.79    0.51
   4   3  17   10.51    0.52
   4  -3 -17    9.51    0.51
  -4  -3  17    9.45    0.52
  -5  -3 -17   17.94    0.92
   5  -3  17   17.96    0.92
   5   3 -17   18.96    0.93
   5   3 -17   18.21    0.92
  -5  -3 -17   18.87    0.94
   5  -3 -17   18.65    0.95
   5   3  17   19.21    0.94
   5  -3 -17   18.44    0.93
   5  -3 -17   19.22    0.93
   6   3 -17    6.66    0.35
  -6  -3 -17    6.44    0.35
   6   3 -17    6.68    0.36
  -6  -3 -17    7.09    0.37
   6  -3  17    6.92    0.35
   6  -3 -17    6.34    0.35
   6   3  17    6.65    0.36
   6  -3 -17    7.01    0.36
   7   3 -17    7.93    0.40
  -7  -3 -17    7.63    0.39
  -7  -3 -17    7.95    0.40
   7  -3 -17    8.00    0.40
   7   3  17    8.09    0.40
   7  -3 -17    7.91    0.40
   0  -4 -17    7.14    0.39
   0  -4 -17    6.90    0.37
   0  -4  17    7.18    0.37
   0  -4 -17    6.32    0.40
   0  -4  17    6.93    0.37
   0  -4 -17    6.44    0.40
   0  -4  17    7.30    0.38
   0  -4  17    6.89    0.37
  -1  -4 -17   33.54    1.54
  -1  -4 -17   30.66    1.54
  -1  -4 -17   31.15    1.55
  -1  -4 -17   28.80    1.55
   1  -4  17   32.20    1.53
   1  -4  17   30.34    1.53
  -1  -4 -17   28.46    1.55
   1  -4  17   32.68    1.53
   1  -4  17   33.31    1.54
   1  -4 -17   26.46    1.55
   1   4  17   31.31    1.59
  -1  -4  17   32.87    1.53
   1  -4 -17   29.79    1.55
  -1  -4  17   30.99    1.53
   1  -4 -17   31.72    1.54
  -1  -4  17   35.11    1.54
   1  -4 -17   32.99    1.53
  -1  -4  17   30.27    1.53
  -2  -4 -17    0.09    0.07
  -2  -4 -17    0.18    0.09
  -2  -4 -17    0.10    0.09
   2  -4  17    0.08    0.05
   2  -4  17    0.07    0.04
   2  -4  17    0.08    0.05
  -2  -4 -17    0.15    0.11
   2  -4  17    0.24    0.08
  -2  -4 -17    0.63    0.21
   2  -4 -17    0.00    0.11
   2  -4 -17    0.19    0.07
   2  -4 -17    0.10    0.05
  -2  -4  17    0.12    0.06
  -2  -4  17    0.05    0.05
   2  -4 -17    0.24    0.09
  -2  -4  17    0.16    0.09
  -3  -4 -17   21.03    1.13
   3   4 -17   22.84    1.11
  -3  -4 -17   23.42    1.13
   3  -4  17   22.61    1.10
  -3  -4 -17   22.83    1.13
   3  -4  17   22.38    1.11
   3  -4  17   22.71    1.12
   3  -4 -17   22.52    1.12
  -3  -4  17   22.85    1.12
  -3  -4  17   21.47    1.11
   3  -4 -17   22.99    1.12
   3  -4 -17   22.18    1.14
   4   4 -17   19.41    0.96
   4  -4  17   19.79    0.96
   4   4 -17   19.41    0.97
   4  -4  17   20.87    0.97
   4  -4  17   17.93    0.97
  -4  -4 -17   21.00    0.99
  -4  -4 -17   18.10    0.99
  -4  -4  17   18.56    0.98
   4   4  17   20.70    0.98
   4  -4 -17   19.36    0.97
   4  -4 -17   19.45    0.97
   4  -4 -17   18.85    0.99
   5   4 -17    3.05    0.17
   5   4 -17    3.17    0.19
  -5  -4 -17    2.92    0.19
   5  -4  17    2.94    0.18
  -5  -4  17    2.32    0.22
   5   4  17    3.20    0.20
   5  -4 -17    2.86    0.22
   5  -4 -17    2.79    0.18
   5  -4 -17    2.97    0.19
  -6  -4 -17    6.51    0.34
   6   4 -17    6.32    0.33
  -6  -4 -17    6.08    0.32
   6  -4  17    6.37    0.33
   6   4 -17    6.24    0.33
   6  -4 -17    5.99    0.33
   6  -4 -17    6.60    0.34
   6   4  17    6.65    0.34
  -7  -4 -17    2.19    0.14
   7   4 -17    2.32    0.13
   7   4  17    2.27    0.13
   7  -4 -17    2.47    0.14
   0  -5 -17    0.05    0.05
   0  -5 -17   -0.01    0.08
   0  -5  17   -0.02    0.06
   0  -5 -17    0.01    0.08
   0  -5  17    0.11    0.04
   0  -5  17   -0.02    0.05
   0  -5 -17    0.12    0.08
   0  -5  17   -0.01    0.05
   1  -5  17    6.35    0.35
   1  -5  17    6.54    0.35
   1  -5  17    6.40    0.34
  -1  -5 -17    6.99    0.36
  -1  -5 -17    6.36    0.37
   1  -5  17    6.80    0.35
  -1  -5 -17    5.91    0.38
  -1  -5 -17    5.82    0.38
  -1  -5 -17    6.90    0.38
   1  -5 -17    6.43    0.35
  -1  -5  17    6.14    0.34
  -1  -5  17    6.57    0.35
  -1  -5  17    6.25    0.34
   1  -5 -17    6.43    0.38
  -1  -5  17    6.73    0.36
   1  -5 -17    6.60    0.37
   1  -5 -17    5.70    0.38
  -2  -5 -17    0.02    0.08
   2  -5  17    0.08    0.05
  -2  -5 -17    0.18    0.10
  -2  -5 -17    0.06    0.11
   2  -5  17    0.08    0.04
   2  -5  17    0.06    0.06
   2  -5  17    0.05    0.05
  -2  -5 -17    0.13    0.09
  -2  -5  17    0.05    0.08
  -2  -5  17    0.10    0.05
   2  -5 -17    0.06    0.10
   2  -5 -17    0.15    0.05
  -2  -5  17    0.09    0.06
   2  -5 -17   -0.05    0.08
   2  -5 -17    0.06    0.07
  -2  -5  17    0.13    0.07
  -3  -5 -17   10.71    0.56
   3  -5  17    9.89    0.56
  -3  -5 -17   11.01    0.56
  -3  -5 -17    9.69    0.57
   3  -5  17   10.58    0.54
   3  -5  17   11.04    0.55
  -3  -5  17   10.82    0.55
   3  -5 -17   11.01    0.55
  -3  -5  17   10.85    0.56
   3  -5 -17    9.65    0.57
  -3  -5  17   11.72    0.54
   3  -5 -17   10.79    0.56
   4  -5  17   13.69    0.78
   4  -5  17   15.79    0.77
   4   5 -17   15.64    0.77
  -4  -5 -17   15.82    0.78
  -4  -5 -17   14.37    0.78
   4  -5  17   15.60    0.76
   4   5 -17   15.75    0.76
  -4  -5  17   14.78    0.78
   4  -5 -17   15.83    0.77
   4   5  17   16.30    0.78
  -4  -5  17   15.17    0.77
   4  -5 -17   14.67    0.79
   4  -5 -17   15.79    0.78
   5  -5  17    9.58    0.49
  -5  -5 -17    9.74    0.51
   5   5 -17    9.95    0.49
   5   5 -17   10.18    0.50
   5  -5 -17    8.80    0.51
   5   5  17   10.33    0.51
  -5  -5  17    9.70    0.52
   5  -5 -17    9.87    0.50
   5  -5 -17    9.57    0.50
   6   5 -17    0.36    0.05
  -6  -5 -17    0.34    0.06
   6   5 -17    0.31    0.06
   6  -5  17    0.30    0.05
   6  -5 -17    0.28    0.05
   6  -5 -17    0.33    0.07
   6   5  17    0.36    0.06
   0  -6  17   19.63    0.94
   0  -6 -17   17.33    0.97
   0  -6  17   18.74    0.93
   0  -6 -17   17.04    0.96
   0  -6  17   19.25    0.94
   0  -6 -17   19.79    0.95
   0  -6 -17   20.66    0.97
   0  -6  17   18.83    0.95
  -1  -6 -17   13.57    0.67
  -1  -6 -17   11.60    0.68
  -1  -6 -17   14.21    0.68
   1  -6  17   13.08    0.66
  -1  -6 -17   12.40    0.69
   1  -6  17   13.88    0.66
   1  -6  17   12.58    0.67
   1  -6  17   12.86    0.66
  -1  -6 -17   14.22    0.69
  -1  -6  17   13.21    0.65
  -1  -6  17   12.70    0.67
  -1  -6  17   13.31    0.66
   1  -6 -17   12.36    0.69
   1  -6 -17   13.57    0.68
  -1  -6  17   13.64    0.66
   1  -6 -17   13.51    0.67
   1  -6 -17   11.30    0.68
   2  -6  17    3.27    0.22
  -2  -6 -17    3.95    0.25
   2  -6  17    3.77    0.21
  -2  -6 -17    3.75    0.23
   2  -6  17    3.64    0.21
  -2  -6 -17    3.96    0.24
   2  -6  17    3.51    0.20
  -2  -6  17    3.72    0.22
  -2  -6  17    3.53    0.21
  -2  -6  17    3.56    0.21
   2  -6 -17    3.52    0.21
   2  -6 -17    3.34    0.25
  -2  -6  17    3.27    0.22
   2  -6 -17    3.57    0.25
   2  -6 -17    3.60    0.23
   3  -6  17    9.53    0.48
  -3  -6 -17   10.17    0.50
   3  -6  17    9.05    0.50
  -3  -6 -17    9.34    0.50
   3   6 -17   10.15    0.49
  -3  -6 -17    8.83    0.51
   3  -6  17   10.03    0.49
  -3  -6 -17    8.73    0.51
  -3  -6  17    9.06    0.50
  -3  -6  17    9.90    0.48
   3  -6 -17    9.75    0.50
   3  -6 -17    9.04    0.51
   3  -6 -17    9.41    0.49
  -3  -6  17   10.10    0.49
  -4  -6 -17    0.58    0.08
   4  -6  17    0.57    0.09
   4  -6  17    0.57    0.06
   4  -6  17    0.59    0.07
   4   6 -17    0.66    0.07
  -4  -6 -17    0.39    0.11
   4  -6 -17    0.53    0.09
  -4  -6  17    0.45    0.11
  -4  -6  17    0.56    0.09
   4  -6 -17    0.69    0.12
   4   6  17    0.53    0.08
   4  -6 -17    0.57    0.07
   5  -6  17    0.04    0.03
  -5  -6 -17    0.01    0.04
   5   6 -17    0.07    0.03
   5  -6 -17    0.04    0.05
   5  -6 -17    0.06    0.03
   5   6  17    0.10    0.04
   0  -7  17    0.01    0.04
   0  -7  17    0.01    0.04
   0  -7 -17    0.18    0.07
   0  -7 -17   -0.03    0.04
   0  -7 -17   -0.03    0.06
   0  -7 -17   -0.07    0.06
   0  -7  17   -0.03    0.06
   0  -7  17    0.02    0.04
   1  -7  17    2.03    0.13
   1  -7  17    1.98    0.13
   1  -7  17    2.03    0.13
  -1  -7 -17    1.99    0.17
   1  -7  17    1.65    0.14
  -1  -7 -17    2.03    0.16
  -1  -7 -17    1.66    0.16
  -1  -7 -17    2.06    0.15
   1  -7 -17    1.89    0.17
   1  -7 -17    2.08    0.16
   1  -7 -17    1.99    0.14
  -1  -7  17    1.76    0.14
  -1  -7  17    1.86    0.12
  -1  -7  17    1.77    0.13
  -1  -7  17    1.96    0.13
  -2  -7 -17   -0.01    0.05
   2  -7  17    0.04    0.03
  -2  -7 -17    0.01    0.05
  -2  -7 -17   -0.09    0.07
  -2  -7 -17    0.09    0.06
   2  -7  17    0.08    0.03
   2  -7  17    0.03    0.04
   2  -7  17   -0.03    0.06
   2  -7 -17    0.04    0.07
  -2  -7  17    0.06    0.06
  -2  -7  17    0.23    0.06
   2  -7 -17    0.05    0.04
   2  -7 -17    0.04    0.07
  -2  -7  17   -0.01    0.03
  -2  -7  17   -0.02    0.05
   2  -7 -17    0.04    0.06
  -3  -7 -17    2.24    0.17
   3   7 -17    2.62    0.15
  -3  -7 -17    2.83    0.17
   3  -7  17    2.58    0.15
  -3  -7 -17    2.77    0.17
  -3  -7 -17    2.36    0.18
   3  -7  17    2.58    0.18
   3  -7  17    2.50    0.15
   3  -7 -17    2.79    0.18
   3  -7 -17    2.52    0.16
  -3  -7  17    2.85    0.18
   3   7  17    2.72    0.17
  -3  -7  17    2.62    0.16
   3  -7 -17    2.63    0.17
   4   7 -17    3.38    0.18
   4  -7  17    3.38    0.18
  -4  -7 -17    3.58    0.19
   4  -7  17    3.35    0.18
   4  -7  17    2.95    0.22
  -4  -7 -17    3.33    0.20
   4  -7 -17    3.34    0.19
   4  -7 -17    3.44    0.21
  -4  -7  17    3.60    0.19
   4  -7 -17    3.65    0.20
   4   7  17    3.51    0.20
   0  -8 -17    0.93    0.10
   0   8 -17    1.09    0.10
   0  -8  17    0.95    0.07
   0  -8 -17    0.91    0.10
   0  -8  17    0.91    0.07
   0  -8 -17    0.94    0.10
   0  -8  17    0.90    0.10
   0  -8  17    0.97    0.07
  -1  -8 -17    3.64    0.23
   1  -8  17    3.92    0.21
   1  -8  17    3.99    0.21
  -1  -8 -17    4.08    0.23
  -1  -8 -17    3.97    0.22
   1  -8  17    3.91    0.23
  -1  -8 -17    3.85    0.23
   1   8 -17    4.33    0.22
   1  -8  17    3.86    0.21
   1  -8 -17    3.82    0.23
  -1  -8  17    4.19    0.21
  -1  -8  17    4.14    0.22
   1  -8 -17    3.98    0.22
   1  -8 -17    3.88    0.23
  -1  -8  17    4.07    0.21
  -1  -8  17    4.15    0.24
   1  -8 -17    3.97    0.23
  -2  -8 -17    0.43    0.07
   2   8 -17    0.46    0.05
  -2  -8 -17    0.49    0.06
   2  -8  17    0.47    0.05
  -2  -8 -17    0.48    0.07
  -2  -8 -17    0.39    0.08
   2  -8  17    0.44    0.05
   2  -8  17    0.65    0.10
   2  -8 -17    0.57    0.08
   2  -8 -17    0.55    0.09
   2  -8 -17    0.63    0.07
  -2  -8  17    0.46    0.10
   2  -8 -17    0.40    0.08
  -2  -8  17    0.39    0.06
  -2  -8  17    0.44    0.05
   2   8  17    0.54    0.07
  -2  -8  17    0.33    0.06
  -3  -8 -17    0.01    0.03
   3  -8  17    0.01    0.03
  -3  -8 -17   -0.05    0.04
   3  -8  17    0.03    0.02
   3   8 -17    0.06    0.03
   3  -8 -17    0.09    0.05
   3  -8 -17    0.03    0.04
   3  -8 -17    0.10    0.05
   3   8  17   -0.04    0.04
  -3  -8  17    0.01    0.03
   0  -9 -17   -0.04    0.04
   0  -9  17    0.04    0.03
   0  -9 -17    0.02    0.04
   0   0 -18    0.04    0.05
   0   0 -18    0.01    0.07
   1   0 -18   24.41    1.24
   1   0 -18   26.07    1.24
   1   0 -18   24.86    1.23
  -1   0 -18   25.47    1.23
   2   0 -18   13.56    0.68
   2   0 -18   13.45    0.66
   2   0 -18   12.54    0.67
  -2   0 -18   12.97    0.66
   2   0 -18   12.92    0.66
   3   0 -18  162.56    8.20
   3   0 -18  169.08    8.22
   3   0 -18  176.00    8.21
   3   0  18  170.55    8.20
  -3   0 -18  175.98    8.21
   4   0 -18   43.16    2.10
   4   0  18   42.32    2.10
   4   0  18   42.37    2.12
   4   0 -18   45.26    2.11
  -5   0 -18    0.26    0.08
   5   0 -18    0.08    0.05
  -5   0 -18    0.14    0.06
   5   0  18    0.16    0.08
   5   0 -18    0.11    0.06
   5   0  18    0.18    0.06
   5   0 -18    0.11    0.07
   6   0 -18    2.24    0.16
  -6   0 -18    2.80    0.17
   6   0 -18    2.30    0.17
   6   0 -18    2.35    0.16
  -6   0 -18    2.20    0.17
   6   0  18    2.43    0.17
   7   0  18    4.87    0.28
   7   0 -18    5.33    0.28
   7   0 -18    5.34    0.28
  -7   0 -18    5.62    0.28
   0  -1 -18    0.05    0.08
   0   1 -18   -0.04    0.07
   0  -1 -18    0.09    0.06
   1   1 -18   18.83    0.96
   1  -1  18   18.97    0.96
   1  -1  18   18.22    0.96
  -1  -1 -18   20.71    0.97
   1   1 -18   19.36    0.97
   1  -1 -18   20.81    0.98
   1  -1 -18   20.54    0.97
   1  -1 -18   19.00    0.97
   2  -1  18    1.11    0.18
  -2  -1 -18    1.26    0.14
   2   1 -18    1.37    0.15
   2  -1  18    1.27    0.11
   2   1 -18    1.23    0.11
   2  -1  18    1.31    0.12
   2  -1 -18    1.24    0.17
   2  -1 -18    1.22    0.15
   2  -1 -18    1.16    0.15
   2  -1 -18    1.37    0.12
   2  -1 -18    1.13    0.14
   3   1 -18   37.95    1.88
  -3  -1 -18   39.17    1.90
   3   1 -18   37.09    1.91
   3   1 -18   40.82    1.90
   3  -1  18   37.58    1.88
   3  -1  18   41.90    1.89
   3  -1 -18   36.46    1.92
   3  -1 -18   38.79    1.89
   3  -1 -18   37.99    1.89
  -3   1 -18   39.32    1.89
   3  -1 -18   39.51    1.89
   4   1 -18    0.38    0.08
   4   1 -18    0.75    0.11
   4  -1  18    0.52    0.10
  -4  -1 -18    0.63    0.10
   4  -1 -18    0.54    0.12
   4  -1 -18    0.56    0.10
   4  -1 -18    0.46    0.09
   4   1  18    0.54    0.14
   5  -1  18   38.65    1.91
  -5  -1 -18   39.92    1.92
   5   1 -18   38.86    1.91
   5   1 -18   40.61    1.92
  -5  -1 -18   35.03    1.91
   5   1  18   41.75    1.93
   5  -1 -18   37.48    1.92
   5  -1 -18   42.63    1.93
   5  -1 -18   38.84    1.92
  -6  -1 -18    0.26    0.10
   6   1 -18    0.27    0.07
  -6  -1 -18    0.35    0.08
   6   1 -18    0.30    0.09
   6  -1 -18    0.43    0.08
   6  -1 -18    0.14    0.09
  -6   1 -18    0.25    0.08
   6  -1 -18    0.30    0.07
  -6   1 -18    0.26    0.08
   6   1  18    0.19    0.06
  -7  -1 -18   28.51    1.40
  -7  -1 -18   30.01    1.41
   7   1 -18   29.21    1.41
   7  -1 -18   28.81    1.40
  -7   1 -18   29.51    1.40
   7  -1 -18   27.53    1.40
   7   1  18   28.65    1.40
   0  -2  18    7.69    0.38
   0  -2 -18    7.67    0.41
   0  -2  18    6.53    0.38
   0   2 -18    6.24    0.38
   0  -2 -18    7.65    0.41
   0  -2 -18    7.00    0.39
   0  -2 -18    7.07    0.40
  -1  -2 -18   77.53    3.99
   1  -2  18   82.72    3.97
  -1  -2 -18   79.47    3.98
  -1  -2 -18   85.79    3.98
   1   2 -18   82.83    3.97
   1  -2  18   85.71    3.98
   1   2 -18   84.38    3.98
  -1  -2 -18   84.07    3.99
   1  -2 -18   83.76    3.98
   1  -2 -18   76.13    3.98
   1  -2 -18   82.01    3.97
   1  -2 -18   85.16    3.99
  -1  -2  18   84.77    3.97
   1  -2 -18   79.71    3.99
  -2  -2 -18    4.99    0.30
   2  -2  18    5.49    0.29
  -2  -2 -18    5.23    0.31
   2  -2  18    4.77    0.29
   2  -2  18    5.06    0.28
   2   2 -18    5.37    0.33
   2   2 -18    5.12    0.28
   2  -2 -18    5.05    0.33
   2  -2 -18    5.17    0.29
   2  -2 -18    4.80    0.33
   2  -2 -18    5.01    0.30
   2  -2 -18    5.09    0.30
   3  -2  18    0.18    0.06
   3   2 -18    0.08    0.09
  -3  -2 -18    0.15    0.11
   3  -2  18    0.16    0.06
   3   2 -18    0.25    0.07
  -3  -2 -18    0.23    0.07
   3  -2  18    0.32    0.07
   3  -2 -18    0.14    0.06
   3  -2 -18    0.08    0.06
  -3   2 -18    0.09    0.06
   3  -2 -18    0.18    0.07
   4   2 -18    1.57    0.12
   4  -2  18    1.63    0.13
  -4  -2 -18    1.79    0.15
   4  -2  18    1.67    0.13
   4   2 -18    1.55    0.15
   4   2  18    1.69    0.16
   4  -2 -18    1.50    0.13
   4  -2 -18    1.41    0.15
   4  -2 -18    1.41    0.14
   5   2 -18    0.48    0.08
   5  -2  18    0.57    0.08
   5   2 -18    0.41    0.09
  -5  -2 -18    0.64    0.10
   5   2  18    0.66    0.11
   5  -2 -18    0.46    0.12
   5  -2 -18    0.53    0.10
   5  -2 -18    0.50    0.08
  -6  -2 -18    7.34    0.39
   6   2 -18    7.63    0.39
   6   2 -18    7.54    0.40
   6  -2  18    7.44    0.39
  -6  -2 -18    7.77    0.40
   6   2  18    7.99    0.40
  -6   2 -18    7.06    0.40
  -6   2 -18    7.54    0.39
   6  -2 -18    7.97    0.42
   6  -2 -18    7.50    0.39
   6  -2 -18    7.53    0.40
  -7  -2 -18    0.02    0.03
  -7  -2 -18    0.07    0.05
   7   2 -18    0.03    0.03
   7  -2 -18    0.01    0.03
   7   2  18   -0.01    0.03
   7  -2 -18   -0.01    0.03
  -7   2 -18    0.03    0.06
   0  -3 -18   -0.09    0.09
   0  -3 -18    0.01    0.06
   0  -3  18    0.03    0.05
   0   3 -18   -0.08    0.07
   0  -3 -18    0.11    0.10
   0  -3 -18    0.08    0.09
   0  -3  18    0.02    0.06
   0  -3  18    0.09    0.06
   0  -3  18   -0.12    0.09
  -1  -3 -18    8.20    0.42
   1  -3  18    7.90    0.41
   1   3 -18    7.91    0.45
  -1  -3 -18    7.38    0.45
  -1  -3 -18    7.68    0.44
   1  -3  18    8.23    0.42
   1   3 -18    7.94    0.41
  -1  -3 -18    8.12    0.44
  -1  -3 -18    7.20    0.45
   1  -3  18    7.51    0.41
  -1  -3  18    8.23    0.41
  -1  -3  18    8.39    0.42
   1  -3 -18    7.83    0.47
   1  -3 -18    7.45    0.44
   1  -3 -18    7.25    0.42
   1   3  18    7.40    0.46
   1  -3 -18    7.91    0.44
   1  -3 -18    7.99    0.42
  -2  -3 -18    8.35    0.49
   2   3 -18    9.43    0.47
   2   3 -18    8.08    0.52
  -2  -3 -18    9.29    0.48
  -2  -3 -18   10.03    0.49
   2  -3  18    9.28    0.46
   2  -3  18    8.60    0.47
   2  -3  18    9.27    0.47
  -2  -3  18    9.46    0.48
   2  -3 -18    8.27    0.47
   2  -3 -18    9.08    0.49
   2  -3 -18    8.94    0.47
   2  -3 -18    8.39    0.50
   3  -3  18    0.71    0.09
   3   3 -18    0.58    0.09
  -3  -3 -18    0.77    0.12
   3  -3  18    0.51    0.08
  -3  -3 -18    0.54    0.16
   3  -3  18    0.60    0.09
   3   3 -18    0.50    0.11
   3  -3 -18    0.70    0.13
   3  -3 -18    0.69    0.10
  -3  -3  18    0.55    0.13
   3  -3 -18    0.59    0.10
   4   3 -18    1.42    0.11
  -4  -3 -18    1.30    0.21
   4   3 -18    1.04    0.14
  -4  -3 -18    1.33    0.13
   4  -3  18    1.19    0.11
   4  -3  18    1.06    0.12
   4  -3  18    1.11    0.10
   4   3  18    1.35    0.14
   4  -3 -18    1.36    0.15
   4  -3 -18    1.26    0.12
   4  -3 -18    1.31    0.12
  -5  -3 -18    4.35    0.26
   5  -3  18    4.25    0.24
   5   3 -18    4.43    0.26
   5   3 -18    4.25    0.24
  -5  -3 -18    4.29    0.25
   5  -3 -18    4.33    0.25
   5  -3 -18    4.54    0.28
   5  -3 -18    4.42    0.25
   5   3  18    4.56    0.27
   6   3 -18    1.12    0.09
  -6  -3 -18    1.08    0.09
   6  -3  18    1.09    0.08
   6   3 -18    0.89    0.09
  -6  -3 -18    1.03    0.10
   6  -3 -18    1.00    0.09
   6  -3 -18    0.94    0.09
   6   3  18    0.99    0.10
  -7  -3 -18    3.31    0.18
   7   3 -18    2.91    0.17
  -7  -3 -18    3.20    0.17
   7   3  18    3.41    0.17
   7  -3 -18    2.84    0.17
   7  -3 -18    3.14    0.17
   0   4 -18   12.54    0.67
   0  -4  18   13.36    0.67
   0  -4 -18   13.56    0.67
   0  -4  18   13.31    0.67
   0  -4  18   12.99    0.66
   0  -4  18   14.57    0.68
   0  -4 -18   12.93    0.70
   0  -4 -18   13.08    0.69
   0  -4 -18   12.50    0.69
   1  -4  18   11.46    0.57
  -1  -4 -18   10.13    0.60
   1  -4  18   12.18    0.58
  -1  -4 -18   11.51    0.59
   1  -4  18    9.12    0.56
  -1  -4 -18   11.09    0.59
   1  -4  18   12.35    0.57
  -1  -4 -18   10.10    0.57
   1  -4 -18   11.64    0.59
   1  -4 -18    9.87    0.57
  -1  -4  18   11.47    0.57
  -1  -4  18   11.70    0.57
  -1  -4  18   12.59    0.58
   1  -4 -18   10.74    0.60
  -1  -4  18   10.98    0.57
   2  -4  18   23.89    1.12
   2   4 -18   22.40    1.12
  -2  -4 -18   23.32    1.13
   2  -4  18   22.99    1.13
  -2  -4 -18   24.45    1.14
  -2  -4 -18   23.78    1.14
  -2  -4 -18   20.15    1.15
  -2  -4 -18   20.00    1.14
   2  -4  18   22.95    1.12
   2  -4 -18   22.80    1.13
  -2  -4  18   24.20    1.13
   2  -4 -18   19.36    1.14
   2  -4 -18   23.51    1.15
  -2  -4  18   23.91    1.12
   2  -4 -18   23.22    1.13
   3  -4  18    5.65    0.31
  -3  -4 -18    5.85    0.33
  -3  -4 -18    5.39    0.34
   3  -4  18    5.70    0.30
   3  -4  18    5.34    0.32
   3   4 -18    5.64    0.31
  -3  -4 -18    5.06    0.34
   3  -4 -18    5.78    0.32
   3  -4 -18    5.96    0.34
  -3  -4  18    5.80    0.33
   3  -4 -18    5.71    0.31
   4   4 -18    0.56    0.08
   4  -4  18    0.49    0.09
   4  -4  18    0.67    0.08
  -4  -4 -18    0.58    0.17
   4   4 -18    0.52    0.12
   4  -4  18    0.54    0.07
  -4  -4 -18    0.75    0.11
  -4  -4  18    0.47    0.14
   4  -4 -18    0.68    0.13
   4  -4 -18    0.44    0.09
   4  -4 -18    0.54    0.09
   4   4  18    0.63    0.10
   5  -4  18    0.63    0.07
   5   4 -18    0.50    0.06
   5   4 -18    0.42    0.09
  -5  -4 -18    0.72    0.09
   5  -4 -18    0.54    0.08
   5  -4 -18    0.79    0.13
   5  -4 -18    0.63    0.08
   5   4  18    0.49    0.09
   6   4 -18    0.04    0.04
   6   4 -18    0.00    0.03
   6  -4  18   -0.05    0.03
  -6  -4 -18    0.08    0.04
   6  -4 -18   -0.01    0.03
   6  -4 -18    0.07    0.04
   6   4  18    0.01    0.03
   0  -5 -18    0.04    0.05
   0  -5  18    0.02    0.04
   0  -5  18   -0.04    0.06
   0  -5  18   -0.01    0.05
   0  -5 -18    0.02    0.08
   0  -5 -18    0.13    0.08
   0  -5  18    0.04    0.05
   0  -5 -18    0.07    0.08
  -1  -5 -18   10.05    0.50
   1  -5  18    9.81    0.49
   1  -5  18    9.38    0.50
  -1  -5 -18    9.04    0.52
   1  -5  18    9.39    0.48
  -1  -5 -18    9.75    0.51
   1  -5  18    9.04    0.48
  -1  -5 -18   10.17    0.51
  -1  -5 -18    8.27    0.51
   1  -5 -18    9.65    0.50
   1  -5 -18    8.06    0.51
   1  -5 -18    9.03    0.52
  -1  -5  18    9.12    0.48
   1  -5 -18    9.59    0.49
  -1  -5  18    9.84    0.50
  -1  -5  18    9.69    0.49
  -1  -5  18    9.46    0.48
   2  -5  18   14.44    0.70
   2  -5  18   13.78    0.72
  -2  -5 -18   12.18    0.73
   2  -5  18   14.58    0.71
   2  -5  18   14.29    0.71
  -2  -5 -18   15.19    0.73
  -2  -5 -18   13.32    0.74
  -2  -5 -18   15.20    0.73
  -2  -5  18   14.39    0.72
   2  -5 -18   11.92    0.73
   2  -5 -18   14.61    0.71
   2  -5 -18   14.34    0.73
  -2  -5  18   14.30    0.71
   2  -5 -18   13.87    0.74
  -2  -5  18   14.54    0.71
   3  -5  18    1.84    0.13
  -3  -5 -18    2.21    0.19
  -3  -5 -18    2.11    0.18
   3  -5  18    2.03    0.14
   3  -5  18    1.82    0.15
  -3  -5 -18    2.17    0.16
   3   5 -18    2.13    0.14
   3  -5 -18    1.89    0.15
  -3  -5  18    2.11    0.16
   3  -5 -18    1.92    0.14
  -3  -5  18    1.94    0.16
   3  -5 -18    1.86    0.18
   4  -5  18    4.06    0.26
   4  -5  18    4.47    0.24
   4   5 -18    4.50    0.27
  -4  -5 -18    3.68    0.27
  -4  -5 -18    4.72    0.26
   4   5 -18    4.55    0.24
   4  -5  18    4.75    0.25
   4   5  18    4.50    0.26
   4  -5 -18    4.51    0.28
  -4  -5  18    4.12    0.27
   4  -5 -18    4.43    0.26
   4  -5 -18    4.46    0.25
   5   5 -18    2.58    0.16
  -5  -5 -18    2.27    0.16
   5   5 -18    2.49    0.14
   5  -5  18    2.47    0.15
   5   5  18    2.52    0.16
   5  -5 -18    2.54    0.19
   5  -5 -18    2.61    0.16
   5  -5 -18    2.26    0.15
   6   5 -18    0.00    0.03
   6   5 -18    0.07    0.05
  -6  -5 -18   -0.01    0.03
   6  -5  18   -0.04    0.03
   6  -5 -18    0.01    0.02
   6   5  18    0.01    0.03
  -6   5 -18   -0.01    0.05
   6  -5 -18    0.00    0.04
   0  -6  18    1.47    0.13
   0  -6 -18    1.58    0.15
   0  -6  18    1.55    0.12
   0  -6 -18    1.35    0.16
   0  -6 -18    1.63    0.16
   0  -6 -18    1.51    0.13
   0  -6  18    1.49    0.11
   0  -6  18    1.55    0.12
   1  -6  18    2.73    0.19
  -1  -6 -18    2.76    0.20
  -1  -6 -18    2.99    0.19
  -1  -6 -18    2.16    0.20
   1  -6  18    2.96    0.17
  -1  -6 -18    2.86    0.19
  -1  -6 -18    2.62    0.21
   1  -6  18    2.92    0.17
   1  -6  18    2.78    0.17
  -1  -6  18    2.71    0.17
  -1  -6  18    3.10    0.18
   1  -6 -18    2.13    0.20
   1  -6 -18    2.56    0.21
  -1  -6  18    2.75    0.19
   1  -6 -18    2.87    0.18
  -1  -6  18    2.75    0.17
   1  -6 -18    2.69    0.20
  -2  -6 -18    0.31    0.09
   2  -6  18    0.34    0.08
  -2  -6 -18    0.38    0.11
   2  -6  18    0.21    0.07
  -2  -6 -18    0.39    0.10
   2  -6  18    0.29    0.06
  -2  -6 -18    0.22    0.07
  -2  -6  18    0.31    0.08
  -2  -6  18    0.35    0.06
   2  -6 -18    0.48    0.14
  -2  -6  18    0.17    0.07
   2  -6 -18    0.31    0.08
   2  -6 -18    0.21    0.08
   2  -6 -18    0.55    0.10
  -2  -6  18    0.36    0.09
   3  -6  18   15.52    0.86
  -3  -6 -18   16.70    0.86
   3  -6  18   17.76    0.85
   3  -6  18   17.75    0.85
  -3  -6 -18   18.54    0.87
   3   6 -18   18.28    0.85
  -3  -6  18   16.57    0.87
   3  -6 -18   17.94    0.87
   3  -6 -18   16.56    0.85
  -3  -6  18   16.81    0.85
   3  -6 -18   16.85    0.88
   4  -6  18    0.13    0.06
   4  -6  18    0.16    0.04
  -4  -6 -18    0.15    0.07
   4   6 -18    0.23    0.05
   4  -6  18    0.18    0.04
  -4  -6 -18    0.20    0.05
  -4  -6  18    0.14    0.09
   4   6  18    0.09    0.04
   4  -6 -18    0.16    0.07
   4  -6 -18    0.18    0.05
   4  -6 -18    0.18    0.05
  -4  -6  18    0.25    0.08
   5  -6  18    0.25    0.04
   5   6 -18    0.27    0.04
  -5  -6 -18    0.32    0.06
   5  -6 -18    0.24    0.05
   5  -6 -18    0.26    0.06
   5   6  18    0.29    0.06
   0  -7  18    0.02    0.06
   0  -7  18    0.00    0.04
   0  -7 -18    0.13    0.07
   0  -7  18    0.00    0.03
   0  -7 -18   -0.01    0.06
   0  -7 -18    0.08    0.05
   0  -7  18    0.00    0.04
   0   7 -18    0.02    0.06
   0  -7 -18   -0.01    0.06
   1  -7  18    1.29    0.10
   1  -7  18    1.31    0.09
  -1  -7 -18    1.22    0.12
   1  -7  18    1.29    0.09
  -1  -7 -18    1.10    0.12
  -1  -7 -18    1.22    0.12
  -1  -7 -18    1.12    0.13
   1   7 -18    1.34    0.10
   1  -7  18    1.14    0.11
   1  -7 -18    1.30    0.11
  -1  -7  18    1.34    0.10
  -1  -7  18    1.18    0.09
   1  -7 -18    1.29    0.12
   1  -7 -18    1.34    0.13
   1  -7 -18    1.11    0.13
  -1  -7  18    1.24    0.09
  -1  -7  18    1.17    0.12
   2  -7  18    0.39    0.06
  -2  -7 -18    0.62    0.08
  -2  -7 -18    0.45    0.10
  -2  -7 -18    0.52    0.09
   2  -7  18    0.47    0.09
   2  -7  18    0.37    0.05
  -2  -7 -18    0.42    0.08
   2   7 -18    0.44    0.06
   2  -7 -18    0.48    0.08
   2  -7 -18    0.36    0.11
   2  -7 -18    0.53    0.10
  -2  -7  18    0.51    0.06
  -2  -7  18    0.38    0.07
  -2  -7  18    0.46    0.08
  -2  -7  18    0.42    0.09
   2  -7 -18    0.44    0.07
  -3  -7 -18    0.20    0.06
   3  -7  18    0.09    0.03
   3  -7  18    0.06    0.03
  -3  -7 -18    0.11    0.05
  -3  -7 -18    0.03    0.05
   3  -7  18    0.03    0.06
   3   7 -18    0.00    0.03
   3  -7 -18    0.07    0.06
  -3  -7  18    0.06    0.08
  -3  -7  18    0.03    0.04
   3  -7 -18    0.11    0.05
   3   7  18    0.07    0.04
   3  -7 -18    0.07    0.04
   4  -7  18    0.81    0.07
   4  -7  18    0.85    0.06
   4   7 -18    0.98    0.07
  -4  -7 -18    0.93    0.10
  -4  -7 -18    0.92    0.08
   4  -7 -18    0.91    0.07
   4  -7 -18    0.86    0.09
  -4  -7  18    1.11    0.09
   4  -7 -18    0.81    0.11
   4   7  18    0.96    0.08
   0  -8  18    0.84    0.06
   0  -8 -18    0.77    0.09
   0  -8 -18    0.86    0.09
   0  -8  18    0.89    0.07
   0  -8  18    0.82    0.10
   0  -8  18    0.85    0.06
   0  -8 -18    0.75    0.09
  -1  -8 -18    1.62    0.12
  -1  -8 -18    1.74    0.12
   1  -8  18    1.80    0.10
   1   8 -18    1.83    0.11
  -1  -8 -18    1.75    0.12
  -1  -8 -18    1.53    0.12
   1  -8  18    1.54    0.13
   1  -8  18    1.59    0.10
  -1  -8  18    1.69    0.10
   1  -8 -18    1.69    0.12
   1  -8 -18    1.58    0.12
  -1  -8  18    1.61    0.14
  -1  -8  18    1.60    0.11
   1  -8 -18    1.93    0.13
   1  -8 -18    1.81    0.12
  -1  -8  18    1.75    0.10
   2  -8  18    1.39    0.08
  -2  -8 -18    1.15    0.10
   2   8 -18    1.43    0.09
  -2  -8 -18    1.39    0.09
   2  -8  18    1.26    0.09
  -2  -8 -18    1.27    0.10
  -2  -8 -18    1.31    0.10
   2  -8 -18    1.47    0.11
  -2  -8  18    1.38    0.09
   2  -8 -18    1.28    0.11
   2  -8 -18    1.32    0.10
   2   8  18    1.40    0.10
   2  -8 -18    1.35    0.10
  -3  -8 -18    6.71    0.33
   3  -8  18    5.51    0.33
   3  -8  18    6.40    0.33
  -3  -8 -18    6.88    0.33
   3   8 -18    6.61    0.33
   3  -8 -18    6.59    0.33
   3  -8 -18    6.51    0.34
   3   8  18    6.74    0.33
  -3  -8  18    6.50    0.33
   3  -8 -18    7.18    0.34
   0   0 -19    0.00    0.08
   0   0 -19    0.03    0.09
   0   0 -19   -0.02    0.05
   1   0 -19   -0.05    0.05
  -1   0 -19    0.03    0.05
   1   0 -19   -0.01    0.05
   1   0 -19    0.04    0.09
   2   0 -19    0.09    0.10
  -2   0 -19   -0.02    0.05
   2   0 -19    0.11    0.10
   2   0 -19    0.06    0.07
   3   0 -19    0.23    0.08
   3   0  19    0.08    0.08
   3   0 -19    0.05    0.07
  -3   0 -19    0.03    0.06
   4   0 -19    0.01    0.05
   4   0 -19    0.00    0.06
   4   0 -19    0.11    0.08
   4   0  19    0.07    0.07
  -4   0 -19    0.02    0.07
   4   0  19   -0.16    0.09
   5   0 -19    0.01    0.05
   5   0  19   -0.01    0.07
   5   0 -19    0.02    0.05
  -5   0 -19    0.04    0.06
   5   0 -19    0.38    0.12
  -5   0 -19    0.11    0.08
   6   0 -19    0.03    0.06
   6   0 -19   -0.01    0.04
   6   0  19    0.02    0.05
   6   0 -19    0.06    0.06
  -6   0 -19   -0.01    0.08
  -7   0 -19    0.01    0.03
  -7   0 -19   -0.05    0.05
   7   0 -19    0.06    0.03
   0  -1 -19   -0.02    0.06
   0  -1 -19    0.03    0.10
   0   1 -19   -0.10    0.08
   1  -1  19    1.14    0.11
  -1  -1 -19    1.04    0.11
  -1  -1 -19    0.92    0.17
   1   1 -19    0.68    0.10
   1   1 -19    0.81    0.13
   1  -1 -19    0.82    0.15
   1  -1 -19    0.60    0.18
   1  -1 -19    0.98    0.12
   1  -1 -19    0.92    0.12
   2  -1  19    0.29    0.08
  -2  -1 -19    0.46    0.11
   2  -1  19    0.40    0.09
   2   1 -19    0.43    0.15
   2   1 -19    0.51    0.08
  -2   1 -19    0.46    0.09
   2  -1 -19    0.40    0.09
   2  -1 -19    0.57    0.15
   2  -1 -19    0.33    0.08
   2  -1 -19    0.32    0.08
   2  -1 -19    0.42    0.10
   3  -1  19   49.73    2.32
   3   1 -19   45.96    2.31
  -3  -1 -19   49.28    2.33
   3  -1  19   45.50    2.31
   3   1 -19   48.41    2.32
   3  -1 -19   48.25    2.32
   3  -1 -19   48.71    2.32
   3  -1 -19   46.58    2.32
  -3   1 -19   46.67    2.31
   4  -1  19  114.42    5.57
   4   1 -19  118.66    5.58
  -4  -1 -19  119.66    5.58
  -4  -1 -19  117.84    5.59
   4   1 -19  109.07    5.57
   4  -1 -19  115.64    5.58
   4   1  19  118.06    5.58
   4  -1 -19  111.94    5.57
   4  -1 -19  116.92    5.58
   5   1 -19    1.41    0.12
   5  -1  19    1.41    0.12
  -5  -1 -19    1.53    0.13
   5   1 -19    1.65    0.13
   5   1  19    1.52    0.15
   5  -1 -19    1.54    0.14
  -5   1 -19    1.31    0.13
   5  -1 -19    1.56    0.13
   5  -1 -19    1.54    0.13
   6   1 -19    5.82    0.32
  -6  -1 -19    5.97    0.32
   6   1 -19    5.96    0.32
  -6   1 -19    5.81    0.33
   6  -1 -19    6.63    0.33
   6  -1 -19    5.49    0.32
   6  -1 -19    5.71    0.31
   6   1  19    6.26    0.32
  -6   1 -19    5.91    0.32
  -7  -1 -19    0.12    0.05
   7   1 -19    0.00    0.03
  -7  -1 -19    0.04    0.04
   7  -1 -19    0.01    0.04
   7  -1 -19    0.01    0.04
   7   1  19    0.04    0.04
  -7   1 -19    0.05    0.05
   0  -2 -19   79.50    3.75
   0   2 -19   72.83    3.73
   0  -2 -19   76.57    3.73
   0  -2 -19   69.87    3.74
   0  -2  19   79.73    3.73
   0  -2 -19   81.28    3.74
   0  -2  19   81.56    3.73
   1  -2  19    7.02    0.37
   1  -2  19    7.03    0.36
   1   2 -19    7.32    0.40
  -1  -2 -19    7.28    0.38
  -1  -2 -19    6.42    0.41
   1   2 -19    7.10    0.37
  -1  -2 -19    6.61    0.38
  -1  -2 -19    6.68    0.38
   1  -2 -19    6.60    0.41
   1  -2 -19    6.97    0.38
   1  -2 -19    6.17    0.38
   1  -2 -19    6.89    0.37
   1  -2 -19    7.15    0.39
  -2  -2 -19   83.68    4.07
   2  -2  19   80.41    4.06
   2   2 -19   84.24    4.06
   2  -2  19   83.71    4.06
  -2  -2 -19   82.69    4.08
   2  -2  19   90.08    4.07
   2   2 -19   86.41    4.09
   2  -2 -19   82.70    4.07
   2  -2 -19   80.17    4.09
   2  -2 -19   83.78    4.06
   2  -2 -19   87.58    4.08
   2  -2 -19   85.60    4.07
   3  -2  19    7.35    0.39
   3   2 -19    7.24    0.41
   3   2 -19    7.65    0.40
   3  -2  19    7.95    0.40
   3  -2  19    6.50    0.39
  -3  -2 -19    7.87    0.41
   3  -2 -19    8.01    0.41
   3  -2 -19    7.64    0.41
   3  -2 -19    7.62    0.41
  -3   2 -19    7.44    0.40
   4   2 -19    0.12    0.07
  -4  -2 -19    0.26    0.13
   4  -2  19    0.06    0.05
   4   2 -19    0.05    0.04
  -4  -2 -19    0.03    0.06
   4  -2 -19    0.28    0.08
   4  -2 -19    0.05    0.07
   4  -2 -19    0.04    0.05
   4   2  19    0.11    0.06
  -5  -2 -19    1.67    0.13
   5   2 -19    1.55    0.12
   5  -2  19    1.57    0.12
  -5  -2 -19    1.80    0.14
   5   2 -19    1.44    0.13
   5  -2 -19    1.55    0.13
   5  -2 -19    1.61    0.13
   5  -2 -19    1.64    0.15
   5   2  19    1.51    0.14
   6   2 -19    1.15    0.10
  -6  -2 -19    1.25    0.11
   6  -2  19    1.18    0.09
   6   2 -19    1.20    0.10
  -6  -2 -19    1.23    0.10
   6  -2 -19    1.20    0.10
   6  -2 -19    1.57    0.15
   6  -2 -19    1.14    0.10
  -6   2 -19    1.24    0.10
   6   2  19    1.30    0.11
  -6   2 -19    1.17    0.12
  -7  -2 -19    1.51    0.10
   7   2 -19    1.62    0.10
  -7  -2 -19    1.64    0.11
   7  -2 -19    1.61    0.10
  -7   2 -19    1.49    0.12
   7  -2 -19    1.59    0.10
   7   2  19    1.60    0.10
   0  -3 -19   -0.05    0.08
   0   3 -19    0.00    0.07
   0  -3 -19    0.11    0.10
   0  -3  19    0.12    0.06
   0  -3 -19    0.05    0.06
   0  -3 -19    0.17    0.09
  -1  -3 -19    9.40    0.53
  -1  -3 -19    9.76    0.55
   1   3 -19    9.42    0.51
   1  -3  19   10.18    0.51
   1  -3  19    9.50    0.52
   1  -3  19   10.53    0.52
  -1  -3 -19    8.92    0.54
  -1  -3 -19   10.15    0.52
  -1  -3 -19   10.33    0.54
   1  -3 -19    9.57    0.53
   1  -3 -19   10.43    0.52
  -1  -3  19   10.57    0.52
   1  -3 -19   10.48    0.54
   1  -3 -19   10.32    0.54
   2  -3  19   40.40    1.93
  -2  -3 -19   39.60    1.93
  -2  -3 -19   40.61    1.93
  -2  -3 -19   36.80    1.94
   2  -3  19   37.27    1.92
   2  -3 -19   39.17    1.94
   2  -3 -19   37.78    1.94
  -2  -3  19   41.21    1.93
   2  -3 -19   42.47    1.93
   2  -3 -19   39.81    1.93
   3  -3  19   16.72    0.81
  -3  -3 -19   16.11    0.83
   3  -3  19   15.84    0.82
   3   3 -19   16.90    0.82
   3  -3  19   16.59    0.81
  -3  -3 -19   15.61    0.84
   3  -3 -19   15.54    0.82
   3  -3 -19   16.92    0.82
   3  -3 -19   16.56    0.84
   4  -3  19   22.00    1.09
   4   3 -19   21.88    1.10
   4  -3  19   21.18    1.11
   4  -3  19   21.96    1.09
  -4  -3 -19   23.79    1.11
   4   3 -19   22.30    1.09
  -4  -3 -19   20.39    1.12
   4  -3 -19   23.02    1.10
   4  -3 -19   21.70    1.10
   4   3  19   22.76    1.11
   4  -3 -19   23.10    1.12
   5   3 -19   10.70    0.56
  -5  -3 -19   11.80    0.58
   5  -3  19   11.31    0.56
   5   3 -19   10.72    0.56
   5  -3 -19   10.88    0.57
   5   3  19   11.09    0.57
   5  -3 -19   10.78    0.57
   5  -3 -19   11.39    0.58
  -6  -3 -19    6.55    0.36
   6  -3  19    7.09    0.36
   6   3 -19    6.98    0.36
  -6  -3 -19    7.44    0.37
   6   3 -19    6.99    0.36
  -6   3 -19    7.00    0.36
   6  -3 -19    7.10    0.36
   6   3  19    7.40    0.37
   6  -3 -19    6.97    0.37
  -6   3 -19    6.66    0.38
   7   3 -19    6.77    0.34
  -7  -3 -19    7.06    0.34
   7  -3 -19    6.87    0.34
   7  -3 -19    6.44    0.34
   7   3  19    6.83    0.34
   0  -4  19   78.19    3.68
   0  -4  19   74.08    3.67
   0  -4  19   74.31    3.67
   0  -4  19   83.54    3.69
   0  -4 -19   78.67    3.70
   0   4 -19   70.58    3.67
   0  -4 -19   76.38    3.69
   0  -4 -19   75.53    3.68
   0  -4 -19   74.01    3.70
   1  -4  19   59.13    2.76
   1  -4  19   58.61    2.76
  -1  -4 -19   56.99    2.78
  -1  -4 -19   55.25    2.79
  -1  -4 -19   56.85    2.77
   1  -4  19   50.03    2.77
  -1  -4 -19   59.50    2.77
   1   4 -19   57.42    2.76
   1  -4  19   59.11    2.76
  -1  -4 -19   54.64    2.78
   1  -4 -19   60.40    2.77
  -1  -4  19   64.46    2.78
   1  -4 -19   58.39    2.79
   1  -4 -19   54.68    2.79
   1  -4 -19   58.06    2.78
  -1  -4  19   57.45    2.76
  -1  -4  19   49.69    2.76
   2  -4  19    0.12    0.04
  -2  -4 -19    0.16    0.13
  -2  -4 -19    0.30    0.08
   2   4 -19    0.15    0.05
  -2  -4 -19    0.32    0.11
  -2  -4 -19    0.15    0.09
   2  -4  19    0.25    0.08
   2  -4 -19    0.06    0.10
   2  -4 -19    0.12    0.05
   2  -4 -19    0.24    0.09
   2  -4 -19    0.04    0.06
  -2  -4  19    0.18    0.08
   3  -4  19    0.01    0.05
   3  -4  19    0.04    0.06
   3  -4  19   -0.04    0.04
  -3  -4 -19    0.02    0.09
  -3  -4 -19    0.07    0.06
   3   4 -19    0.07    0.04
  -3  -4  19    0.05    0.08
   3  -4 -19    0.05    0.06
   3  -4 -19   -0.01    0.08
   3  -4 -19    0.02    0.05
   4  -4  19    8.98    0.46
   4   4 -19    9.16    0.46
   4  -4  19    8.80    0.46
   4   4 -19    8.90    0.47
  -4  -4 -19    9.33    0.48
  -4  -4 -19    8.70    0.49
   4  -4  19    8.31    0.48
   4   4  19    8.82    0.48
   4  -4 -19    9.00    0.48
   4  -4 -19    9.73    0.47
   4  -4 -19    9.48    0.49
  -5  -4 -19    0.04    0.05
   5   4 -19   -0.02    0.03
   5   4 -19   -0.07    0.05
   5  -4  19   -0.03    0.04
   5   4  19   -0.01    0.04
   5  -4 -19    0.17    0.08
   5  -4 -19    0.04    0.04
   5  -4 -19    0.19    0.07
   6  -4  19    1.67    0.11
  -6  -4 -19    1.75    0.12
   6   4 -19    1.67    0.11
   6   4 -19    1.71    0.11
   6   4  19    1.74    0.11
   6  -4 -19    1.85    0.11
   6  -4 -19    1.80    0.12
  -6   4 -19    1.70    0.11
   0  -5  19    0.05    0.05
   0  -5 -19    0.05    0.05
   0   5 -19    0.01    0.06
   0  -5  19    0.17    0.06
   0  -5  19    0.01    0.04
   0  -5 -19   -0.04    0.08
   0  -5  19    0.08    0.06
   0  -5 -19   -0.03    0.07
   0  -5 -19    0.02    0.08
  -1  -5 -19   12.27    0.66
   1  -5  19   12.48    0.62
   1  -5  19   12.94    0.63
  -1  -5 -19   12.85    0.64
   1   5 -19   11.93    0.62
  -1  -5 -19   13.36    0.65
   1  -5  19   11.96    0.62
  -1  -5 -19   11.76    0.65
  -1  -5 -19   12.74    0.64
   1  -5  19   12.17    0.64
  -1  -5  19   12.32    0.64
  -1  -5  19   12.51    0.63
  -1  -5  19   11.89    0.62
   1  -5 -19   12.37    0.66
   1  -5 -19   11.89    0.65
   1  -5 -19   12.30    0.64
  -1  -5  19   11.74    0.62
   1  -5 -19   12.50    0.63
  -2  -5 -19    2.54    0.21
  -2  -5 -19    2.65    0.22
   2  -5  19    2.51    0.18
   2   5 -19    2.35    0.16
   2  -5  19    2.71    0.16
  -2  -5 -19    2.37    0.20
   2  -5  19    2.69    0.17
  -2  -5 -19    2.79    0.19
  -2  -5  19    2.73    0.16
   2  -5 -19    2.72    0.18
   2  -5 -19    2.84    0.21
   2  -5 -19    2.65    0.22
   2  -5 -19    2.69    0.19
  -2  -5  19    2.61    0.18
  -2  -5  19    2.55    0.18
   3  -5  19    4.93    0.30
   3   5 -19    5.39    0.28
  -3  -5 -19    4.96    0.31
  -3  -5 -19    5.14    0.30
   3  -5  19    5.33    0.28
   3  -5  19    5.21    0.28
  -3  -5 -19    5.54    0.30
  -3  -5  19    4.84    0.30
   3  -5 -19    5.28    0.32
   3  -5 -19    5.31    0.30
  -3  -5  19    4.73    0.29
   3  -5 -19    5.32    0.29
  -4  -5 -19   16.10    0.78
   4  -5  19   15.45    0.78
   4   5 -19   15.04    0.76
   4  -5  19   15.18    0.76
   4  -5  19   16.40    0.76
  -4  -5 -19   13.37    0.77
   4  -5 -19   14.81    0.77
   4   5  19   15.31    0.78
   4  -5 -19   15.24    0.77
   4  -5 -19   16.94    0.79
  -4  -5  19   15.77    0.78
   5  -5  19   14.04    0.72
   5   5 -19   14.43    0.72
  -5  -5 -19   15.64    0.73
   5   5 -19   14.77    0.72
   5   5  19   14.83    0.73
   5  -5 -19   14.15    0.73
   5  -5 -19   14.08    0.72
   5  -5 -19   15.27    0.74
  -6  -5 -19    3.14    0.16
   6  -5  19    2.60    0.15
   6   5 -19    3.05    0.15
   6   5  19    2.71    0.15
   6  -5 -19    2.96    0.16
   6  -5 -19    2.33    0.15
  -6   5 -19    2.79    0.16
   0  -6 -19   15.72    0.80
   0  -6 -19   14.50    0.80
   0  -6 -19   16.22    0.79
   0  -6  19   15.07    0.79
   0  -6 -19   16.03    0.81
   0  -6  19   16.35    0.78
   0  -6  19   14.92    0.77
   0   6 -19   15.94    0.78
   0  -6  19   15.51    0.77
  -1  -6 -19    6.04    0.38
   1  -6  19    6.97    0.35
   1  -6  19    5.65    0.36
  -1  -6 -19    6.71    0.38
  -1  -6 -19    7.05    0.36
   1  -6  19    6.68    0.35
   1  -6  19    6.54    0.34
  -1  -6 -19    6.90    0.37
  -1  -6 -19    6.69    0.36
   1   6 -19    6.66    0.35
  -1  -6  19    6.43    0.36
   1  -6 -19    6.77    0.38
  -1  -6  19    6.34    0.34
   1  -6 -19    6.65    0.37
  -1  -6  19    6.88    0.35
  -1  -6  19    6.96    0.34
   1  -6 -19    6.01    0.38
   1  -6 -19    6.54    0.36
  -2  -6 -19    0.39    0.11
  -2  -6 -19    0.29    0.09
   2  -6  19    0.45    0.06
   2  -6  19    0.34    0.08
   2   6 -19    0.35    0.07
  -2  -6 -19    0.57    0.10
  -2  -6 -19    0.52    0.13
   2  -6  19    0.32    0.07
  -2  -6  19    0.39    0.08
   2  -6 -19    0.16    0.07
   2  -6 -19    0.54    0.13
  -2  -6  19    0.26    0.07
   2  -6 -19    0.45    0.08
  -2  -6  19    0.19    0.06
  -2  -6  19    0.24    0.08
   3   6 -19    6.96    0.37
   3  -6  19    6.96    0.37
  -3  -6 -19    7.50    0.39
   3  -6  19    7.10    0.39
   3  -6  19    7.14    0.37
  -3  -6 -19    7.42    0.38
  -3  -6 -19    6.74    0.39
  -3  -6  19    7.11    0.37
  -3  -6  19    7.34    0.39
   3  -6 -19    7.65    0.40
   3  -6 -19    7.27    0.38
   3  -6 -19    7.57    0.39
   4  -6  19    4.04    0.24
  -4  -6 -19    3.95    0.23
   4  -6  19    3.88    0.21
  -4  -6 -19    4.12    0.22
   4  -6  19    4.01    0.21
   4   6 -19    3.92    0.21
   4   6  19    3.97    0.22
   4  -6 -19    3.96    0.22
   4  -6 -19    3.98    0.23
  -4  -6  19    3.68    0.27
   4  -6 -19    3.96    0.24
   5  -6  19    0.02    0.03
   5   6 -19    0.02    0.02
  -5  -6 -19   -0.02    0.03
   5  -6 -19    0.03    0.04
   5  -6 -19    0.04    0.03
   5   6  19    0.03    0.03
   0  -7 -19    0.07    0.06
   0  -7 -19    0.01    0.05
   0  -7 -19    0.06    0.04
   0   7 -19    0.06    0.06
   0  -7 -19    0.04    0.06
   0  -7  19    0.08    0.04
   0  -7  19    0.02    0.03
   0  -7  19   -0.01    0.03
   0  -7  19   -0.03    0.06
  -1  -7 -19    1.98    0.15
  -1  -7 -19    1.68    0.15
   1   7 -19    2.15    0.13
   1  -7  19    1.96    0.12
   1  -7  19    2.13    0.15
   1  -7  19    1.90    0.12
  -1  -7 -19    1.95    0.14
  -1  -7 -19    1.84    0.15
  -1  -7  19    1.92    0.12
   1  -7 -19    2.00    0.14
   1  -7 -19    2.03    0.15
   1  -7 -19    2.12    0.15
   1  -7 -19    1.94    0.15
  -1  -7  19    1.92    0.12
  -1  -7  19    1.96    0.15
  -1  -7  19    1.84    0.13
   2  -7  19    5.42    0.29
   2  -7  19    5.35    0.31
  -2  -7 -19    5.48    0.30
   2   7 -19    5.57    0.29
  -2  -7 -19    5.08    0.31
  -2  -7 -19    5.59    0.29
  -2  -7 -19    5.37    0.30
   2  -7  19    5.77    0.29
  -2  -7  19    5.42    0.30
   2  -7 -19    5.26    0.29
  -2  -7  19    5.91    0.29
  -2  -7  19    5.78    0.31
   2  -7 -19    5.93    0.32
   2  -7 -19    5.75    0.31
   2  -7 -19    5.34    0.30
  -3  -7 -19    2.77    0.18
  -3  -7 -19    3.15    0.17
   3   7 -19    2.93    0.16
   3  -7  19    2.75    0.16
   3  -7  19    2.83    0.18
   3  -7  19    2.90    0.16
   3  -7 -19    2.84    0.18
   3   7  19    2.74    0.17
   3  -7 -19    3.20    0.19
   3  -7 -19    2.83    0.16
  -3  -7  19    3.05    0.16
   4  -7  19    0.48    0.05
  -4  -7 -19    0.47    0.05
   4   7 -19    0.41    0.04
   4  -7 -19    0.40    0.06
   4  -7 -19    0.41    0.05
   4   7  19    0.37    0.06
   4  -7 -19    0.36    0.09
   0  -8 -19    0.05    0.05
   0  -8  19    0.09    0.03
   0  -8  19    0.08    0.03
   0  -8 -19    0.03    0.05
   0  -8 -19    0.03    0.04
  -1  -8 -19   -0.02    0.04
   1  -8  19    0.00    0.02
  -1  -8 -19    0.03    0.04
   1  -8  19    0.04    0.03
  -1  -8 -19    0.02    0.04
   1   8 -19   -0.02    0.04
   1  -8 -19    0.06    0.04
  -1  -8  19    0.05    0.03
   1  -8 -19    0.02    0.04
   1  -8 -19    0.02    0.04
  -1  -8  19    0.03    0.04
   2   8 -19    2.04    0.11
   2  -8  19    1.76    0.10
   2  -8  19    1.87    0.11
  -2  -8 -19    1.65    0.12
  -2  -8 -19    1.73    0.11
  -2  -8 -19    1.84    0.12
   2   8  19    1.85    0.12
  -2  -8  19    1.84    0.11
   2  -8 -19    1.92    0.12
   2  -8 -19    1.86    0.11
   2  -8 -19    1.90    0.12
   0   0 -20   10.78    0.50
   0   0 -20    8.73    0.51
   1   0 -20   12.80    0.67
  -1   0 -20   13.16    0.64
   1   0 -20   12.79    0.64
   1   0 -20   12.21    0.64
  -2   0 -20   77.81    3.63
   2   0 -20   74.13    3.64
   2   0 -20   75.42    3.63
   2   0 -20   72.80    3.65
   2   0 -20   76.11    3.63
   3   0 -20   15.74    0.81
  -3   0 -20   16.06    0.81
   3   0 -20   16.65    0.82
   4   0  20    0.09    0.07
  -4   0 -20    0.14    0.13
   4   0 -20    0.02    0.05
   4   0 -20   -0.03    0.06
   5   0 -20    7.43    0.38
  -5   0 -20    7.45    0.38
   5   0 -20    6.68    0.38
  -5   0 -20    6.46    0.39
   5   0 -20    7.64    0.38
  -6   0 -20    0.03    0.05
   6   0 -20    0.09    0.06
   6   0 -20    0.10    0.04
  -7   0 -20   -0.02    0.04
   7   0 -20   -0.04    0.03
  -7   0 -20    0.04    0.03
   0  -1 -20   -0.05    0.09
   0  -1  20    0.00    0.08
   0   1 -20    0.17    0.08
   0  -1 -20    0.06    0.05
   0  -1 -20   -0.07    0.08
   0  -1 -20    0.14    0.12
   1   1 -20    4.26    0.29
   1  -1  20    4.42    0.25
   1   1 -20    4.40    0.25
  -1  -1 -20    4.40    0.25
  -1  -1 -20    4.78    0.35
   1  -1 -20    4.25    0.26
   1  -1 -20    4.53    0.26
   1  -1 -20    4.31    0.30
   1  -1 -20    4.44    0.28
   2   1 -20    4.63    0.25
   2   1 -20    4.81    0.31
   2   1 -20    4.07    0.25
   2  -1  20    4.47    0.24
  -2  -1 -20    4.52    0.26
   2  -1 -20    3.98    0.27
   2  -1 -20    4.16    0.27
   2  -1 -20    4.32    0.27
   2  -1 -20    4.02    0.25
  -2   1 -20    4.23    0.24
   2  -1 -20    4.19    0.31
   3   1 -20    5.64    0.32
  -3  -1 -20    5.93    0.32
   3   1 -20    5.78    0.33
  -3  -1 -20    6.21    0.34
   3  -1  20    5.55    0.32
   3   1 -20    6.08    0.32
   3   1  20    5.68    0.34
  -3   1 -20    5.38    0.32
   3  -1 -20    5.92    0.33
   3  -1 -20    5.88    0.32
   3  -1 -20    5.92    0.33
   4  -1  20    8.18    0.42
  -4  -1 -20    7.86    0.45
   4   1 -20    7.91    0.42
  -4  -1 -20    7.89    0.43
   4   1 -20    8.00    0.43
   4  -1 -20    7.98    0.43
   4  -1 -20    8.32    0.43
   4  -1 -20    7.71    0.43
   4   1  20    8.27    0.44
   5   1 -20    2.00    0.14
  -5  -1 -20    1.93    0.14
   5   1 -20    1.96    0.14
   5  -1  20    1.93    0.14
   5  -1 -20    1.82    0.14
   5   1  20    1.94    0.16
   5  -1 -20    2.07    0.15
  -5   1 -20    1.69    0.16
   5  -1 -20    1.99    0.14
   6   1 -20   29.61    1.43
  -6  -1 -20   28.74    1.42
  -6  -1 -20   29.46    1.43
   6   1 -20   29.38    1.43
   6  -1 -20   28.56    1.43
   6  -1 -20   30.83    1.43
   6  -1 -20   28.95    1.42
  -6   1 -20   30.09    1.43
  -6   1 -20   28.80    1.44
   6   1  20   28.30    1.43
   7   1 -20    4.79    0.25
  -7  -1 -20    4.77    0.25
  -7  -1 -20    5.04    0.26
  -7   1 -20    5.05    0.26
   7  -1 -20    4.87    0.26
   0  -2 -20   14.62    0.76
   0  -2 -20   15.33    0.75
   0   2 -20   14.19    0.74
   0  -2  20   14.49    0.73
   0  -2 -20   15.00    0.74
   1  -2  20    1.05    0.10
   1   2 -20    1.15    0.11
  -1  -2 -20    1.10    0.15
  -1  -2 -20    1.20    0.13
  -1  -2 -20    1.06    0.13
   1  -2  20    1.14    0.12
  -1  -2 -20    1.18    0.20
   1  -2 -20    0.69    0.19
   1  -2 -20    1.04    0.14
   1  -2 -20    0.90    0.13
   1  -2 -20    1.17    0.16
   1  -2 -20    1.06    0.14
   2   2 -20   15.46    0.76
   2  -2  20   15.75    0.77
   2  -2  20   15.24    0.76
   2  -2  20   14.09    0.76
  -2  -2 -20   15.84    0.78
  -2  -2 -20   15.06    0.77
   2  -2 -20   15.52    0.77
   2  -2 -20   15.44    0.78
   2  -2 -20   14.90    0.77
   2  -2 -20   14.33    0.77
   3  -2  20    2.86    0.17
   3   2 -20    2.77    0.17
   3  -2  20    2.51    0.17
  -3  -2 -20    2.74    0.18
   3  -2  20    2.71    0.18
   3   2 -20    2.43    0.18
   3   2 -20    2.28    0.20
   3  -2 -20    2.79    0.19
   3  -2 -20    2.59    0.19
   3  -2 -20    2.29    0.18
  -3   2 -20    2.64    0.17
   4   2 -20   13.58    0.68
  -4  -2 -20   12.73    0.70
   4   2 -20   13.19    0.67
   4  -2  20   12.84    0.67
  -4  -2 -20   12.97    0.68
   4  -2 -20   12.77    0.67
   4   2  20   14.04    0.68
   4  -2 -20   13.82    0.68
   4  -2 -20   13.21    0.68
   5   2 -20    2.44    0.15
   5  -2  20    2.51    0.16
   5   2 -20    2.39    0.16
  -5  -2 -20    2.53    0.17
   5  -2 -20    2.69    0.18
   5  -2 -20    2.46    0.16
   5  -2 -20    2.42    0.16
   5   2  20    2.38    0.17
  -6  -2 -20    0.40    0.07
   6   2 -20    0.52    0.07
  -6  -2 -20    0.45    0.07
   6   2 -20    0.47    0.07
   6  -2 -20    0.56    0.07
   6  -2 -20    0.51    0.12
   6  -2 -20    0.42    0.07
   6   2  20    0.47    0.07
  -6   2 -20    0.57    0.12
  -6   2 -20    0.54    0.07
   7   2 -20    0.06    0.03
  -7  -2 -20    0.02    0.04
  -7   2 -20    0.05    0.09
   7   2  20    0.05    0.03
   7  -2 -20    0.01    0.03
   7  -2 -20    0.04    0.03
   0  -3  20    0.13    0.06
   0  -3 -20    0.12    0.09
   0   3 -20   -0.03    0.06
   0  -3 -20    0.00    0.08
   0  -3 -20    0.07    0.06
   0  -3  20    0.03    0.07
   0  -3 -20    0.04    0.08
   1  -3  20    7.73    0.39
   1  -3  20    7.07    0.40
  -1  -3 -20    7.20    0.43
  -1  -3 -20    7.65    0.40
  -1  -3 -20    7.01    0.41
  -1  -3 -20    6.40    0.43
   1  -3  20    8.30    0.41
   1   3 -20    7.77    0.39
   1  -3 -20    7.43    0.40
   1  -3 -20    7.05    0.41
  -1  -3  20    7.82    0.41
   1  -3 -20    7.62    0.42
   1  -3 -20    8.00    0.43
  -2  -3 -20   18.00    0.97
  -2  -3 -20   19.63    0.98
   2  -3  20   19.26    0.96
   2   3 -20   20.33    0.96
   2  -3  20   20.10    0.95
   2  -3  20   18.03    0.96
   2  -3 -20   19.36    0.96
   2  -3 -20   18.96    0.97
   2  -3 -20   19.25    0.98
   2  -3 -20   20.30    0.99
   3  -3  20    0.68    0.10
   3  -3  20    0.58    0.10
   3   3 -20    0.63    0.08
   3  -3  20    0.52    0.08
  -3  -3 -20    0.91    0.16
  -3  -3 -20    0.57    0.11
   3  -3 -20    0.60    0.10
   3  -3 -20    0.69    0.11
   3  -3 -20    0.67    0.10
   4  -3  20    9.26    0.48
   4   3 -20    9.71    0.48
   4  -3  20    8.66    0.49
   4   3 -20    8.93    0.49
  -4  -3 -20    9.78    0.52
  -4  -3 -20   10.21    0.50
   4  -3 -20   10.12    0.51
   4   3  20    9.04    0.50
   4  -3 -20    8.91    0.49
   4  -3 -20    9.71    0.49
  -5  -3 -20    0.09    0.06
   5   3 -20    0.13    0.05
   5  -3  20    0.12    0.04
   5   3 -20    0.18    0.05
   5  -3 -20    0.20    0.07
   5   3  20    0.06    0.04
   5  -3 -20    0.32    0.10
   5  -3 -20    0.23    0.07
   6  -3  20    3.19    0.18
   6   3 -20    3.01    0.18
  -6  -3 -20    3.24    0.19
   6   3 -20    3.29    0.18
   6   3  20    3.16    0.18
   6  -3 -20    3.21    0.18
  -6   3 -20    3.35    0.18
   6  -3 -20    3.35    0.19
   0  -4 -20   14.50    0.73
   0  -4 -20   13.77    0.70
   0  -4 -20   13.66    0.71
   0   4 -20   13.49    0.69
   0  -4  20   13.41    0.69
   0  -4  20   13.74    0.70
   0  -4 -20   14.02    0.72
   0  -4  20   13.67    0.69
   1   4 -20    5.80    0.32
  -1  -4 -20    5.93    0.35
   1  -4  20    5.97    0.33
  -1  -4 -20    5.64    0.35
  -1  -4 -20    5.65    0.33
  -1  -4 -20    6.31    0.35
   1  -4  20    5.97    0.31
   1  -4  20    6.01    0.32
  -1  -4 -20    6.01    0.34
   1  -4 -20    5.77    0.35
  -1  -4  20    5.69    0.32
   1  -4 -20    5.81    0.32
  -1  -4  20    5.44    0.33
  -1  -4  20    5.86    0.33
   1  -4 -20    5.80    0.34
   1  -4 -20    5.81    0.35
  -2  -4 -20    0.33    0.09
   2   4 -20    0.26    0.07
   2  -4  20    0.36    0.07
   2  -4  20    0.29    0.09
  -2  -4 -20    0.08    0.08
   2  -4  20    0.26    0.08
  -2  -4 -20    0.30    0.13
  -2  -4 -20    0.55    0.17
   2  -4 -20    0.24    0.08
   2  -4 -20    0.29    0.10
  -2  -4  20    0.27    0.08
   2  -4 -20    0.69    0.16
   2  -4 -20    0.46    0.12
   3  -4  20    1.71    0.12
  -3  -4 -20    1.89    0.14
   3  -4  20    1.68    0.12
   3  -4  20    1.43    0.13
  -3  -4 -20    1.87    0.18
   3   4 -20    1.73    0.12
   3  -4 -20    1.66    0.15
   3  -4 -20    1.52    0.13
   3  -4 -20    1.41    0.13
  -3  -4  20    1.56    0.16
   4  -4  20    0.16    0.07
   4   4 -20    0.27    0.08
   4  -4  20    0.24    0.06
  -4  -4 -20    0.54    0.15
   4   4 -20    0.29    0.06
  -4  -4 -20    0.28    0.09
   4  -4  20    0.27    0.06
   4  -4 -20    0.28    0.07
   4  -4 -20    0.41    0.08
   4   4  20    0.43    0.08
   4  -4 -20    0.41    0.11
  -5  -4 -20    2.00    0.14
   5   4 -20    2.01    0.14
   5  -4  20    2.18    0.13
   5   4 -20    2.10    0.13
   5   4  20    2.11    0.14
   5  -4 -20    1.97    0.14
   5  -4 -20    2.22    0.14
   5  -4 -20    2.20    0.17
   6   4 -20    1.24    0.09
  -6  -4 -20    1.45    0.10
   6  -4  20    1.29    0.09
   6   4 -20    1.41    0.10
   6  -4 -20    1.38    0.09
  -6   4 -20    1.43    0.09
   6   4  20    1.25    0.09
   6  -4 -20    1.31    0.09
   0  -5  20    0.10    0.06
   0  -5  20   -0.01    0.06
   0  -5  20    0.05    0.04
   0  -5 -20    0.10    0.05
   0  -5 -20    0.13    0.07
   0  -5 -20    0.00    0.07
   0  -5  20   -0.03    0.03
   0  -5 -20   -0.09    0.07
   0   5 -20    0.03    0.06
  -1  -5 -20    4.14    0.27
   1   5 -20    3.81    0.23
   1  -5  20    3.81    0.23
   1  -5  20    3.88    0.22
  -1  -5 -20    3.81    0.25
  -1  -5 -20    3.93    0.24
  -1  -5 -20    3.95    0.27
  -1  -5 -20    4.25    0.26
   1  -5  20    4.00    0.24
   1  -5 -20    4.33    0.24
  -1  -5  20    3.99    0.22
   1  -5 -20    3.60    0.26
   1  -5 -20    4.17    0.25
  -1  -5  20    4.11    0.23
  -1  -5  20    3.59    0.24
   1  -5 -20    4.23    0.27
  -1  -5  20    3.83    0.22
  -2  -5 -20    6.36    0.37
   2   5 -20    6.03    0.33
   2  -5  20    6.46    0.33
  -2  -5 -20    6.62    0.37
  -2  -5 -20    6.40    0.35
   2  -5  20    6.51    0.33
   2  -5  20    5.67    0.34
  -2  -5 -20    6.55    0.35
   2  -5 -20    5.99    0.35
  -2  -5  20    6.36    0.34
   2  -5 -20    6.07    0.34
   2  -5 -20    5.86    0.37
  -2  -5  20    5.84    0.34
   2  -5 -20    6.18    0.36
   3  -5  20   11.94    0.59
   3  -5  20   10.48    0.60
  -3  -5 -20   11.25    0.60
   3  -5  20   11.56    0.58
   3   5 -20   11.53    0.59
  -3  -5 -20   12.07    0.61
  -3  -5 -20   12.38    0.60
  -3  -5  20   10.76    0.60
   3  -5 -20   11.72    0.59
   3  -5 -20   11.66    0.60
   3  -5 -20   12.74    0.62
  -4  -5 -20    2.99    0.20
   4  -5  20    2.69    0.16
   4  -5  20    2.83    0.16
   4   5 -20    3.01    0.16
   4  -5  20    2.78    0.19
  -4  -5 -20    2.84    0.18
   4  -5 -20    2.75    0.18
   4  -5 -20    2.72    0.17
   4   5  20    2.78    0.18
   4  -5 -20    2.81    0.19
   5  -5  20    0.96    0.07
   5   5 -20    0.93    0.07
  -5  -5 -20    0.87    0.08
   5  -5 -20    1.06    0.12
   5  -5 -20    0.94    0.08
   5  -5 -20    0.91    0.08
   5   5  20    0.84    0.08
   0  -6  20    2.45    0.15
   0  -6 -20    2.41    0.16
   0  -6  20    2.08    0.14
   0   6 -20    2.41    0.16
   0  -6 -20    2.38    0.18
   0  -6  20    2.27    0.14
   0  -6  20    2.18    0.17
   0  -6 -20    2.36    0.18
   0  -6 -20    2.52    0.18
   1  -6  20    0.07    0.06
  -1  -6 -20    0.01    0.07
   1   6 -20    0.09    0.04
  -1  -6 -20    0.06    0.06
  -1  -6 -20    0.08    0.07
   1  -6  20    0.10    0.04
  -1  -6 -20    0.08    0.08
  -1  -6 -20    0.11    0.05
   1  -6  20    0.09    0.05
  -1  -6  20    0.06    0.03
   1  -6 -20    0.03    0.06
  -1  -6  20    0.21    0.06
  -1  -6  20    0.21    0.06
   1  -6 -20    0.08    0.06
  -1  -6  20    0.13    0.07
   1  -6 -20    0.10    0.05
   1  -6 -20    0.10    0.07
  -2  -6 -20    7.26    0.37
  -2  -6 -20    6.51    0.37
   2  -6  20    6.65    0.36
   2  -6  20    6.43    0.37
   2  -6  20    7.28    0.36
  -2  -6 -20    6.88    0.38
   2   6 -20    6.87    0.36
   2  -6 -20    7.33    0.37
   2  -6 -20    7.43    0.39
   2  -6 -20    6.98    0.38
   2  -6 -20    6.80    0.38
  -2  -6  20    6.46    0.36
   3  -6  20    2.49    0.17
  -3  -6 -20    2.14    0.16
  -3  -6 -20    2.55    0.17
   3  -6  20    2.57    0.14
   3  -6  20    2.38    0.15
   3   6 -20    2.46    0.15
  -3  -6 -20    2.54    0.16
   3  -6 -20    2.56    0.18
   3  -6 -20    2.36    0.15
  -3  -6  20    2.51    0.16
   3  -6 -20    2.52    0.16
  -3  -6  20    2.33    0.19
  -4  -6 -20    4.80    0.25
   4  -6  20    4.71    0.26
  -4  -6 -20    4.76    0.26
   4  -6  20    4.42    0.24
   4   6 -20    4.62    0.24
   4  -6  20    4.36    0.24
   4  -6 -20    4.45    0.24
   4   6  20    4.51    0.25
   4  -6 -20    4.84    0.26
   4  -6 -20    4.50    0.25
  -5  -6 -20    0.90    0.07
   5  -6  20    0.84    0.06
   5   6 -20    0.85    0.06
   5  -6 -20    0.90    0.08
   5  -6 -20    0.81    0.06
   0  -7  20   -0.01    0.03
   0  -7  20    0.02    0.06
   0  -7 -20    0.00    0.05
   0  -7 -20    0.00    0.04
   0  -7 -20   -0.04    0.05
   0  -7 -20    0.06    0.06
   0  -7  20    0.01    0.04
  -1  -7 -20    2.64    0.17
   1  -7  20    2.61    0.16
  -1  -7 -20    2.67    0.18
   1  -7  20    2.62    0.18
  -1  -7 -20    2.58    0.18
   1   7 -20    2.75    0.16
   1  -7  20    2.83    0.15
  -1  -7 -20    2.73    0.17
   1  -7 -20    2.65    0.16
   1  -7 -20    2.65    0.18
   1  -7 -20    2.64    0.17
  -1  -7  20    2.72    0.16
  -1  -7  20    2.81    0.18
   1  -7 -20    2.62    0.18
  -1  -7  20    2.78    0.15
   2  -7  20    0.74    0.07
  -2  -7 -20    0.56    0.09
   2  -7  20    0.78    0.06
  -2  -7 -20    0.68    0.09
  -2  -7 -20    0.65    0.10
  -2  -7 -20    0.75    0.08
   2  -7  20    0.82    0.10
   2   7 -20    0.73    0.07
   2  -7 -20    0.67    0.08
   2  -7 -20    0.81    0.10
  -2  -7  20    0.78    0.07
   2  -7 -20    0.65    0.07
   2  -7 -20    0.70    0.09
  -2  -7  20    0.81    0.12
  -3  -7 -20    7.81    0.39
  -3  -7 -20    7.98    0.39
   3   7 -20    8.13    0.38
   3  -7  20    7.45    0.38
   3  -7  20    7.69    0.38
  -3   7 -20    7.26    0.38
   3  -7 -20    7.36    0.39
   3  -7 -20    8.10    0.40
  -3  -7  20    7.56    0.38
   3   7  20    7.65    0.39
   3  -7 -20    6.94    0.39
  -4  -7 -20    9.16    0.43
   4  -7  20    8.67    0.43
   4   7  20    9.04    0.43
   4  -7 -20    7.83    0.43
   4  -7 -20    8.87    0.44
   4  -7 -20    8.48    0.43
   0  -8 -20   17.75    0.85
   0  -8  20   17.59    0.84
   0  -8 -20   17.52    0.85
   0  -8 -20   16.09    0.85
   0  -8  20   17.52    0.84
  -1  -8 -20    0.31    0.06
   1  -8  20    0.30    0.05
   1  -8  20    0.36    0.04
  -1  -8 -20    0.32    0.06
  -1  -8 -20    0.39    0.06
   1   8 -20    0.30    0.07
   1  -8 -20    0.32    0.06
  -1  -8  20    0.35    0.05
   1  -8 -20    0.38    0.06
  -1  -8  20    0.33    0.05
   1  -8 -20    0.29    0.06
   2  -8  20   17.38    0.83
   2  -8  20   17.06    0.83
  -2  -8 -20   17.70    0.83
   2   8 -20   17.69    0.83
  -2  -8  20   16.39    0.83
   2  -8 -20   18.12    0.84
   2  -8 -20   16.40    0.83
   2  -8 -20   15.62    0.83
   0   0 -21   -0.01    0.07
   0   0 -21   -0.02    0.05
   1   0 -21    0.03    0.05
  -1   0 -21    0.00    0.04
   1   0 -21    0.01    0.05
   1   0 -21   -0.03    0.14
   2   0 -21    0.02    0.06
   2   0 -21    0.02    0.05
   2   0 -21   -0.02    0.09
  -2   0 -21   -0.03    0.06
  -3   0 -21    0.01    0.06
   3   0 -21    0.00    0.07
   3   0 -21    0.07    0.05
  -4   0 -21    0.12    0.10
   4   0 -21    0.04    0.05
   4   0  21    0.00    0.07
   4   0 -21    0.02    0.06
   5   0 -21    0.10    0.06
   5   0 -21    0.00    0.05
  -5   0 -21    0.08    0.05
   6   0 -21   -0.02    0.06
  -6   0 -21    0.00    0.04
   6   0 -21    0.05    0.04
   7   0 -21   -0.01    0.03
  -7   0 -21    0.06    0.04
  -7   0 -21    0.04    0.04
   0  -1 -21   -0.01    0.05
   0  -1 -21    0.01    0.08
   0   1 -21    0.11    0.08
   0  -1 -21    0.12    0.10
   1   1 -21    0.37    0.09
   1  -1  21    0.34    0.09
  -1  -1 -21    0.55    0.09
   1   1 -21    0.31    0.08
  -1  -1 -21    0.37    0.09
  -1  -1 -21    0.17    0.10
  -1  -1 -21    0.19    0.12
   1  -1 -21    0.19    0.07
   1  -1 -21    0.50    0.14
   1  -1 -21    0.44    0.15
  -1   1 -21    0.50    0.08
   1  -1 -21    0.36    0.10
   2   1 -21   33.23    1.69
  -2  -1 -21   34.78    1.70
   2   1 -21   37.06    1.70
  -2  -1 -21   35.24    1.71
   2  -1 -21   34.75    1.70
   2  -1 -21   35.19    1.70
   2  -1 -21   34.42    1.70
  -2   1 -21   33.70    1.69
   2  -1 -21   34.82    1.70
   3   1 -21    2.84    0.20
   3  -1  21    2.94    0.20
   3   1 -21    2.80    0.20
  -3  -1 -21    2.86    0.19
  -3  -1 -21    2.82    0.21
   3   1 -21    3.03    0.18
   3  -1 -21    2.83    0.19
   3   1  21    2.62    0.21
   3  -1 -21    2.87    0.19
   3  -1 -21    2.67    0.20
  -3   1 -21    2.91    0.19
   4   1 -21    3.12    0.19
  -4  -1 -21    3.29    0.24
  -4  -1 -21    3.03    0.19
   4  -1  21    2.99    0.19
   4   1 -21    3.25    0.20
   4  -1 -21    2.88    0.20
  -4   1 -21    3.66    0.24
   4  -1 -21    2.51    0.19
   4   1  21    3.03    0.21
   4  -1 -21    3.27    0.20
   5   1 -21    0.22    0.06
  -5  -1 -21    0.11    0.05
   5  -1  21    0.21    0.06
  -5   1 -21    0.16    0.05
  -5   1 -21    0.26    0.09
   5   1  21    0.24    0.06
   5  -1 -21    0.23    0.07
   5  -1 -21    0.10    0.05
   5  -1 -21    0.12    0.06
   6   1 -21    1.46    0.11
  -6  -1 -21    1.36    0.10
  -6  -1 -21    1.47    0.11
   6   1 -21    1.38    0.11
   6   1  21    1.55    0.11
   6  -1 -21    1.33    0.10
   6  -1 -21    1.26    0.11
  -6   1 -21    1.46    0.11
   6  -1 -21    1.57    0.13
   7   1 -21    0.36    0.05
   7  -1 -21    0.43    0.05
  -7   1 -21    0.41    0.05
  -7   1 -21    0.42    0.07
   0  -2 -21    1.35    0.14
   0  -2 -21    1.35    0.14
   0  -2 -21    1.20    0.15
   0  -2  21    1.63    0.14
   0   2 -21    1.11    0.14
  -1  -2 -21    0.72    0.14
  -1  -2 -21    0.95    0.12
   1  -2  21    0.75    0.10
   1   2 -21    1.01    0.10
  -1  -2 -21    0.82    0.18
  -1  -2 -21    0.87    0.13
   1  -2 -21    0.53    0.14
   1  -2 -21    0.81    0.13
   1  -2 -21    0.89    0.13
   1  -2 -21    0.89    0.13
   2  -2  21   22.36    1.09
   2  -2  21   20.83    1.08
  -2  -2 -21   23.04    1.10
   2   2 -21   20.92    1.08
  -2  -2 -21   22.35    1.09
   2  -2  21   22.14    1.08
   2  -2 -21   21.26    1.09
   2  -2 -21   22.26    1.09
   2  -2 -21   23.67    1.10
   2  -2 -21   20.89    1.09
  -3  -2 -21    1.32    0.13
  -3  -2 -21    1.13    0.16
   3  -2  21    1.29    0.12
   3   2 -21    1.35    0.11
   3   2 -21    1.07    0.15
   3  -2  21    1.28    0.13
   3   2 -21    1.10    0.12
   3  -2  21    1.38    0.11
   3  -2 -21    1.34    0.13
   3  -2 -21    1.33    0.13
   3  -2 -21    1.32    0.13
  -3   2 -21    1.30    0.12
  -4  -2 -21    0.77    0.16
  -4  -2 -21    0.36    0.09
   4  -2  21    0.53    0.09
   4   2 -21    0.55    0.10
   4   2 -21    0.49    0.07
   4  -2 -21    0.60    0.11
   4   2  21    0.37    0.11
   4  -2 -21    0.36    0.09
   4  -2 -21    0.75    0.10
   5   2 -21   12.82    0.66
   5  -2  21   11.06    0.65
  -5  -2 -21   13.98    0.66
   5   2 -21   13.65    0.65
   5  -2 -21   12.99    0.66
   5   2  21   13.10    0.66
   5  -2 -21   12.39    0.65
   5  -2 -21   14.24    0.66
  -6  -2 -21    0.04    0.04
  -6  -2 -21    0.05    0.07
   6   2 -21   -0.01    0.04
   6   2 -21   -0.02    0.04
   6  -2 -21   -0.09    0.07
   6  -2 -21    0.03    0.04
   6  -2 -21    0.03    0.04
  -6   2 -21    0.03    0.04
   6   2  21   -0.02    0.04
   0  -3 -21    0.09    0.06
   0  -3  21   -0.12    0.08
   0  -3 -21    0.14    0.09
   0   3 -21    0.07    0.06
   0  -3 -21   -0.06    0.09
   0  -3  21    0.06    0.06
   0  -3 -21    0.05    0.07
  -1  -3 -21    2.36    0.22
   1   3 -21    2.36    0.17
   1  -3  21    2.79    0.18
   1  -3  21    2.26    0.19
   1  -3  21    2.50    0.16
  -1  -3 -21    3.15    0.21
  -1  -3 -21    2.48    0.20
  -1  -3 -21    2.57    0.18
   1  -3 -21    2.54    0.19
   1  -3 -21    2.64    0.20
   1  -3 -21    2.71    0.18
   1  -3 -21    2.37    0.19
  -2  -3 -21   60.15    3.03
   2  -3  21   61.18    3.03
  -2  -3 -21   65.35    3.05
   2   3 -21   63.90    3.03
   2  -3  21   61.04    3.02
   2  -3  21   62.02    3.02
   2  -3 -21   63.97    3.03
   2  -3 -21   62.02    3.04
   2  -3 -21   66.12    3.05
   2  -3 -21   60.16    3.03
   3  -3  21    2.70    0.18
  -3  -3 -21    2.79    0.22
   3   3 -21    2.73    0.17
  -3  -3 -21    2.43    0.18
   3  -3  21    2.66    0.17
   3  -3  21    2.84    0.18
  -3   3 -21    2.77    0.17
   3  -3 -21    2.91    0.20
   3  -3 -21    2.68    0.18
   3  -3 -21    2.82    0.19
  -4  -3 -21    0.00    0.05
  -4  -3 -21    0.19    0.10
   4   3 -21    0.13    0.05
   4  -3  21    0.13    0.05
   4   3 -21    0.06    0.07
   4  -3 -21    0.00    0.06
   4   3  21    0.12    0.05
   4  -3 -21    0.23    0.08
   4  -3 -21    0.03    0.04
  -5  -3 -21    5.64    0.31
   5   3 -21    5.61    0.30
   5  -3  21    5.49    0.30
   5   3 -21    5.38    0.30
   5   3  21    5.54    0.31
   5  -3 -21    5.68    0.30
   5  -3 -21    5.48    0.30
   5  -3 -21    6.02    0.32
   6   3 -21    7.11    0.37
   6   3 -21    7.11    0.37
  -6  -3 -21    7.82    0.37
   6  -3 -21    7.17    0.37
   6   3  21    7.04    0.37
   6  -3 -21    7.37    0.37
  -6   3 -21    7.12    0.37
   0  -4 -21   16.79    0.89
   0  -4  21   18.15    0.87
   0  -4 -21   17.90    0.91
   0  -4  21   17.75    0.89
   0  -4  21   17.62    0.88
   0   4 -21   17.42    0.88
   0  -4 -21   17.47    0.89
   0  -4 -21   18.37    0.91
  -1  -4 -21   28.25    1.42
   1  -4  21   29.19    1.40
   1  -4  21   28.47    1.41
   1   4 -21   29.24    1.40
  -1  -4 -21   28.81    1.41
  -1  -4 -21   28.12    1.41
  -1  -4 -21   28.77    1.43
   1  -4  21   28.85    1.42
  -1  -4 -21   28.59    1.43
   1  -4 -21   28.93    1.43
   1  -4 -21   29.63    1.41
   1  -4 -21   27.73    1.42
  -1  -4  21   28.29    1.42
   1  -4 -21   29.83    1.43
  -1  -4  21   28.33    1.40
  -2  -4 -21   17.13    0.92
  -2  -4 -21   19.78    0.92
  -2  -4 -21   16.52    0.93
   2  -4  21   17.43    0.92
   2   4 -21   18.58    0.91
  -2  -4 -21   18.67    0.94
   2  -4  21   19.60    0.91
   2  -4  21   18.49    0.91
  -2  -4  21   17.50    0.92
   2  -4 -21   19.30    0.94
   2  -4 -21   18.76    0.92
   2  -4 -21   17.19    0.92
   2  -4 -21   19.25    0.94
   3   4 -21    2.35    0.15
  -3  -4 -21    2.52    0.17
   3  -4  21    2.41    0.16
   3  -4  21    2.27    0.17
   3  -4  21    2.39    0.15
  -3  -4 -21    2.41    0.19
   3  -4 -21    2.40    0.18
   3  -4 -21    2.49    0.16
   3  -4 -21    2.26    0.17
  -4  -4 -21    3.77    0.22
   4  -4  21    3.49    0.21
   4   4 -21    4.19    0.21
  -4  -4 -21    3.58    0.24
   4  -4  21    3.37    0.22
   4  -4 -21    3.60    0.22
   4  -4 -21    3.51    0.21
   4  -4 -21    3.81    0.23
   4   4  21    3.78    0.22
   5   4 -21    2.99    0.18
   5  -4  21    2.91    0.17
   5   4 -21    3.14    0.17
  -5  -4 -21    3.35    0.18
   5   4  21    3.02    0.18
   5  -4 -21    2.96    0.18
   5  -4 -21    2.99    0.20
   5  -4 -21    2.99    0.17
  -6  -4 -21    0.78    0.07
   6   4 -21    0.68    0.06
   6  -4  21    0.73    0.06
  -6   4 -21    0.76    0.07
   6  -4 -21    0.76    0.07
   6   4  21    0.75    0.07
   6  -4 -21    0.71    0.06
   0   5 -21   -0.09    0.06
   0  -5  21   -0.01    0.06
   0  -5  21   -0.03    0.06
   0  -5 -21    0.12    0.08
   0  -5  21   -0.04    0.04
   0  -5 -21    0.07    0.05
   0  -5 -21    0.05    0.07
   0  -5 -21    0.07    0.08
  -1  -5 -21    0.72    0.13
   1  -5  21    0.82    0.08
   1  -5  21    0.75    0.09
   1   5 -21    0.68    0.09
  -1  -5 -21    0.96    0.15
  -1  -5 -21    0.71    0.10
   1  -5  21    0.83    0.11
  -1  -5 -21    0.84    0.13
  -1  -5 -21    0.86    0.13
  -1  -5  21    0.70    0.10
   1  -5 -21    0.63    0.14
  -1  -5  21    0.78    0.11
   1  -5 -21    0.82    0.10
   1  -5 -21    0.76    0.12
  -1  -5  21    0.79    0.09
   1  -5 -21    0.79    0.11
  -2  -5 -21    4.28    0.27
  -2  -5 -21    4.28    0.26
  -2  -5 -21    4.29    0.25
   2  -5  21    4.59    0.23
   2   5 -21    4.19    0.23
  -2  -5 -21    4.26    0.27
   2  -5  21    3.96    0.25
   2  -5  21    4.56    0.24
   2  -5 -21    4.06    0.25
   2  -5 -21    4.35    0.24
   2  -5 -21    4.08    0.27
   2  -5 -21    4.45    0.27
  -2  -5  21    3.68    0.25
  -2  -5  21    3.83    0.25
   3  -5  21    3.23    0.22
   3  -5  21    3.80    0.21
  -3  -5 -21    3.69    0.22
  -3  -5 -21    3.72    0.24
   3   5 -21    3.50    0.21
   3  -5  21    3.87    0.21
   3  -5 -21    3.74    0.22
   3  -5 -21    3.76    0.22
   3  -5 -21    4.00    0.24
   4  -5  21   11.10    0.57
  -4  -5 -21   11.93    0.58
   4  -5  21   11.56    0.59
   4  -5  21   10.90    0.57
   4   5 -21   11.48    0.57
  -4  -5 -21   11.35    0.58
   4  -5 -21   12.16    0.59
   4  -5 -21   11.17    0.58
   4  -5 -21   11.54    0.57
   4   5  21   10.76    0.58
  -5  -5 -21    9.72    0.49
   5  -5  21    9.26    0.48
   5   5 -21    9.58    0.48
   5  -5 -21    9.20    0.49
   5   5  21   10.13    0.49
   5  -5 -21   10.45    0.50
   5  -5 -21    9.74    0.49
   0  -6  21    2.24    0.17
   0  -6 -21    2.40    0.17
   0  -6 -21    2.56    0.18
   0  -6 -21    2.36    0.16
   0  -6  21    2.29    0.14
   0  -6 -21    2.77    0.18
   0   6 -21    2.34    0.16
   0  -6  21    2.26    0.15
  -1  -6 -21    4.29    0.25
  -1  -6 -21    4.44    0.27
   1   6 -21    4.44    0.24
   1  -6  21    4.51    0.26
   1  -6  21    4.69    0.24
  -1  -6 -21    4.26    0.26
  -1  -6 -21    4.96    0.28
   1  -6  21    4.32    0.24
  -1  -6  21    4.36    0.24
   1  -6 -21    4.33    0.25
   1  -6 -21    4.58    0.27
   1  -6 -21    4.90    0.28
  -1  -6  21    4.50    0.25
   1  -6 -21    4.73    0.26
  -1  -6  21    4.07    0.26
  -2  -6 -21    7.01    0.36
   2   6 -21    6.70    0.35
   2  -6  21    7.12    0.36
  -2  -6 -21    6.65    0.37
   2  -6  21    6.98    0.37
   2  -6  21    6.91    0.35
  -2  -6 -21    6.59    0.36
  -2  -6 -21    6.71    0.37
   2  -6 -21    6.44    0.36
  -2  -6  21    6.51    0.35
   2  -6 -21    6.96    0.38
   2  -6 -21    7.46    0.38
   2  -6 -21    6.76    0.37
  -2  -6  21    6.82    0.38
   3   6 -21   14.60    0.69
  -3  -6 -21   14.11    0.70
   3  -6  21   14.31    0.69
  -3  -6 -21   14.52    0.71
   3  -6  21   14.12    0.69
   3  -6  21   13.99    0.71
   3  -6 -21   13.52    0.70
   3  -6 -21   12.94    0.70
   3   6  21   13.78    0.70
   3  -6 -21   14.29    0.71
   4   6 -21    0.06    0.03
  -4  -6 -21    0.04    0.03
   4  -6  21    0.08    0.03
  -4  -6 -21    0.04    0.06
   4  -6 -21    0.14    0.04
   4   6  21    0.01    0.03
   4  -6 -21    0.03    0.03
   4  -6 -21    0.06    0.05
   0  -7 -21   -0.06    0.05
   0  -7 -21    0.02    0.05
   0  -7  21   -0.01    0.07
   0  -7  21   -0.02    0.04
   0  -7 -21   -0.05    0.05
   0  -7  21    0.02    0.03
   0  -7 -21    0.02    0.04
   1  -7  21    0.78    0.11
  -1  -7 -21    0.64    0.09
   1  -7  21    0.64    0.06
  -1  -7 -21    0.69    0.09
   1   7 -21    0.75    0.07
   1  -7  21    0.70    0.07
  -1  -7 -21    0.68    0.09
   1  -7 -21    0.69    0.09
  -1  -7  21    0.75    0.07
  -1  -7  21    0.78    0.12
   1  -7 -21    0.68    0.08
   1  -7 -21    0.67    0.09
   1  -7 -21    0.73    0.07
  -1  -7  21    0.63    0.07
   2  -7  21    0.03    0.03
   2   7 -21    0.05    0.03
   2  -7  21   -0.02    0.08
  -2  -7 -21    0.10    0.04
  -2  -7 -21    0.03    0.06
  -2  -7 -21    0.08    0.05
  -2  -7 -21    0.08    0.05
   2  -7  21    0.06    0.03
   2  -7 -21    0.11    0.06
   2  -7 -21    0.08    0.05
   2  -7 -21    0.02    0.03
  -2  -7  21    0.24    0.06
   2  -7 -21    0.10    0.05
  -3  -7 -21    2.69    0.15
   3   7 -21    2.32    0.14
   3   7 -21    2.49    0.14
   3  -7  21    2.64    0.14
  -3  -7 -21    2.24    0.14
   3  -7  21    2.47    0.13
   3  -7 -21    2.21    0.14
   3  -7 -21    2.47    0.15
   3  -7 -21    2.67    0.15
   3   7  21    2.44    0.14
   0  -8  21    0.63    0.05
   0  -8  21    0.61    0.06
   0  -8 -21    0.54    0.07
   0  -8 -21    0.61    0.06
   0  -8 -21    0.61    0.06
   1  -8  21    1.68    0.09
   1  -8  21    1.76    0.09
  -1  -8 -21    1.39    0.10
  -1  -8 -21    1.64    0.10
   1  -8 -21    1.59    0.10
  -1  -8  21    1.61    0.10
   1  -8 -21    1.34    0.10
   1  -8 -21    1.61    0.11
   0   0 -22    1.46    0.15
   0   0 -22    1.53    0.12
   1   0 -22   38.56    1.88
   1   0 -22   38.30    1.88
  -1   0 -22   38.87    1.88
   2   0 -22   14.74    0.74
  -2   0 -22   14.91    0.75
   2   0 -22   14.01    0.78
   2   0 -22   15.56    0.75
  -3   0 -22   95.89    4.61
   3   0 -22   96.87    4.61
   3   0 -22   93.88    4.61
  -4   0 -22    7.23    0.41
   4   0 -22    7.46    0.39
   4   0 -22    7.09    0.39
  -4   0 -22    7.20    0.39
  -5   0 -22    0.22    0.07
   5   0 -22    0.15    0.05
   5   0 -22    0.25    0.07
  -6   0 -22    2.12    0.14
   6   0 -22    2.31    0.14
   6   0 -22    2.13    0.14
   0   1 -22    0.04    0.07
   0   1 -22   -0.04    0.04
   0  -1 -22    0.00    0.05
   0  -1 -22   -0.01    0.08
   1   1 -22    1.26    0.12
   1   1 -22    1.24    0.11
  -1  -1 -22    1.11    0.14
  -1  -1 -22    0.72    0.19
  -1  -1 -22    1.11    0.11
  -1   1 -22    1.15    0.11
   1  -1 -22    1.26    0.13
   1  -1 -22    1.27    0.12
  -2  -1 -22    1.92    0.15
   2   1 -22    1.96    0.14
   2   1 -22    1.69    0.14
  -2  -1 -22    1.66    0.14
   2  -1 -22    1.66    0.15
   2  -1 -22    2.19    0.17
   2  -1 -22    1.42    0.16
  -2   1 -22    1.63    0.13
   2  -1 -22    1.88    0.14
  -3  -1 -22   99.97    4.49
  -3  -1 -22   91.24    4.48
   3   1 -22   94.89    4.48
   3  -1  22   90.31    4.47
   3   1 -22   91.60    4.48
   3   1 -22   90.16    4.47
   3  -1 -22   90.99    4.48
  -3   1 -22   92.95    4.48
   3   1  22   85.38    4.48
   3  -1 -22   97.72    4.48
   3  -1 -22   97.20    4.49
  -4  -1 -22    0.03    0.05
  -4  -1 -22   -0.01    0.09
   4  -1  22    0.06    0.07
   4   1 -22   -0.04    0.04
   4  -1 -22    0.12    0.06
  -4   1 -22    0.11    0.09
   4  -1 -22    0.12    0.06
   4  -1 -22    0.03    0.06
   4   1  22   -0.04    0.07
  -5  -1 -22   29.52    1.30
   5   1 -22   26.98    1.30
   5   1 -22   26.99    1.30
   5  -1 -22   25.34    1.30
   5  -1 -22   25.17    1.79
   5   1  22   23.44    1.29
   5  -1 -22   26.35    1.30
  -5   1 -22   27.19    1.30
  -6  -1 -22    1.86    0.13
   6   1 -22    2.13    0.13
   6   1 -22    2.07    0.13
  -6  -1 -22    2.03    0.13
   6  -1 -22    2.18    0.15
   6  -1 -22    1.68    0.17
   6  -1 -22    2.33    0.13
  -6   1 -22    2.13    0.13
   0   2 -22    9.09    0.48
   0  -2 -22    9.78    0.49
   0  -2 -22    9.20    0.49
   0  -2 -22    8.60    0.49
   0  -2  22    9.36    0.48
  -1  -2 -22   87.03    4.20
  -1  -2 -22   86.56    4.19
  -1  -2 -22   90.36    4.20
   1  -2  22   89.31    4.18
   1   2 -22   88.94    4.18
  -1  -2 -22   77.71    4.18
   1  -2 -22   89.09    4.20
   1  -2 -22   83.43    4.19
   1  -2 -22   86.24    4.19
   1  -2 -22   89.59    4.20
   2  -2  22    0.49    0.08
  -2  -2 -22    0.58    0.12
  -2  -2 -22    0.56    0.11
   2   2 -22    0.68    0.09
   2  -2 -22    0.58    0.11
   2  -2 -22    0.60    0.14
   2  -2 -22    0.59    0.12
  -2   2 -22    0.60    0.08
   2  -2 -22    0.49    0.10
  -3  -2 -22    9.66    0.50
  -3  -2 -22    9.28    0.48
   3   2 -22    9.50    0.48
   3  -2  22    8.80    0.49
   3   2 -22    8.85    0.47
   3  -2  22    9.11    0.47
   3  -2 -22    9.41    0.48
   3  -2 -22    8.82    0.49
   3  -2 -22    9.31    0.48
  -3   2 -22    8.74    0.47
   4   2 -22    2.57    0.17
   4   2 -22    2.58    0.18
   4  -2  22    2.41    0.17
  -4  -2 -22    2.54    0.18
  -4  -2 -22    3.28    0.22
   4  -2 -22    2.73    0.19
   4   2  22    2.47    0.18
   4  -2 -22    2.50    0.17
  -4   2 -22    2.96    0.24
   4  -2 -22    2.94    0.18
   5   2 -22    3.41    0.20
   5  -2  22    3.53    0.20
  -5  -2 -22    3.58    0.21
   5   2 -22    3.52    0.20
   5   2  22    3.61    0.21
   5  -2 -22    3.49    0.20
   5  -2 -22    3.78    0.22
   5  -2 -22    3.48    0.21
  -5   2 -22    3.44    0.23
   6   2 -22   -0.01    0.04
   6   2 -22   -0.02    0.04
  -6  -2 -22   -0.03    0.03
   6  -2 -22    0.02    0.04
   6  -2 -22   -0.01    0.03
  -6   2 -22   -0.04    0.03
   6   2  22   -0.02    0.04
   6  -2 -22    0.04    0.07
   0  -3 -22    0.04    0.10
   0  -3 -22   -0.02    0.06
   0  -3 -22    0.04    0.08
   0   3 -22   -0.07    0.07
   0  -3 -22    0.05    0.07
   0  -3  22    0.02    0.06
  -1  -3 -22    4.49    0.29
  -1  -3 -22    4.78    0.32
   1   3 -22    4.96    0.28
  -1  -3 -22    4.92    0.29
   1  -3  22    5.03    0.29
   1  -3  22    5.24    0.27
  -1  -3 -22    4.97    0.30
   1  -3 -22    4.59    0.29
   1  -3 -22    5.23    0.29
   1  -3 -22    5.14    0.30
   1  -3 -22    5.14    0.30
   2  -3  22    1.84    0.15
   2  -3  22    1.97    0.13
  -2  -3 -22    2.02    0.17
   2  -3  22    1.93    0.16
  -2  -3 -22    1.99    0.16
   2   3 -22    1.83    0.13
   2  -3 -22    1.75    0.18
   2  -3 -22    1.86    0.16
   2  -3 -22    1.99    0.15
   2  -3 -22    1.86    0.16
  -3  -3 -22    2.81    0.18
   3  -3  22    2.31    0.18
   3  -3  22    2.63    0.17
   3   3 -22    2.69    0.17
  -3  -3 -22    2.61    0.20
   3   3 -22    2.53    0.16
   3  -3  22    2.60    0.16
  -3   3 -22    2.66    0.17
   3  -3 -22    2.45    0.18
   3  -3 -22    2.68    0.19
   3  -3 -22    2.83    0.18
   4   3 -22    0.59    0.11
  -4  -3 -22    0.75    0.09
  -4  -3 -22    0.68    0.14
   4   3 -22    0.75    0.08
   4  -3  22    0.60    0.08
   4  -3 -22    0.60    0.09
   4  -3 -22    0.83    0.11
   4   3  22    0.72    0.10
   4  -3 -22    0.54    0.09
  -5  -3 -22    5.34    0.29
   5   3 -22    5.14    0.29
   5   3 -22    5.11    0.28
   5  -3  22    5.55    0.28
   5  -3 -22    5.34    0.29
   5   3  22    5.35    0.29
   5  -3 -22    5.70    0.30
   5  -3 -22    5.60    0.29
   6   3 -22    0.35    0.06
  -6  -3 -22    0.23    0.05
   6   3 -22    0.20    0.06
   6  -3 -22    0.36    0.05
   6   3  22    0.31    0.06
  -6   3 -22    0.30    0.05
   6  -3 -22    0.20    0.05
   0  -4 -22   14.00    0.76
   0  -4 -22   15.82    0.77
   0  -4  22   14.24    0.75
   0  -4  22   14.50    0.74
   0  -4 -22   15.19    0.77
   0   4 -22   14.86    0.74
   0  -4  22   15.26    0.74
   0  -4 -22   14.72    0.75
   1  -4  22    3.18    0.19
  -1  -4 -22    3.18    0.22
  -1  -4 -22    3.13    0.20
   1  -4  22    3.02    0.21
   1  -4  22    3.48    0.20
   1   4 -22    3.05    0.19
  -1  -4 -22    3.29    0.23
  -1  -4 -22    3.18    0.22
  -1  -4 -22    2.98    0.23
  -1  -4  22    2.88    0.22
   1  -4 -22    3.21    0.22
   1  -4 -22    3.17    0.21
   1  -4 -22    3.42    0.21
   1  -4 -22    3.43    0.23
  -1  -4  22    3.12    0.22
   2   4 -22    6.68    0.37
  -2  -4 -22    7.84    0.41
   2  -4  22    6.78    0.39
   2  -4  22    7.70    0.38
  -2  -4 -22    7.00    0.39
   2  -4  22    7.38    0.37
   2  -4 -22    7.51    0.41
   2  -4 -22    6.84    0.40
   2  -4 -22    7.29    0.39
   2  -4 -22    6.92    0.39
   3   4 -22    6.77    0.36
  -3  -4 -22    6.75    0.37
  -3  -4 -22    7.10    0.38
   3  -4  22    6.97    0.36
   3  -4  22    6.65    0.35
   3  -4  22    6.26    0.37
   3  -4 -22    6.47    0.37
   3  -4 -22    6.90    0.38
  -3   4 -22    7.23    0.36
   3  -4 -22    6.85    0.36
   4  -4  22    2.17    0.14
   4   4 -22    2.03    0.13
  -4  -4 -22    2.25    0.17
  -4  -4 -22    1.99    0.14
   4   4  22    2.11    0.15
   4  -4 -22    2.20    0.15
   4  -4 -22    2.22    0.14
   4  -4 -22    2.30    0.16
   5   4 -22    0.74    0.06
  -5  -4 -22    0.67    0.07
   5  -4  22    0.73    0.07
   5   4  22    0.73    0.07
   5  -4 -22    0.68    0.07
   5  -4 -22    0.74    0.07
   5  -4 -22    0.78    0.10
   0  -5 -22   -0.01    0.07
   0   5 -22    0.07    0.06
   0  -5 -22    0.08    0.07
   0  -5  22    0.00    0.06
   0  -5  22    0.04    0.04
   0  -5  22   -0.02    0.07
   0  -5 -22    0.01    0.05
   0  -5 -22    0.04    0.07
  -1  -5 -22    0.99    0.13
  -1  -5 -22    0.89    0.12
   1  -5  22    0.97    0.08
   1  -5  22    1.05    0.10
   1   5 -22    0.84    0.09
  -1  -5 -22    0.91    0.13
  -1  -5 -22    0.99    0.11
  -1  -5 -22    1.21    0.13
   1  -5  22    0.93    0.12
  -1  -5  22    1.08    0.10
   1  -5 -22    1.04    0.12
  -1  -5  22    0.87    0.11
  -1  -5  22    0.81    0.13
   1  -5 -22    0.95    0.12
   1  -5 -22    1.08    0.10
   1  -5 -22    0.85    0.13
  -2  -5 -22    0.19    0.06
   2  -5  22    0.07    0.04
   2  -5  22    0.18    0.07
  -2  -5 -22    0.44    0.14
   2   5 -22    0.11    0.04
  -2  -5 -22    0.02    0.09
  -2  -5 -22    0.11    0.07
   2  -5 -22    0.28    0.09
   2  -5 -22    0.17    0.08
  -2  -5  22    0.17    0.10
   2  -5 -22    0.19    0.07
   2  -5 -22    0.20    0.05
   3  -5  22    0.15    0.07
  -3  -5 -22    0.25    0.07
   3  -5  22    0.23    0.05
   3  -5  22    0.29    0.06
   3   5 -22    0.28    0.05
  -3  -5 -22    0.15    0.06
   3  -5 -22    0.21    0.07
   3  -5 -22    0.30    0.07
  -3   5 -22    0.23    0.06
   3  -5 -22    0.15    0.06
  -4  -5 -22    0.72    0.08
   4   5 -22    0.80    0.07
   4  -5  22    0.87    0.07
  -4  -5 -22    0.65    0.11
   4  -5 -22    0.85    0.09
   4  -5 -22    0.75    0.08
   4  -5 -22    0.77    0.08
   4   5  22    0.89    0.08
  -5  -5 -22    0.51    0.06
   5  -5  22    0.51    0.05
   5   5 -22    0.41    0.05
   5  -5 -22    0.69    0.10
   5  -5 -22    0.58    0.05
   5  -5 -22    0.49    0.06
   5   5  22    0.42    0.06
   0  -6 -22    0.26    0.07
   0  -6  22    0.24    0.08
   0  -6 -22    0.25    0.07
   0  -6 -22    0.33    0.09
   0  -6 -22    0.17    0.06
   0  -6  22    0.19    0.05
   0  -6  22    0.28    0.05
  -1  -6 -22   12.28    0.65
  -1  -6 -22   12.70    0.66
   1  -6  22   12.54    0.63
   1   6 -22   13.47    0.63
   1  -6  22   12.97    0.64
   1  -6  22   12.86    0.65
  -1  -6 -22   12.79    0.65
   1  -6 -22   12.26    0.65
  -1  -6  22   12.83    0.63
  -1  -6  22   12.52    0.63
   1  -6 -22   12.32    0.64
  -1  -6  22   12.75    0.65
   1  -6 -22   13.25    0.66
   1  -6 -22   13.06    0.65
   2  -6  22    0.49    0.10
  -2  -6 -22    0.35    0.09
   2  -6  22    0.45    0.06
  -2  -6 -22    0.44    0.09
   2   6 -22    0.51    0.06
   2  -6  22    0.52    0.05
  -2  -6 -22    0.32    0.08
  -2  -6 -22    0.58    0.12
  -2  -6  22    0.51    0.11
   2  -6 -22    0.60    0.10
   2  -6 -22    0.31    0.08
   2  -6 -22    0.32    0.08
   2  -6 -22    0.49    0.07
  -2  -6  22    0.37    0.11
  -3  -6 -22    3.94    0.21
   3   6 -22    3.88    0.20
   3  -6  22    3.45    0.22
  -3  -6 -22    3.62    0.20
   3  -6  22    3.84    0.20
   3  -6  22    3.73    0.20
   3  -6 -22    3.37    0.20
   3  -6 -22    3.55    0.21
   3  -6 -22    3.90    0.22
  -3   6 -22    3.52    0.20
   3   6  22    3.54    0.21
   4  -6  22    0.06    0.03
  -4  -6 -22    0.05    0.03
   4   6 -22    0.07    0.03
   4  -6 -22    0.02    0.04
   4  -6 -22   -0.02    0.05
   4  -6 -22    0.01    0.03
   4   6  22    0.04    0.03
   0  -7 -22    0.01    0.04
   0  -7 -22    0.01    0.05
   0  -7 -22    0.02    0.04
   0  -7  22   -0.03    0.03
   0  -7  22    0.02    0.11
   0  -7  22   -0.02    0.04
  -1  -7 -22    0.80    0.08
  -1  -7 -22    0.81    0.09
   1  -7  22    0.84    0.07
   1  -7  22    0.78    0.06
   1   7 -22    0.94    0.08
  -1  -7 -22    0.76    0.09
  -1  -7  22    0.84    0.07
  -1  -7  22    0.72    0.07
   1  -7 -22    0.85    0.08
   1  -7 -22    0.82    0.09
   1  -7 -22    0.76    0.08
   1  -7 -22    0.77    0.07
  -2  -7 -22    0.05    0.03
  -2  -7 -22    0.02    0.05
  -2  -7 -22    0.08    0.05
   2  -7  22    0.03    0.03
   2   7 -22    0.02    0.03
   2  -7  22    0.06    0.03
   2  -7 -22    0.03    0.05
   2  -7 -22    0.02    0.04
   2  -7 -22    0.03    0.03
   2  -7 -22   -0.01    0.04
   3   7 -22   13.96    0.71
  -3  -7 -22   14.45    0.71
  -3  -7 -22   14.53    0.71
   3  -7  22   14.69    0.71
   3  -7  22   14.61    0.71
   3  -7 -22   15.54    0.72
   3  -7 -22   14.23    0.72
   3   7  22   14.37    0.71
   0   0 -23   -0.08    0.08
   0   0 -23   -0.02    0.05
  -1   0 -23   -0.03    0.05
   1   0 -23   -0.02    0.05
   1   0 -23   -0.07    0.05
  -2   0 -23    0.01    0.04
   2   0 -23    0.01    0.05
   2   0 -23   -0.01    0.05
   3   0 -23    0.13    0.08
   3   0 -23   -0.04    0.04
   3   0 -23   -0.08    0.08
  -3   0 -23    0.12    0.06
  -4   0 -23    0.09    0.09
   4   0 -23   -0.04    0.05
  -4   0 -23    0.00    0.05
   4   0 -23    0.04    0.04
   5   0 -23   -0.05    0.04
  -5   0 -23    0.06    0.04
   5   0 -23   -0.01    0.04
   6   0 -23   -0.03    0.04
  -6   0 -23    0.05    0.05
   6   0 -23   -0.02    0.04
  -6   0 -23    0.02    0.04
   0   1 -23    0.16    0.05
   0   1 -23    0.04    0.08
   0  -1 -23   -0.04    0.05
   0  -1 -23    0.05    0.08
  -1  -1 -23    2.17    0.16
   1   1 -23    2.35    0.15
   1   1 -23    2.24    0.16
  -1  -1 -23    2.28    0.17
   1  -1 -23    2.15    0.17
   1  -1 -23    2.26    0.17
  -1   1 -23    2.24    0.15
  -2  -1 -23    1.19    0.12
   2   1 -23    1.27    0.12
  -2  -1 -23    1.31    0.13
   2   1 -23    1.36    0.12
   2  -1 -23    1.25    0.12
   2  -1 -23    1.20    0.16
   2  -1 -23    1.27    0.13
  -2   1 -23    1.33    0.11
   3   1 -23    1.32    0.13
   3   1 -23    1.18    0.14
  -3  -1 -23    1.52    0.12
  -3  -1 -23    1.28    0.14
   3   1 -23    1.34    0.11
   3  -1 -23    1.68    0.15
   3  -1 -23    1.53    0.13
   3  -1 -23    1.42    0.14
  -3   1 -23    1.38    0.12
   4   1 -23    1.25    0.12
   4  -1  23    1.25    0.12
  -4  -1 -23    1.10    0.16
   4   1 -23    1.11    0.10
  -4  -1 -23    0.95    0.11
   4  -1 -23    1.21    0.12
   4  -1 -23    1.50    0.12
  -4   1 -23    1.24    0.15
   4  -1 -23    1.04    0.12
   5   1 -23    4.64    0.26
   5   1 -23    4.82    0.26
  -5  -1 -23    4.99    0.27
  -5   1 -23    5.03    0.26
   5  -1 -23    4.63    0.26
   5  -1 -23    4.82    0.27
   5  -1 -23    4.65    0.27
   6   1 -23   12.35    0.61
  -6  -1 -23   11.91    0.61
   6   1 -23   12.27    0.61
   6  -1 -23   12.25    0.61
   6  -1 -23   13.01    0.62
  -6   1 -23   12.30    0.61
   0   2 -23    7.64    0.43
   0  -2 -23    8.14    0.44
   0  -2 -23    8.41    0.44
   0  -2  23    8.32    0.43
   0  -2 -23    8.09    0.44
  -1  -2 -23    0.31    0.07
   1  -2  23    0.31    0.07
  -1  -2 -23    0.23    0.08
  -1  -2 -23    0.31    0.09
  -1  -2 -23    0.28    0.11
   1   2 -23    0.31    0.09
   1  -2 -23    0.45    0.11
   1  -2 -23    0.37    0.10
   1  -2 -23    0.25    0.10
   1  -2 -23    0.43    0.11
   2   2 -23   45.77    2.23
   2   2 -23   46.75    2.23
  -2  -2 -23   45.33    2.23
  -2  -2 -23   46.53    2.24
   2  -2 -23   46.50    2.24
   2  -2 -23   46.22    2.24
   2  -2 -23   46.66    2.23
   2  -2 -23   44.39    2.24
  -2   2 -23   45.19    2.23
   3   2 -23    4.77    0.27
  -3  -2 -23    5.04    0.28
   3  -2  23    4.91    0.28
  -3  -2 -23    5.11    0.30
   3   2 -23    4.79    0.27
   3  -2 -23    4.82    0.27
   3   2  23    4.84    0.28
  -3   2 -23    4.93    0.27
   3  -2 -23    4.68    0.28
   3  -2 -23    4.78    0.28
   4   2 -23    0.02    0.04
  -4  -2 -23    0.02    0.05
   4   2 -23    0.03    0.07
  -4  -2 -23    0.15    0.09
   4  -2  23    0.02    0.06
   4   2  23    0.08    0.05
   4  -2 -23    0.03    0.05
   4  -2 -23    0.08    0.06
  -4   2 -23   -0.06    0.08
   4  -2 -23    0.08    0.05
   5  -2  23    0.46    0.07
  -5  -2 -23    0.27    0.07
   5   2 -23    0.32    0.06
   5   2 -23    0.37    0.07
   5  -2 -23    0.50    0.07
   5  -2 -23    0.37    0.07
   5   2  23    0.34    0.08
   5  -2 -23    0.38    0.08
   6   2 -23    0.23    0.06
   6   2 -23    0.35    0.06
   6  -2 -23    0.44    0.10
   6  -2 -23    0.27    0.05
   6   2  23    0.34    0.07
   6  -2 -23    0.37    0.07
   0   3 -23    0.12    0.07
   0  -3 -23    0.03    0.06
   0  -3 -23    0.02    0.10
   0  -3 -23   -0.07    0.06
   0  -3 -23   -0.02    0.07
   0  -3  23    0.06    0.06
   1   3 -23    8.58    0.43
  -1  -3 -23    7.42    0.45
  -1  -3 -23    8.16    0.44
  -1  -3 -23    8.29    0.45
  -1  -3 -23    8.29    0.43
   1  -3  23    8.37    0.42
   1  -3 -23    8.15    0.45
   1  -3 -23    8.25    0.43
   1  -3 -23    8.00    0.45
   1  -3 -23    7.91    0.44
   2  -3  23   36.36    1.86
   2  -3  23   38.11    1.84
   2  -3  23   37.47    1.85
   2   3 -23   37.82    1.85
  -2  -3 -23   38.79    1.87
  -2  -3 -23   38.22    1.85
   2  -3 -23   40.62    1.87
   2  -3 -23   36.24    1.86
   2  -3 -23   37.36    1.86
   2  -3 -23   38.67    1.85
   3   3 -23    9.79    0.50
   3   3 -23    8.90    0.49
  -3  -3 -23   10.21    0.52
   3  -3  23    9.15    0.51
   3  -3  23    9.93    0.50
  -3  -3 -23    9.82    0.50
   3  -3 -23    9.79    0.51
   3  -3 -23    9.73    0.51
   3  -3 -23    9.60    0.50
  -3   3 -23    9.87    0.49
   4   3 -23    6.83    0.34
  -4  -3 -23    6.46    0.35
   4  -3  23    6.42    0.33
  -4  -3 -23    6.25    0.34
   4  -3 -23    6.56    0.35
   4  -3 -23    6.17    0.33
   4  -3 -23    5.69    0.34
   4   3  23    6.22    0.34
  -5  -3 -23    2.00    0.13
   5   3 -23    1.97    0.12
   5  -3  23    1.95    0.12
   5   3 -23    1.76    0.13
   5  -3 -23    1.92    0.13
   5  -3 -23    1.96    0.14
   5  -3 -23    1.91    0.12
   5   3  23    1.87    0.13
  -6  -3 -23   15.23    0.71
   6   3 -23   14.23    0.70
   6  -3 -23   14.77    0.71
   6   3  23   14.42    0.70
   6  -3 -23   13.51    0.70
  -6   3 -23   14.19    0.70
   0  -4  23    7.13    0.36
   0  -4  23    6.50    0.39
   0   4 -23    7.04    0.37
   0  -4 -23    6.55    0.38
   0  -4 -23    6.88    0.38
   0  -4 -23    7.02    0.39
   0  -4 -23    7.21    0.39
  -1  -4 -23    7.10    0.39
   1  -4  23    6.63    0.35
   1  -4  23    6.77    0.36
  -1  -4 -23    5.95    0.37
   1   4 -23    6.62    0.36
   1  -4  23    6.54    0.38
  -1  -4 -23    6.83    0.39
  -1  -4 -23    7.08    0.39
  -1  -4 -23    6.85    0.37
   1  -4 -23    6.93    0.38
   1  -4 -23    6.85    0.38
   1  -4 -23    7.38    0.39
   1  -4 -23    7.08    0.37
   2  -4  23   28.11    1.50
  -2  -4 -23   30.05    1.50
   2   4 -23   29.58    1.49
   2  -4  23   31.59    1.49
  -2  -4 -23   30.60    1.51
   2  -4  23   31.29    1.49
   2  -4 -23   31.91    1.51
   2  -4 -23   30.78    1.51
   2  -4 -23   30.58    1.50
   2  -4 -23   31.81    1.52
   3   4 -23    2.19    0.14
   3  -4  23    2.22    0.14
   3  -4  23    1.89    0.14
   3   4 -23    2.15    0.14
  -3  -4 -23    2.63    0.17
   3  -4  23    1.88    0.17
  -3  -4 -23    2.03    0.15
   3  -4 -23    2.22    0.16
  -3   4 -23    2.25    0.14
   3  -4 -23    2.20    0.15
   3  -4 -23    2.16    0.16
  -4  -4 -23    5.95    0.32
   4  -4  23    6.00    0.31
   4   4 -23    5.97    0.31
  -4  -4 -23    5.68    0.31
   4   4  23    5.65    0.32
   4  -4 -23    6.11    0.32
   4  -4 -23    5.90    0.31
   4  -4 -23    5.80    0.32
   5  -4  23    3.23    0.17
  -5  -4 -23    3.13    0.18
   5   4 -23    3.24    0.17
   5   4  23    3.06    0.18
   5  -4 -23    3.19    0.18
   5  -4 -23    3.02    0.17
   5  -4 -23    3.37    0.19
   0  -5 -23   -0.06    0.07
   0  -5  23    0.15    0.09
   0  -5  23    0.05    0.06
   0  -5 -23    0.02    0.05
   0   5 -23    0.04    0.06
   0  -5 -23    0.07    0.07
   0  -5  23   -0.01    0.04
   0  -5 -23    0.04    0.06
  -1  -5 -23    0.68    0.12
   1  -5  23    0.83    0.09
   1   5 -23    1.01    0.09
  -1  -5 -23    0.99    0.12
   1  -5  23    0.85    0.08
  -1  -5 -23    1.04    0.12
  -1  -5 -23    0.81    0.10
   1  -5  23    0.69    0.12
  -1  -5  23    0.98    0.09
   1  -5 -23    0.91    0.10
   1  -5 -23    0.86    0.12
  -1  -5  23    0.67    0.14
   1  -5 -23    1.09    0.12
   1  -5 -23    1.20    0.12
  -2  -5 -23    6.72    0.35
   2  -5  23    6.81    0.37
  -2  -5 -23    5.88    0.37
   2   5 -23    6.76    0.34
   2  -5  23    5.95    0.34
  -2  -5 -23    6.51    0.36
   2  -5  23    6.83    0.34
  -2  -5 -23    6.06    0.36
   2  -5 -23    6.79    0.36
   2  -5 -23    6.69    0.35
   2  -5 -23    6.79    0.36
   2  -5 -23    7.03    0.37
   3  -5  23   16.08    0.79
   3   5 -23   15.47    0.78
  -3  -5 -23   17.07    0.81
  -3  -5 -23   15.92    0.79
   3  -5  23   15.82    0.81
   3  -5  23   16.38    0.79
   3   5 -23   15.46    0.79
  -3   5 -23   16.42    0.79
   3  -5 -23   15.91    0.80
   3  -5 -23   15.10    0.80
   3  -5 -23   16.32    0.81
   3   5  23   16.26    0.80
   4  -5  23    6.27    0.32
  -4  -5 -23    5.89    0.32
  -4  -5 -23    6.24    0.33
   4   5 -23    6.10    0.32
   4  -5 -23    6.54    0.33
   4  -5 -23    6.24    0.32
   4  -5 -23    5.84    0.32
   4   5  23    6.29    0.32
   5   5 -23    4.09    0.21
   5  -5  23    4.17    0.21
  -5  -5 -23    4.10    0.21
   5  -5 -23    4.02    0.21
   5   5  23    4.05    0.21
   5  -5 -23    3.72    0.21
   0  -6  23    8.52    0.43
   0  -6  23    8.33    0.43
   0  -6 -23    8.39    0.45
   0  -6 -23    8.71    0.45
   0  -6  23    8.73    0.46
   0  -6 -23    8.60    0.44
   0  -6 -23    8.57    0.45
   1  -6  23   12.24    0.61
   1   6 -23   12.90    0.62
  -1  -6 -23   11.95    0.63
   1  -6  23   12.77    0.64
   1  -6  23   12.71    0.62
  -1  -6 -23   12.82    0.64
  -1  -6 -23   12.13    0.63
  -1  -6  23   12.29    0.61
   1  -6 -23   12.46    0.64
  -1  -6  23   12.47    0.64
   1  -6 -23   13.31    0.63
   1  -6 -23   12.11    0.63
   1  -6 -23   11.65    0.63
  -1  -6  23   12.15    0.61
  -2  -6 -23    4.37    0.24
  -2  -6 -23    3.74    0.23
   2  -6  23    4.38    0.22
  -2  -6 -23    4.08    0.23
   2  -6  23    4.10    0.25
   2   6 -23    4.31    0.22
   2  -6  23    4.10    0.22
   2  -6 -23    3.92    0.23
   2  -6 -23    4.24    0.24
   2  -6 -23    3.86    0.23
   2  -6 -23    4.21    0.24
  -3  -6 -23    8.81    0.46
  -3  -6 -23    9.53    0.47
   3  -6  23    9.25    0.46
   3  -6  23    9.50    0.46
   3   6 -23    9.53    0.46
   3   6 -23    9.11    0.46
   3  -6 -23    8.69    0.46
   3  -6 -23    9.19    0.47
   3  -6 -23    9.49    0.47
   3   6  23    9.20    0.47
  -3   6 -23    9.01    0.46
   4  -6  23    0.09    0.03
  -4  -6 -23    0.10    0.03
   4   6 -23    0.13    0.04
   4  -6 -23    0.02    0.04
   4  -6 -23    0.15    0.04
   4   6  23    0.03    0.03
   4  -6 -23    0.10    0.05
   0  -7 -23    0.03    0.04
   0  -7 -23    0.04    0.05
   0  -7  23   -0.05    0.04
   0  -7 -23    0.01    0.03
   0  -7  23   -0.02    0.03
   1  -7  23    0.22    0.04
  -1  -7 -23    0.21    0.07
  -1  -7 -23    0.22    0.07
   1  -7  23    0.28    0.05
  -1  -7 -23    0.21    0.06
   1   7 -23    0.27    0.07
   1  -7 -23    0.19    0.06
   1  -7 -23    0.13    0.05
   1  -7 -23    0.16    0.05
  -1  -7  23    0.24    0.07
  -2  -7 -23   -0.03    0.03
   2  -7  23    0.02    0.03
   2  -7  23    0.02    0.03
   2   7 -23    0.09    0.04
   2  -7 -23   -0.03    0.03
   2  -7 -23    0.04    0.04
   2   7  23    0.14    0.04
   2  -7 -23    0.00    0.03
  -2   7 -23    0.02    0.03
   0   0 -24   25.38    1.27
   0   0 -24   26.02    1.27
   1   0 -24    2.54    0.18
   1   0 -24    2.75    0.17
  -1   0 -24    2.54    0.17
   2   0 -24    0.04    0.05
  -2   0 -24    0.12    0.05
   2   0 -24    0.12    0.06
  -3   0 -24   10.03    0.53
  -3   0 -24   10.26    0.54
   3   0 -24   10.62    0.54
   3   0 -24   10.42    0.53
   4   0 -24    3.71    0.22
  -4   0 -24    3.52    0.21
   4   0 -24    3.42    0.22
  -4   0 -24    4.06    0.24
   5   0 -24   33.21    1.63
   5   0 -24   34.18    1.63
  -5   0 -24   32.99    1.63
   6   0 -24    4.94    0.26
   6   0 -24    5.00    0.26
  -6   0 -24    4.85    0.26
   0   1 -24   -0.05    0.04
   0  -1 -24   -0.08    0.05
   0  -1 -24    0.08    0.08
   0   1 -24    0.12    0.07
  -1  -1 -24    2.18    0.16
  -1  -1 -24    1.91    0.17
   1   1 -24    2.22    0.16
   1   1 -24    2.34    0.15
   1  -1 -24    2.31    0.17
   1  -1 -24    2.36    0.16
  -1   1 -24    2.31    0.15
   2   1 -24    1.03    0.11
   2   1 -24    1.02    0.10
  -2  -1 -24    0.98    0.11
  -2  -1 -24    1.24    0.11
   2  -1 -24    0.90    0.12
   2  -1 -24    0.97    0.11
   2  -1 -24    0.99    0.15
  -2   1 -24    0.87    0.10
  -3  -1 -24    0.68    0.09
   3   1 -24    0.59    0.09
  -3  -1 -24    0.58    0.12
   3   1 -24    0.77    0.12
  -3   1 -24    0.70    0.10
   3  -1 -24    0.54    0.12
   3  -1 -24    0.58    0.10
  -4  -1 -24    4.28    0.24
   4   1 -24    3.80    0.24
   4   1 -24    4.51    0.24
  -4  -1 -24    4.38    0.26
  -4   1 -24    3.82    0.26
   4  -1 -24    4.21    0.25
   4  -1 -24    4.45    0.25
  -5  -1 -24    0.13    0.04
   5   1 -24    0.03    0.04
   5  -1 -24    0.14    0.05
  -5   1 -24    0.09    0.04
   5  -1 -24    0.08    0.05
   6   1 -24    4.19    0.22
   6   1 -24    4.24    0.22
  -6  -1 -24    4.10    0.22
   6  -1 -24    4.01    0.22
   6  -1 -24    4.25    0.23
  -6   1 -24    3.95    0.22
   0   2 -24   15.26    0.78
   0   2 -24   15.92    0.77
   0  -2 -24   15.07    0.79
   0  -2 -24   15.39    0.79
   0  -2 -24   15.54    0.78
  -1  -2 -24    0.03    0.08
   1   2 -24   -0.01    0.06
   1   2 -24    0.04    0.04
  -1  -2 -24    0.04    0.11
  -1  -2 -24    0.03    0.06
   1  -2 -24   -0.02    0.07
   1  -2 -24   -0.02    0.06
   1  -2 -24   -0.10    0.06
  -1   2 -24    0.05    0.05
   1  -2 -24    0.19    0.11
  -2  -2 -24   19.22    0.95
   2   2 -24   18.78    0.93
   2   2 -24   18.22    0.93
  -2  -2 -24   19.25    0.94
   2  -2 -24   19.76    0.95
   2  -2 -24   18.89    0.95
   2  -2 -24   18.14    0.94
   2  -2 -24   18.31    0.93
  -2   2 -24   18.61    0.93
  -3  -2 -24    2.15    0.16
   3   2 -24    2.02    0.14
   3  -2  24    2.01    0.16
   3   2 -24    1.81    0.14
  -3  -2 -24    1.94    0.15
  -3   2 -24    1.90    0.14
   3  -2 -24    2.20    0.16
   3  -2 -24    1.99    0.15
   3   2  24    1.80    0.15
   4   2 -24   15.00    0.69
   4  -2  24   13.92    0.69
  -4  -2 -24   14.83    0.70
   4   2 -24   11.99    0.72
  -4  -2 -24   13.87    0.70
  -4   2 -24   13.79    0.70
   4   2  24   13.06    0.69
   4  -2 -24   15.51    0.70
   4  -2 -24   13.01    0.70
   4  -2 -24   13.11    0.69
   5   2 -24    0.08    0.05
  -5  -2 -24    0.05    0.04
   5   2 -24    0.02    0.03
  -5   2 -24    0.05    0.04
   5  -2 -24    0.05    0.05
   5   2  24    0.01    0.05
   5  -2 -24   -0.02    0.04
   5  -2 -24    0.12    0.05
  -6  -2 -24    0.83    0.07
   6   2 -24    0.84    0.07
   6   2 -24    0.72    0.08
  -6   2 -24    0.85    0.07
   6  -2 -24    0.92    0.07
   6  -2 -24    0.83    0.18
   0  -3 -24   -0.04    0.06
   0  -3 -24   -0.02    0.06
   0  -3  24    0.00    0.06
   0  -3 -24    0.01    0.11
   0   3 -24    0.00    0.07
   0  -3 -24   -0.02    0.07
   1   3 -24    5.38    0.29
  -1  -3 -24    5.29    0.32
  -1  -3 -24    4.91    0.30
  -1  -3 -24    4.39    0.30
   1  -3  24    5.52    0.28
  -1  -3 -24    5.14    0.31
   1  -3 -24    6.05    0.32
   1  -3 -24    5.25    0.31
   1  -3 -24    5.15    0.31
   1  -3 -24    5.42    0.30
   2   3 -24   33.07    1.58
  -2  -3 -24   29.62    1.58
   2  -3  24   33.67    1.58
   2  -3  24   31.26    1.58
  -2  -3 -24   32.73    1.60
   2   3 -24   31.92    1.58
   2  -3 -24   34.57    1.60
   2  -3 -24   31.75    1.60
   2  -3 -24   32.85    1.59
   2  -3 -24   32.50    1.59
  -2   3 -24   32.76    1.58
  -3  -3 -24    0.07    0.07
   3  -3  24   -0.01    0.06
   3   3 -24    0.02    0.05
   3   3 -24    0.04    0.04
  -3  -3 -24    0.02    0.05
   3  -3 -24    0.13    0.06
   3  -3 -24    0.00    0.05
   3  -3 -24    0.06    0.06
   3   3  24    0.01    0.05
  -3   3 -24    0.05    0.05
  -4  -3 -24   15.23    0.79
  -4  -3 -24   16.06    0.80
   4  -3  24   16.23    0.78
   4   3 -24   16.48    0.79
   4  -3 -24   15.37    0.79
   4  -3 -24   16.13    0.79
   4  -3 -24   16.02    0.80
   4   3  24   15.57    0.79
   5  -3  24    0.44    0.06
  -5  -3 -24    0.34    0.06
   5   3 -24    0.33    0.05
   5   3  24    0.34    0.07
   5  -3 -24    0.42    0.07
   5  -3 -24    0.49    0.07
   5  -3 -24    0.27    0.06
   0  -4 -24    9.73    0.54
   0  -4 -24   10.18    0.55
   0  -4 -24   10.64    0.55
   0  -4 -24   10.87    0.54
   0   4 -24   10.46    0.53
   1  -4  24    0.31    0.10
  -1  -4 -24    0.32    0.10
   1   4 -24    0.43    0.08
  -1  -4 -24    0.54    0.13
  -1  -4 -24    0.16    0.12
  -1  -4 -24    0.47    0.09
   1  -4  24    0.34    0.07
   1  -4 -24    0.43    0.10
   1  -4 -24    0.20    0.08
   1  -4 -24    0.41    0.11
   1  -4 -24    0.31    0.09
   2   4 -24    9.76    0.49
   2  -4  24    9.65    0.48
  -2  -4 -24    9.59    0.51
  -2  -4 -24    9.69    0.49
   2  -4  24    8.62    0.50
   2  -4  24    9.45    0.49
   2  -4 -24    9.33    0.50
   2  -4 -24    9.44    0.50
   2  -4 -24    9.72    0.49
   2  -4 -24   10.19    0.51
  -3  -4 -24    0.27    0.07
   3   4 -24    0.31    0.07
  -3  -4 -24    0.20    0.07
   3   4 -24    0.20    0.05
   3  -4  24    0.34    0.07
   3  -4  24    0.24    0.11
  -3   4 -24    0.11    0.05
   3  -4 -24    0.21    0.06
   3   4  24    0.23    0.07
   3  -4 -24    0.28    0.08
   3  -4 -24    0.28    0.07
   4   4 -24    1.74    0.11
   4  -4  24    1.80    0.11
  -4  -4 -24    1.71    0.14
  -4  -4 -24    1.77    0.12
   4  -4 -24    1.74    0.13
   4   4  24    1.77    0.12
   4  -4 -24    1.79    0.13
   4  -4 -24    1.81    0.12
  -5  -4 -24    0.36    0.05
   5   4 -24    0.42    0.05
   5  -4  24    0.53    0.06
   5   4  24    0.33    0.06
   5  -4 -24    0.51    0.06
   5  -4 -24    0.32    0.08
   5  -4 -24    0.45    0.06
   0  -5 -24    0.05    0.06
   0  -5 -24   -0.09    0.05
   0  -5  24    0.01    0.04
   0  -5 -24    0.11    0.05
   0  -5  24   -0.05    0.07
   0  -5 -24   -0.07    0.06
   1  -5  24    8.03    0.40
   1   5 -24    7.81    0.40
  -1  -5 -24    7.73    0.42
  -1  -5 -24    7.48    0.42
  -1  -5 -24    7.74    0.42
   1  -5  24    7.75    0.40
   1  -5  24    7.90    0.43
   1  -5 -24    7.72    0.41
   1  -5 -24    8.36    0.42
   1  -5 -24    7.74    0.42
   1  -5 -24    7.72    0.42
   2  -5  24    2.01    0.12
   2   5 -24    1.88    0.12
  -2  -5 -24    1.79    0.13
   2  -5  24    1.96    0.17
  -2  -5 -24    1.96    0.14
   2  -5  24    1.91    0.13
   2  -5 -24    1.96    0.14
   2  -5 -24    1.94    0.14
   2  -5 -24    1.86    0.13
   2  -5 -24    1.91    0.15
   3  -5  24    0.02    0.04
  -3  -5 -24   -0.02    0.04
  -3  -5 -24    0.02    0.05
   3   5 -24    0.04    0.04
   3  -5  24    0.02    0.03
   3   5 -24    0.04    0.03
   3  -5  24   -0.10    0.11
   3  -5 -24    0.04    0.04
   3  -5 -24   -0.04    0.04
   3  -5 -24   -0.05    0.04
   3   5  24   -0.03    0.03
  -3   5 -24    0.04    0.04
  -4  -5 -24    0.06    0.03
  -4  -5 -24    0.35    0.10
   4  -5  24    0.11    0.04
   4   5 -24    0.08    0.03
   4  -5 -24    0.05    0.04
   4  -5 -24    0.05    0.03
   4  -5 -24    0.05    0.04
   4   5  24    0.16    0.05
   0  -6  24   18.47    0.91
   0  -6  24   18.75    0.91
   0  -6 -24   18.84    0.92
   0  -6 -24   18.83    0.92
   0  -6 -24   18.71    0.93
   0  -6 -24   18.39    0.93
  -1  -6 -24    0.75    0.10
   1  -6  24    0.76    0.08
   1   6 -24    0.72    0.08
   1  -6  24    0.78    0.06
  -1  -6 -24    0.83    0.09
  -1  -6 -24    0.83    0.10
   1  -6  24    0.55    0.18
   1  -6 -24    0.82    0.09
   1  -6 -24    0.82    0.09
   1  -6 -24    0.80    0.08
   1  -6 -24    0.82    0.09
  -2  -6 -24    1.36    0.10
   2   6 -24    1.31    0.09
  -2  -6 -24    1.27    0.10
   2  -6  24    1.31    0.08
   2  -6  24    1.23    0.09
   2  -6 -24    1.17    0.10
   2  -6 -24    1.44    0.11
   2  -6 -24    1.18    0.10
  -2   6 -24    1.25    0.09
   2  -6 -24    1.14    0.09
  -3  -6 -24    1.85    0.12
   3   6 -24    1.91    0.11
  -3  -6 -24    1.92    0.11
   3  -6  24    1.73    0.11
   3  -6 -24    1.75    0.12
   3  -6 -24    1.72    0.12
   3  -6 -24    1.67    0.11
  -3   6 -24    1.75    0.11
   3   6  24    1.77    0.11
   0  -7  24   -0.01    0.05
   0  -7 -24   -0.02    0.03
   0  -7 -24    0.04    0.04
   0  -7 -24    0.03    0.05
   1  -7  24    0.38    0.04
  -1  -7 -24    0.33    0.08
   1  -7  24    0.40    0.06
  -1  -7 -24    0.36    0.05
  -1  -7 -24    0.27    0.07
   1  -7 -24    0.32    0.06
   1  -7 -24    0.48    0.06
   1  -7 -24    0.45    0.06
  -2  -7 -24    0.47    0.06
   2   7 -24    0.36    0.05
   2   7 -24    0.44    0.06
   2  -7  24    0.51    0.05
  -2   7 -24    0.46    0.05
   2  -7 -24    0.33    0.06
   2  -7 -24    0.39    0.05
   2  -7 -24    0.41    0.06
   0   0 -25   -0.06    0.04
   0   0 -25    0.04    0.08
  -1   0 -25    0.02    0.07
  -1   0 -25   -0.03    0.04
   1   0 -25    0.08    0.06
   1   0 -25    0.10    0.05
   2   0 -25    0.01    0.06
   2   0 -25    0.00    0.05
  -2   0 -25    0.00    0.05
  -2   0 -25    0.02    0.06
   3   0 -25    0.11    0.08
  -3   0 -25    0.07    0.05
  -3   0 -25    0.04    0.06
   3   0 -25    0.00    0.05
   3   0 -25   -0.05    0.08
   4   0 -25    0.07    0.06
  -4   0 -25   -0.09    0.07
   4   0 -25    0.01    0.05
  -4   0 -25    0.01    0.05
   5   0 -25    0.03    0.05
  -5   0 -25    0.02    0.04
   5   0 -25   -0.03    0.04
   6   0 -25    0.00    0.04
  -6   0 -25    0.02    0.03
   6   0 -25    0.23    0.07
   0  -1 -25    0.07    0.06
   0   1 -25   -0.04    0.08
   0   1 -25    0.06    0.05
   0  -1 -25   -0.01    0.07
   1   1 -25   13.87    0.71
  -1  -1 -25   13.46    0.71
  -1  -1 -25   14.39    0.71
   1   1 -25   14.37    0.71
   1  -1 -25   14.44    0.72
  -1   1 -25   13.72    0.71
   1  -1 -25   13.87    0.71
   2   1 -25    4.09    0.23
   2   1 -25    4.20    0.24
  -2  -1 -25    3.61    0.23
  -2  -1 -25    3.93    0.24
  -2   1 -25    3.89    0.23
   2  -1 -25    4.09    0.26
   2  -1 -25    3.85    0.24
   2  -1 -25    3.87    0.24
  -3  -1 -25    8.71    0.46
   3   1 -25    8.75    0.46
  -3  -1 -25    9.36    0.48
   3   1 -25    7.99    0.46
   3  -1 -25    9.43    0.47
  -3   1 -25    9.33    0.47
   3  -1 -25    8.96    0.47
  -4  -1 -25   20.82    1.02
   4   1 -25   19.28    1.01
  -4  -1 -25   21.15    1.01
   4   1 -25   19.80    1.01
  -4   1 -25   20.26    1.01
   4  -1 -25   20.09    1.01
  -4   1 -25   20.90    1.01
   4  -1 -25   21.04    1.01
  -5  -1 -25    5.12    0.28
   5   1 -25    5.57    0.28
   5   1 -25    5.21    0.28
   5  -1 -25    5.28    0.28
  -5   1 -25    5.21    0.28
   5  -1 -25    5.11    0.28
   6   1 -25    0.19    0.06
   6   1 -25    0.13    0.05
  -6   1 -25    0.17    0.04
   6  -1 -25    0.09    0.04
   6  -1 -25    0.19    0.06
   0   2 -25   23.44    1.15
   0  -2 -25   22.73    1.16
   0  -2 -25   23.90    1.16
   0  -2 -25   22.84    1.16
   0   2 -25   23.89    1.15
   1   2 -25    0.17    0.05
  -1  -2 -25    0.24    0.07
  -1  -2 -25    0.25    0.10
   1   2 -25    0.30    0.09
  -1  -2 -25    0.16    0.08
   1  -2 -25    0.19    0.07
   1  -2 -25    0.38    0.12
  -1   2 -25    0.25    0.08
   1  -2 -25    0.20    0.07
   2   2 -25    1.36    0.11
   2   2 -25    1.23    0.11
  -2  -2 -25    1.20    0.12
  -2  -2 -25    1.30    0.14
   2  -2 -25    1.26    0.14
   2  -2 -25    1.36    0.13
  -2   2 -25    1.41    0.11
   2  -2 -25    1.34    0.13
   2  -2 -25    1.43    0.15
  -3  -2 -25    7.45    0.38
   3   2 -25    6.20    0.36
  -3  -2 -25    6.83    0.37
   3   2 -25    6.77    0.36
  -3   2 -25    6.96    0.36
   3  -2 -25    7.41    0.38
   3  -2 -25    6.95    0.37
   3  -2 -25    7.26    0.36
   3   2  25    5.97    0.37
  -4  -2 -25    5.24    0.29
   4  -2  25    5.49    0.28
  -4  -2 -25    5.22    0.28
   4   2 -25    5.24    0.28
   4  -2 -25    4.47    0.27
   4  -2 -25    5.40    0.29
   4   2  25    5.24    0.28
   4  -2 -25    4.96    0.28
  -5  -2 -25    0.06    0.03
   5   2 -25    0.04    0.04
   5  -2 -25    0.10    0.04
   5   2  25   -0.04    0.06
   5  -2 -25    0.07    0.05
  -5   2 -25    0.04    0.03
   5  -2 -25    0.04    0.05
   0  -3 -25   -0.08    0.07
   0   3 -25   -0.02    0.07
   0  -3 -25    0.13    0.06
   0  -3 -25    0.00    0.06
   1  -3  25    5.74    0.30
   1   3 -25    5.74    0.30
  -1  -3 -25    4.88    0.32
  -1  -3 -25    5.61    0.32
   1   3 -25    5.49    0.30
   1  -3 -25    5.78    0.31
   1  -3 -25    5.40    0.32
   1  -3 -25    5.46    0.32
   1  -3 -25    5.61    0.32
  -1   3 -25    5.68    0.30
  -2  -3 -25   12.51    0.66
   2   3 -25   12.81    0.65
   2   3 -25   12.95    0.64
  -2  -3 -25   12.04    0.65
   2  -3 -25   12.97    0.65
   2  -3 -25   12.96    0.66
   2  -3 -25   12.69    0.66
   2  -3 -25   13.13    0.66
  -2   3 -25   13.39    0.65
   3  -3  25    0.18    0.07
   3   3 -25    0.27    0.06
  -3  -3 -25    0.15    0.06
  -3  -3 -25    0.17    0.05
   3   3 -25    0.12    0.05
  -3   3 -25    0.12    0.05
   3  -3 -25    0.14    0.06
   3  -3 -25    0.05    0.04
   3   3  25    0.12    0.05
   3  -3 -25    0.05    0.05
  -4  -3 -25   12.05    0.61
   4  -3  25   12.36    0.60
   4   3 -25   12.26    0.60
  -4  -3 -25   11.73    0.60
   4  -3 -25   11.40    0.60
   4  -3 -25   12.06    0.61
   4   3  25   11.90    0.60
   4  -3 -25   12.56    0.61
  -5  -3 -25   10.84    0.55
   5   3 -25   11.14    0.55
   5   3  25   11.24    0.55
   5  -3 -25   10.24    0.55
   5  -3 -25   11.70    0.56
  -5   3 -25   11.11    0.55
   5  -3 -25   11.75    0.56
   0  -4 -25   74.68    3.67
   0  -4 -25   74.07    3.66
   0  -4  25   75.27    3.64
   0  -4 -25   80.25    3.66
   0  -4 -25   74.44    3.66
   1  -4  25   23.51    1.15
   1   4 -25   24.10    1.15
  -1  -4 -25   20.69    1.16
  -1  -4 -25   24.11    1.17
   1  -4 -25   24.12    1.17
   1  -4 -25   23.92    1.17
   1  -4 -25   24.20    1.17
   1  -4 -25   23.86    1.16
  -2  -4 -25    1.59    0.13
   2  -4  25    1.63    0.12
   2   4 -25    1.54    0.11
   2  -4  25    1.74    0.11
  -2  -4 -25    1.61    0.13
   2   4 -25    1.55    0.11
   2  -4 -25    1.52    0.13
   2  -4 -25    1.58    0.12
  -2   4 -25    1.73    0.11
   2  -4 -25    1.70    0.13
   2  -4 -25    1.59    0.14
   3   4 -25    4.49    0.25
  -3  -4 -25    4.85    0.27
  -3  -4 -25    4.38    0.25
   3  -4  25    4.70    0.25
   3   4 -25    4.67    0.25
   3   4  25    4.61    0.26
  -3   4 -25    4.84    0.25
   3  -4 -25    4.74    0.26
   3  -4 -25    4.84    0.27
   3  -4 -25    4.59    0.26
   4  -4  25    0.06    0.04
  -4  -4 -25   -0.03    0.07
  -4  -4 -25    0.04    0.04
   4   4 -25    0.00    0.03
   4  -4 -25    0.03    0.04
   4  -4 -25    0.03    0.03
   4  -4 -25   -0.08    0.04
   4   4  25    0.07    0.04
  -5  -4 -25    0.07    0.03
   5   4 -25    0.07    0.03
   5  -4 -25    0.05    0.03
  -5   4 -25    0.08    0.03
   5  -4 -25    0.08    0.04
   5   4  25    0.08    0.03
   0  -5 -25   -0.03    0.04
   0  -5 -25   -0.03    0.05
   0  -5 -25    0.05    0.07
   0  -5  25   -0.01    0.04
   0  -5 -25    0.03    0.05
  -1  -5 -25   13.14    0.71
  -1  -5 -25   13.74    0.71
   1  -5  25   13.70    0.69
   1  -5  25   14.18    0.69
   1   5 -25   14.26    0.70
  -1  -5 -25   14.43    0.71
   1  -5 -25   13.98    0.71
   1  -5 -25   14.49    0.71
   1  -5 -25   13.90    0.71
   1  -5 -25   14.63    0.71
   2  -5  25    0.33    0.05
   2  -5  25    0.44    0.07
  -2  -5 -25    0.55    0.08
  -2  -5 -25    0.37    0.08
   2   5 -25    0.36    0.06
   2   5 -25    0.43    0.06
   2  -5 -25    0.48    0.07
   2  -5 -25    0.37    0.07
  -2   5 -25    0.45    0.06
   2  -5 -25    0.45    0.08
   2  -5 -25    0.36    0.07
   3  -5  25    7.88    0.40
  -3  -5 -25    7.91    0.41
   3   5 -25    8.41    0.41
   3   5 -25    8.04    0.40
  -3  -5 -25    8.41    0.42
   3  -5 -25    8.32    0.42
   3  -5 -25    7.86    0.42
  -3   5 -25    8.08    0.40
   3   5  25    7.96    0.41
   3  -5 -25    7.79    0.41
   4  -5  25   14.67    0.70
   4   5 -25   15.37    0.70
  -4  -5 -25   14.93    0.70
   4  -5 -25   13.55    0.71
   4   5  25   13.20    0.70
   4  -5 -25   14.34    0.70
   0  -6 -25    0.03    0.06
   0  -6 -25    0.05    0.05
   0  -6 -25   -0.02    0.04
   1  -6  25   17.02    0.82
  -1  -6 -25   16.61    0.83
  -1  -6 -25   14.69    0.83
   1  -6  25   17.09    0.83
   1   6 -25   18.65    0.83
  -1  -6 -25   17.19    0.84
   1  -6 -25   16.70    0.84
   1  -6 -25   16.74    0.83
   1  -6 -25   17.50    0.84
   1  -6 -25   17.12    0.84
   2  -6  25    6.04    0.30
   2   6 -25    6.16    0.30
   2   6 -25    6.17    0.30
  -2  -6 -25    5.83    0.31
   2  -6  25    5.88    0.30
   2  -6 -25    5.65    0.31
   2  -6 -25    5.92    0.31
   2  -6 -25    5.81    0.31
   2  -6 -25    6.00    0.32
  -2   6 -25    6.29    0.30
  -3  -6 -25    4.81    0.25
   3  -6  25    4.70    0.24
  -3  -6 -25    4.65    0.24
   3   6 -25    4.91    0.24
   3  -6 -25    4.39    0.25
   3   6  25    4.95    0.25
   0   7 -25   -0.02    0.02
   0  -7 -25    0.01    0.04
   0  -7 -25    0.00    0.03
   0  -7 -25    0.01    0.05
   0   0 -26   20.95    1.07
   0   0 -26   22.35    1.08
   1   0 -26   25.95    1.30
  -1   0 -26   27.26    1.30
  -1   0 -26   25.79    1.30
   1   0 -26   26.74    1.31
   2   0 -26    0.34    0.09
  -2   0 -26    0.31    0.07
  -2   0 -26    0.14    0.06
   2   0 -26    0.18    0.06
   3   0 -26   45.59    2.19
  -3   0 -26   43.32    2.18
  -3   0 -26   45.87    2.18
  -4   0 -26    3.92    0.22
   4   0 -26    3.89    0.22
   4   0 -26    3.77    0.22
  -4   0 -26    3.73    0.23
   5   0 -26    0.19    0.05
   5   0 -26    0.32    0.07
  -5   0 -26    0.24    0.06
   0  -1 -26    0.00    0.07
   0  -1 -26    0.14    0.06
   0   1 -26    0.01    0.08
   0   1 -26   -0.03    0.04
   1   1 -26   27.91    1.35
  -1  -1 -26   26.22    1.35
   1   1 -26   29.06    1.35
   1  -1 -26   25.84    1.35
  -1   1 -26   26.63    1.35
   1  -1 -26   28.76    1.36
  -2  -1 -26    0.02    0.06
   2   1 -26    0.08    0.05
  -2  -1 -26    0.12    0.06
   2   1 -26    0.05    0.05
  -2   1 -26    0.02    0.04
   2  -1 -26    0.06    0.05
   2  -1 -26    0.08    0.06
   3   1 -26    2.86    0.17
  -3  -1 -26    2.81    0.18
  -3  -1 -26    2.90    0.19
   3  -1 -26    2.87    0.18
   3  -1 -26    2.40    0.19
  -3   1 -26    2.75    0.18
   4   1 -26    0.53    0.07
  -4  -1 -26    0.61    0.08
  -4  -1 -26    0.71    0.12
   4  -1 -26    0.55    0.08
   4  -1 -26    0.52    0.09
  -4   1 -26    0.70    0.08
  -4   1 -26    0.56    0.12
   5   1 -26   30.51    1.46
  -5  -1 -26   29.19    1.45
   5   1 -26   28.29    1.45
   5  -1 -26   30.66    1.45
   5  -1 -26   30.00    1.46
  -5   1 -26   30.99    1.46
   0   2 -26    0.39    0.07
   0  -2 -26    0.60    0.10
   0   2 -26    0.59    0.12
   0  -2 -26    0.46    0.12
   0  -2 -26    0.53    0.13
  -1  -2 -26   15.55    0.78
  -1  -2 -26   14.24    0.78
   1   2 -26   15.60    0.77
   1   2 -26   15.40    0.77
   1  -2 -26   15.27    0.78
  -1   2 -26   15.95    0.77
   1  -2 -26   15.20    0.78
   1  -2 -26   15.40    0.77
  -2  -2 -26    5.76    0.32
   2   2 -26    5.94    0.32
  -2  -2 -26    5.92    0.33
   2   2 -26    6.08    0.32
   2  -2 -26    5.61    0.32
   2  -2 -26    6.18    0.34
   2  -2 -26    5.69    0.33
  -2   2 -26    6.09    0.32
   2  -2 -26    5.87    0.33
   3   2 -26    6.16    0.31
  -3  -2 -26    6.02    0.32
  -3  -2 -26    5.47    0.31
   3   2 -26    5.36    0.31
   3  -2 -26    5.49    0.31
   3  -2 -26    5.75    0.32
  -3   2 -26    5.57    0.31
   3  -2 -26    6.10    0.32
   4   2 -26    2.35    0.14
  -4  -2 -26    2.38    0.17
  -4  -2 -26    2.38    0.15
   4  -2 -26    2.33    0.15
   4  -2 -26    2.38    0.15
   4  -2 -26    2.12    0.15
   4   2  26    2.12    0.16
  -5  -2 -26    0.04    0.03
   5   2 -26    0.03    0.04
   5  -2 -26    0.02    0.04
  -5   2 -26    0.06    0.03
   5  -2 -26    0.12    0.04
   0  -3 -26   -0.01    0.06
   0  -3 -26   -0.04    0.06
   0  -3 -26   -0.04    0.06
   0   3 -26    0.04    0.04
   0   3 -26   -0.12    0.07
   1   3 -26    0.83    0.10
  -1  -3 -26    0.84    0.11
   1   3 -26    0.91    0.09
  -1  -3 -26    0.78    0.14
   1  -3 -26    0.99    0.11
   1  -3 -26    0.52    0.14
  -1   3 -26    0.95    0.09
   1  -3 -26    1.01    0.11
   1  -3 -26    0.91    0.11
  -2  -3 -26    5.47    0.29
  -2  -3 -26    4.85    0.28
   2   3 -26    5.60    0.28
   2   3 -26    4.43    0.27
   2  -3 -26    5.33    0.29
  -2   3 -26    5.34    0.28
   2  -3 -26    4.70    0.29
   2  -3 -26    4.91    0.28
   2  -3 -26    4.96    0.29
  -3  -3 -26    4.87    0.27
  -3  -3 -26    4.66    0.26
   3   3 -26    4.92    0.26
   3   3 -26    4.95    0.26
   3  -3 -26    5.33    0.28
   3   3  26    4.75    0.27
   3  -3 -26    4.79    0.27
  -3   3 -26    4.71    0.26
   3  -3 -26    4.61    0.26
   4   3 -26    5.65    0.30
  -4  -3 -26    5.56    0.30
  -4  -3 -26    6.26    0.31
   4  -3  26    5.51    0.29
   4   3  26    5.63    0.30
   4  -3 -26    5.70    0.30
   4  -3 -26    5.24    0.29
   4  -3 -26    5.76    0.30
  -5  -3 -26    0.07    0.03
   5   3 -26    0.08    0.03
   5  -3 -26    0.10    0.04
  -5   3 -26    0.09    0.03
   5  -3 -26    0.19    0.06
   5  -3 -26    0.12    0.07
   0  -4 -26    2.19    0.19
   0  -4 -26    2.50    0.16
   0  -4 -26    2.58    0.17
   0  -4 -26    2.31    0.17
  -1  -4 -26    0.02    0.05
   1   4 -26    0.09    0.05
  -1  -4 -26    0.06    0.08
   1   4 -26    0.03    0.03
   1  -4 -26    0.05    0.07
   1  -4 -26    0.05    0.05
  -1   4 -26    0.09    0.04
   1  -4 -26    0.06    0.06
   1  -4 -26    0.22    0.08
   2   4 -26    0.26    0.06
   2   4 -26    0.23    0.06
  -2  -4 -26    0.24    0.08
  -2  -4 -26    0.24    0.06
   2  -4 -26    0.29    0.09
   2  -4 -26    0.10    0.06
   2  -4 -26    0.24    0.07
  -2   4 -26    0.20    0.06
   2  -4 -26    0.27    0.07
   3   4 -26    0.03    0.05
  -3  -4 -26    0.03    0.04
   3  -4  26    0.03    0.06
   3   4 -26    0.03    0.03
  -3  -4 -26    0.06    0.05
   3  -4 -26    0.04    0.04
   3   4  26    0.03    0.04
   3  -4 -26    0.02    0.04
  -3   4 -26    0.00    0.04
   3  -4 -26    0.00    0.05
  -4  -4 -26    0.03    0.03
   4  -4  26   -0.01    0.05
   4   4 -26    0.06    0.03
   4  -4 -26    0.01    0.04
   4  -4 -26    0.08    0.04
   4  -4 -26    0.06    0.03
   4   4  26    0.04    0.04
   0  -5 -26   -0.06    0.04
   0  -5 -26    0.07    0.07
   0  -5 -26   -0.02    0.05
   0  -5 -26    0.03    0.04
  -1  -5 -26    5.09    0.29
   1  -5  26    5.23    0.28
   1   5 -26    5.55    0.28
  -1  -5 -26    5.32    0.29
   1   5 -26    5.39    0.28
  -1   5 -26    5.49    0.28
   1  -5 -26    5.55    0.29
   1  -5 -26    5.49    0.29
   1  -5 -26    5.41    0.29
   1  -5 -26    5.21    0.29
  -2  -5 -26    1.39    0.11
   2  -5  26    1.20    0.10
   2   5 -26    1.33    0.09
  -2  -5 -26    1.34    0.11
   2   5 -26    1.31    0.09
   2  -5 -26    1.46    0.11
  -2   5 -26    1.44    0.09
   2  -5 -26    1.33    0.11
   2  -5 -26    1.33    0.10
   2  -5 -26    1.22    0.12
  -3  -5 -26    3.32    0.19
   3   5 -26    3.25    0.18
  -3  -5 -26    3.37    0.18
   3  -5  26    3.35    0.18
   3  -5 -26    3.06    0.18
   3  -5 -26    3.40    0.19
   3  -5 -26    3.32    0.19
   3   5  26    3.49    0.19
  -3   5 -26    3.39    0.18
   0  -6 -26    1.64    0.11
   0   6 -26    1.71    0.10
   0  -6 -26    1.59    0.13
   0  -6 -26    1.68    0.11
   1   6 -26    3.04    0.16
  -1  -6 -26    3.13    0.17
  -1  -6 -26    2.95    0.18
   1  -6 -26    3.08    0.17
   1  -6 -26    2.87    0.17
  -1   6 -26    3.03    0.16
   1  -6 -26    2.85    0.17
   2   6 -26    0.36    0.05
  -2  -6 -26    0.39    0.06
   2   6 -26    0.20    0.06
   2   6  26    0.33    0.05
   2  -6 -26    0.22    0.05
  -2   6 -26    0.31    0.05
   2  -6 -26    0.31    0.06
   2  -6 -26    0.32    0.07
   0   0 -27    0.07    0.08
   0   0 -27    0.00    0.05
   1   0 -27   -0.05    0.06
  -1   0 -27    0.02    0.08
  -1   0 -27    0.03    0.05
   1   0 -27    0.00    0.05
  -2   0 -27   -0.01    0.05
   2   0 -27   -0.04    0.05
   2   0 -27    0.06    0.05
  -2   0 -27   -0.06    0.06
   3   0 -27   -0.06    0.08
   3   0 -27    0.01    0.04
  -3   0 -27    0.03    0.05
  -3   0 -27   -0.02    0.06
   4   0 -27    0.04    0.04
   4   0 -27    0.08    0.07
  -4   0 -27    0.08    0.08
  -4   0 -27    0.02    0.04
  -5   0 -27    0.00    0.03
   5   0 -27   -0.02    0.06
   5   0 -27    0.02    0.03
   0   1 -27   -0.02    0.04
   0  -1 -27    0.11    0.08
   0   1 -27    0.10    0.08
   0  -1 -27   -0.01    0.05
   1   1 -27    2.08    0.15
  -1  -1 -27    1.90    0.15
   1   1 -27    1.98    0.14
  -1   1 -27    1.93    0.14
   1  -1 -27    2.17    0.15
   1  -1 -27    2.19    0.16
   2   1 -27    5.48    0.31
  -2  -1 -27    5.42    0.31
  -2  -1 -27    5.49    0.31
   2   1 -27    5.51    0.30
   2  -1 -27    5.55    0.31
   2  -1 -27    5.75    0.31
  -2   1 -27    5.56    0.30
   3   1 -27    0.00    0.04
  -3  -1 -27    0.15    0.05
  -3  -1 -27    0.11    0.06
   3   1 -27   -0.06    0.07
  -3   1 -27    0.03    0.05
   3  -1 -27   -0.06    0.07
  -3   1 -27    0.09    0.05
   3  -1 -27    0.12    0.05
  -4  -1 -27    1.56    0.13
   4   1 -27    1.13    0.10
  -4  -1 -27    1.23    0.10
   4  -1 -27    1.09    0.10
   4  -1 -27    1.35    0.11
  -4   1 -27    1.16    0.09
   5   1 -27    1.48    0.10
  -5  -1 -27    1.45    0.10
   5  -1 -27    1.42    0.11
  -5   1 -27    1.49    0.10
   5  -1 -27    1.54    0.10
   0   2 -27   30.45    1.48
   0   2 -27   30.11    1.47
   0  -2 -27   29.85    1.48
   0  -2 -27   30.20    1.48
  -1  -2 -27    0.83    0.11
   1   2 -27    0.85    0.10
   1   2 -27    0.84    0.09
  -1   2 -27    0.82    0.09
   1  -2 -27    0.66    0.10
   1  -2 -27    0.71    0.11
   1  -2 -27    0.88    0.14
  -2  -2 -27    5.51    0.30
   2   2 -27    4.76    0.29
  -2  -2 -27    5.64    0.31
   2   2 -27    5.70    0.30
   2  -2 -27    4.84    0.31
   2  -2 -27    5.75    0.31
   2  -2 -27    5.47    0.31
  -2   2 -27    6.19    0.30
   2  -2 -27    5.43    0.32
   3   2 -27    0.81    0.08
  -3  -2 -27    1.04    0.10
   3   2 -27    1.00    0.11
  -3  -2 -27    0.93    0.09
  -3   2 -27    1.03    0.09
   3  -2 -27    0.78    0.09
   3  -2 -27    0.80    0.11
  -4  -2 -27   13.18    0.64
  -4  -2 -27   12.27    0.64
   4   2 -27   12.91    0.64
   4  -2 -27   12.85    0.65
  -4   2 -27   13.32    0.64
   4  -2 -27   12.43    0.64
  -5  -2 -27    1.19    0.08
   5   2 -27    1.16    0.08
   5  -2 -27    1.16    0.09
   5  -2 -27    1.29    0.09
  -5   2 -27    1.17    0.08
   0  -3 -27   -0.02    0.06
   0  -3 -27    0.06    0.05
   0   3 -27    0.04    0.04
   0  -3 -27   -0.01    0.07
  -1  -3 -27    0.42    0.14
   1   3 -27    0.66    0.09
  -1  -3 -27    0.63    0.10
   1   3 -27    0.57    0.07
   1  -3 -27    0.63    0.10
  -1   3 -27    0.71    0.08
   1  -3 -27    0.82    0.10
   1  -3 -27    0.70    0.10
  -2  -3 -27   -0.04    0.05
  -2  -3 -27    0.08    0.06
   2   3 -27    0.03    0.04
   2   3 -27    0.04    0.04
   2  -3 -27    0.00    0.05
  -2   3 -27    0.07    0.04
   2  -3 -27    0.07    0.05
   2  -3 -27    0.02    0.06
   2  -3 -27   -0.01    0.07
  -3  -3 -27    2.23    0.15
  -3  -3 -27    2.21    0.14
   3   3 -27    2.05    0.13
   3   3 -27    2.13    0.14
   3   3  27    2.12    0.14
   3  -3 -27    2.26    0.15
   3  -3 -27    1.95    0.14
  -3   3 -27    2.19    0.14
   3  -3 -27    2.07    0.14
  -4  -3 -27   10.82    0.54
   4   3 -27   11.20    0.54
  -4  -3 -27   10.59    0.54
   4   3  27   11.13    0.54
   4  -3 -27    9.27    0.53
   4  -3 -27   11.70    0.54
   4  -3 -27   11.13    0.55
   0  -4 -27   13.97    0.71
   0   4 -27   14.18    0.69
   0  -4 -27   13.86    0.71
   1   4 -27    4.27    0.23
  -1  -4 -27    4.16    0.24
  -1  -4 -27    4.23    0.25
   1   4 -27    4.07    0.22
   1  -4 -27    4.03    0.23
   1  -4 -27    3.96    0.24
  -1   4 -27    4.27    0.22
   1  -4 -27    4.10    0.24
   1  -4 -27    3.57    0.24
   2   4 -27    6.96    0.36
  -2  -4 -27    6.77    0.36
   2   4 -27    6.94    0.36
  -2  -4 -27    7.09    0.37
   2  -4 -27    7.13    0.37
  -2   4 -27    7.54    0.36
   2  -4 -27    6.86    0.37
   2  -4 -27    6.72    0.36
   2  -4 -27    6.98    0.37
  -3  -4 -27    1.04    0.09
  -3  -4 -27    0.99    0.09
   3   4 -27    0.98    0.08
   3  -4 -27    0.82    0.08
   3   4  27    0.97    0.09
   3  -4 -27    1.00    0.10
   3  -4 -27    0.88    0.09
  -3   4 -27    1.03    0.08
  -4  -4 -27    6.38    0.31
   4   4 -27    6.16    0.31
   4   4  27    6.47    0.31
   4  -4 -27    6.32    0.32
   4  -4 -27    5.29    0.31
   4  -4 -27    6.25    0.32
   0  -5 -27    0.09    0.10
   0   5 -27    0.04    0.03
   0  -5 -27    0.05    0.05
   0  -5 -27    0.02    0.04
   1   5 -27    7.23    0.36
  -1  -5 -27    7.17    0.37
  -1  -5 -27    6.75    0.37
   1   5 -27    6.97    0.36
  -1   5 -27    7.32    0.36
   1  -5 -27    6.89    0.37
   1  -5 -27    7.24    0.37
   1  -5 -27    7.16    0.37
   1  -5 -27    7.27    0.37
  -2  -5 -27    1.19    0.09
   2   5 -27    1.21    0.08
   2   5 -27    1.12    0.09
   2   5  27    1.28    0.09
  -2   5 -27    1.30    0.09
   2  -5 -27    1.15    0.09
   2  -5 -27    1.25    0.10
   2  -5 -27    1.29    0.11
   2  -5 -27    1.31    0.10
  -3  -5 -27    1.60    0.11
  -3  -5 -27    1.65    0.11
   3   5 -27    1.56    0.10
   3  -5 -27    1.46    0.10
  -3   5 -27    1.61    0.11
   3   5  27    1.79    0.11
   3  -5 -27    1.65    0.11
   0  -6 -27    2.67    0.15
   0   6 -27    2.62    0.15
   0  -6 -27    2.80    0.16
  -1  -6 -27    3.95    0.22
   1   6 -27    4.22    0.21
   1  -6 -27    4.22    0.22
  -1   6 -27    3.99    0.21
   1  -6 -27    4.15    0.22
   0   0 -28   38.02    1.86
   0   0 -28   38.21    1.86
   1   0 -28    6.46    0.35
  -1   0 -28    6.56    0.35
   1   0 -28    6.39    0.35
   2   0 -28    8.98    0.44
   2   0 -28    7.76    0.43
  -2   0 -28    8.43    0.44
  -2   0 -28    8.18    0.43
  -3   0 -28    3.88    0.22
   3   0 -28    3.89    0.23
  -3   0 -28    3.97    0.23
  -4   0 -28    0.11    0.04
   4   0 -28    0.09    0.04
   5   0 -28    0.83    0.07
  -5   0 -28    0.88    0.07
   0   1 -28   -0.04    0.04
   0  -1 -28   -0.06    0.05
   0   1 -28    0.18    0.09
   0  -1 -28    0.04    0.08
   1   1 -28    4.64    0.26
  -1  -1 -28    4.33    0.26
   1   1 -28    4.35    0.25
   1  -1 -28    4.38    0.26
   1  -1 -28    4.40    0.26
  -2  -1 -28    5.81    0.30
   2   1 -28    5.26    0.29
   2   1 -28    4.80    0.29
  -2  -1 -28    5.46    0.29
  -2   1 -28    5.50    0.29
  -2   1 -28    5.48    0.30
   2  -1 -28    5.22    0.30
   2  -1 -28    5.59    0.30
  -3  -1 -28    3.43    0.20
  -3  -1 -28    3.57    0.21
   3   1 -28    3.46    0.20
   3  -1 -28    3.57    0.21
  -3   1 -28    3.54    0.20
  -3   1 -28    3.46    0.20
   4   1 -28   10.52    0.52
  -4  -1 -28    9.80    0.54
  -4  -1 -28   11.09    0.52
  -4   1 -28   10.76    0.52
   4  -1 -28    9.51    0.52
   4  -1 -28   10.44    0.52
  -5  -1 -28    0.43    0.05
   5   1 -28    0.45    0.06
  -5   1 -28    0.42    0.05
   5  -1 -28    0.46    0.06
   0   2 -28    4.35    0.23
   0  -2 -28    4.11    0.24
   0  -2 -28    3.85    0.25
  -1  -2 -28   -0.04    0.05
   1   2 -28    0.07    0.05
   1   2 -28   -0.06    0.04
   1  -2 -28    0.05    0.05
  -1   2 -28    0.06    0.04
   1  -2 -28   -0.05    0.06
   2   2 -28   17.08    0.86
  -2  -2 -28   17.69    0.86
   2   2 -28   18.15    0.86
  -2  -2 -28   17.26    0.87
   2  -2 -28   16.35    0.86
   2  -2 -28   18.03    0.87
  -2   2 -28   16.92    0.86
   3   2 -28    1.45    0.11
   3   2 -28    1.35    0.13
  -3  -2 -28    1.53    0.11
  -3  -2 -28    1.40    0.11
  -3   2 -28    1.33    0.10
   3  -2 -28    1.36    0.11
  -3   2 -28    1.46    0.11
   3  -2 -28    1.44    0.13
  -4  -2 -28    5.23    0.27
   4   2 -28    5.38    0.27
  -4   2 -28    5.42    0.27
   4  -2 -28    4.79    0.27
   4  -2 -28    5.10    0.28
   0   3 -28    0.00    0.04
   0  -3 -28    0.09    0.05
   0  -3 -28    0.08    0.07
   1   3 -28    2.88    0.18
   1   3 -28    2.93    0.17
  -1  -3 -28    3.01    0.19
   1  -3 -28    3.06    0.19
   1  -3 -28    2.86    0.19
   1  -3 -28    3.16    0.19
  -1   3 -28    3.07    0.18
  -2  -3 -28    2.42    0.16
   2   3 -28    2.36    0.15
  -2  -3 -28    2.44    0.16
   2   3 -28    2.45    0.15
   2  -3 -28    2.69    0.16
   2  -3 -28    2.70    0.18
   2   3  28    2.50    0.16
   2  -3 -28    2.09    0.15
  -2   3 -28    2.62    0.15
   2  -3 -28    2.64    0.16
   3   3 -28    0.04    0.03
  -3  -3 -28    0.13    0.05
  -3  -3 -28    0.08    0.05
   3   3  28    0.08    0.05
   3  -3 -28    0.14    0.04
   3  -3 -28    0.10    0.05
  -3   3 -28    0.14    0.05
   3  -3 -28    0.01    0.06
   4   3 -28    4.21    0.22
  -4  -3 -28    4.00    0.22
   4  -3 -28    4.12    0.23
  -4   3 -28    4.24    0.22
   4  -3 -28    4.34    0.23
   0  -4 -28   19.89    0.96
   0   4 -28   18.69    0.95
   0  -4 -28   19.81    0.96
   1   4 -28    4.16    0.22
   1   4 -28    4.12    0.21
  -1  -4 -28    3.87    0.23
   1  -4 -28    4.08    0.23
  -1   4 -28    3.93    0.22
   1  -4 -28    4.02    0.23
   1  -4 -28    3.73    0.22
   2   4 -28    0.02    0.04
  -2  -4 -28    0.02    0.04
   2   4 -28    0.04    0.04
   2  -4 -28    0.05    0.04
  -2   4 -28   -0.02    0.03
   2  -4 -28   -0.01    0.06
   2  -4 -28   -0.03    0.04
   2  -4 -28   -0.04    0.06
   2   4  28    0.02    0.04
  -3  -4 -28    0.09    0.04
  -3  -4 -28    0.03    0.04
   3   4 -28    0.08    0.03
   3  -4 -28    0.16    0.05
   3  -4 -28    0.02    0.04
   3  -4 -28    0.15    0.06
   3   4  28    0.20    0.07
  -3   4 -28    0.16    0.05
   0  -5 -28   -0.04    0.03
   0  -5 -28   -0.03    0.05
   0   5 -28   -0.02    0.02
  -1  -5 -28    2.52    0.15
   1   5 -28    2.48    0.13
   1  -5 -28    2.42    0.14
   1  -5 -28    2.35    0.15
   1  -5 -28    2.11    0.16
  -1   5 -28    2.50    0.14
   2   5 -28    0.03    0.04
   2   5 -28    0.05    0.03
  -2  -5 -28   -0.02    0.03
   2   5  28    0.04    0.03
   2  -5 -28    0.01    0.04
   2  -5 -28   -0.06    0.06
   2  -5 -28   -0.04    0.03
   0   0 -29    0.05    0.08
   0   0 -29   -0.02    0.05
  -1   0 -29   -0.01    0.04
   1   0 -29    0.11    0.06
   1   0 -29    0.00    0.05
   2   0 -29   -0.08    0.05
  -2   0 -29    0.05    0.06
   2   0 -29   -0.03    0.05
  -2   0 -29   -0.01    0.04
  -3   0 -29    0.05    0.05
   3   0 -29    0.03    0.04
  -3   0 -29    0.09    0.05
   4   0 -29   -0.06    0.04
  -4   0 -29    0.06    0.04
   0  -1 -29   -0.07    0.05
   0   1 -29    0.00    0.04
   0   1 -29   -0.05    0.11
   0  -1 -29    0.04    0.08
   1   1 -29   13.01    0.66
  -1  -1 -29   12.85    0.67
   1   1 -29   13.53    0.67
   1  -1 -29   13.83    0.67
  -1   1 -29   12.71    0.67
   1  -1 -29   13.39    0.67
  -2  -1 -29   16.00    0.79
  -2  -1 -29   16.56    0.80
   2   1 -29   15.46    0.79
   2   1 -29   16.01    0.79
   2  -1 -29   16.20    0.80
  -2   1 -29   15.99    0.79
  -2   1 -29   15.34    0.78
   2  -1 -29   15.25    0.79
  -3  -1 -29   -0.08    0.04
  -3  -1 -29   -0.05    0.05
   3   1 -29    0.03    0.04
  -3   1 -29    0.07    0.05
  -3   1 -29    0.02    0.04
   3  -1 -29    0.07    0.05
   4   1 -29    7.23    0.37
  -4  -1 -29    7.06    0.36
   4  -1 -29    7.17    0.37
  -4   1 -29    7.22    0.37
   0  -2 -29    1.67    0.15
   0  -2 -29    1.90    0.13
   0   2 -29    1.77    0.12
   1   2 -29    6.62    0.34
   1   2 -29    6.58    0.35
  -1  -2 -29    6.73    0.35
   1  -2 -29    6.38    0.35
   1  -2 -29    6.44    0.35
  -1   2 -29    6.59    0.35
  -2  -2 -29   18.14    0.91
  -2  -2 -29   17.87    0.91
   2   2 -29   18.36    0.91
   2   2 -29   18.60    0.91
  -2   2 -29   18.67    0.90
   2  -2 -29   18.09    0.91
   2  -2 -29   19.03    0.92
  -2   2 -29   18.56    0.91
  -3  -2 -29    0.24    0.07
  -3  -2 -29    0.18    0.05
   3   2 -29    0.17    0.04
  -3   2 -29    0.26    0.07
   3  -2 -29    0.19    0.05
  -3   2 -29    0.25    0.06
   4   2 -29    2.67    0.15
  -4  -2 -29    2.35    0.15
  -4   2 -29    2.64    0.15
   4  -2 -29    2.65    0.15
   0  -3 -29    0.01    0.04
   0   3 -29   -0.03    0.03
   0  -3 -29    0.09    0.06
   1   3 -29    0.12    0.06
   1   3 -29    0.12    0.04
  -1  -3 -29    0.05    0.04
   1  -3 -29    0.07    0.05
   1  -3 -29    0.02    0.05
  -1   3 -29    0.02    0.04
   2   3 -29    2.39    0.15
   2   3 -29    2.51    0.15
  -2  -3 -29    2.37    0.15
   2  -3 -29    2.48    0.16
  -2   3 -29    2.61    0.15
   2  -3 -29    2.38    0.16
   3   3 -29    1.60    0.10
  -3  -3 -29    1.57    0.11
  -3  -3 -29    1.75    0.11
  -3   3 -29    1.70    0.11
   3  -3 -29    1.48    0.13
  -3   3 -29    1.56    0.10
   3  -3 -29    1.67    0.11
   4   3 -29    0.07    0.03
  -4   3 -29    0.02    0.03
   4  -3 -29    0.00    0.03
   0  -4 -29    2.23    0.16
   0   4 -29    2.31    0.14
   0  -4 -29    2.56    0.15
  -1  -4 -29   10.82    0.56
   1   4 -29   10.62    0.55
   1   4 -29   10.90    0.56
   1  -4 -29   11.66    0.56
   1  -4 -29   11.18    0.56
  -1   4 -29   11.20    0.55
   2   4 -29    1.99    0.13
   2   4 -29    2.15    0.12
  -2  -4 -29    2.14    0.13
   2   4  29    2.03    0.13
  -2   4 -29    2.21    0.12
   2  -4 -29    2.05    0.14
   2  -4 -29    2.08    0.13
   3   4 -29    8.43    0.41
  -3  -4 -29    7.68    0.41
  -3   4 -29    8.34    0.41
  -3   4 -29    8.17    0.42
   0   5 -29   -0.03    0.02
   0  -5 -29   -0.01    0.06
   0  -5 -29    0.00    0.03
  -1  -5 -29    0.71    0.07
   1   5 -29    0.65    0.06
   1   5  29    0.76    0.07
   1  -5 -29    0.69    0.07
  -1   5 -29    0.74    0.06
   1  -5 -29    0.75    0.08
   0   0 -30    9.58    0.49
   0   0 -30    9.29    0.52
  -1   0 -30   24.32    1.21
   1   0 -30   24.72    1.21
   1   0 -30   24.92    1.21
   2   0 -30    5.91    0.32
  -2   0 -30    6.01    0.31
  -2   0 -30    5.68    0.32
   2   0 -30    5.92    0.32
   3   0 -30    5.27    0.28
  -3   0 -30    5.00    0.27
  -3   0 -30    5.02    0.27
   4   0 -30    7.38    0.38
  -4   0 -30    7.52    0.38
   0  -1 -30   -0.08    0.08
   0  -1 -30    0.02    0.05
   0   1 -30    0.03    0.04
   1   1 -30    2.07    0.14
  -1  -1 -30    2.15    0.15
   1   1 -30    2.35    0.16
  -1   1 -30    2.07    0.14
   1  -1 -30    2.19    0.15
   1  -1 -30    2.18    0.15
   2   1 -30    0.01    0.05
   2   1 -30    0.00    0.05
  -2  -1 -30   -0.02    0.04
  -2  -1 -30    0.12    0.07
  -2   1 -30    0.07    0.05
   2  -1 -30    0.05    0.05
  -2   1 -30    0.00    0.04
   2  -1 -30    0.07    0.05
  -3  -1 -30    9.82    0.51
   3   1 -30   10.19    0.51
  -3  -1 -30   10.06    0.51
  -3   1 -30   10.57    0.51
   3  -1 -30   10.10    0.52
  -3   1 -30   10.19    0.51
  -4  -1 -30    0.30    0.06
   4   1 -30    0.49    0.06
  -4   1 -30    0.30    0.05
   4  -1 -30    0.38    0.06
   0  -2 -30    0.34    0.08
   0  -2 -30    0.49    0.08
   0   2 -30    0.32    0.06
  -1  -2 -30    7.26    0.40
   1   2 -30    7.70    0.39
   1   2 -30    7.66    0.39
   1  -2 -30    7.46    0.40
   1  -2 -30    8.02    0.40
  -1   2 -30    7.47    0.39
   2   2 -30    1.42    0.11
   2   2 -30    1.44    0.10
  -2  -2 -30    1.35    0.11
   2  -2 -30    1.42    0.11
  -2   2 -30    1.52    0.11
   2  -2 -30    1.35    0.11
  -2   2 -30    1.48    0.11
  -3  -2 -30    0.96    0.09
  -3  -2 -30    0.89    0.09
   3   2 -30    0.78    0.08
  -3   2 -30    0.93    0.09
  -3   2 -30    0.88    0.07
   3  -2 -30    0.93    0.08
   0  -3 -30   -0.02    0.04
   0  -3 -30   -0.03    0.07
   0   3 -30   -0.01    0.03
   1   3 -30    1.78    0.14
  -1  -3 -30    1.85    0.12
   1   3 -30    1.71    0.11
  -1   3 -30    1.77    0.11
   1  -3 -30    2.14    0.13
   1  -3 -30    1.84    0.13
  -2  -3 -30    0.59    0.07
   2   3 -30    0.59    0.07
   2   3 -30    0.74    0.07
   2  -3 -30    0.62    0.08
  -2   3 -30    0.58    0.07
   2  -3 -30    0.54    0.09
  -2   3 -30    0.61    0.07
   3   3 -30    0.61    0.06
  -3  -3 -30    0.81    0.08
  -3   3 -30    0.80    0.07
   3  -3 -30    0.70    0.07
  -3   3 -30    0.76    0.08
   0   4 -30    3.62    0.20
   0  -4 -30    3.82    0.21
   0  -4 -30    3.74    0.21
  -1  -4 -30    1.37    0.10
   1   4 -30    1.29    0.09
   1  -4 -30    1.34    0.10
   1   4  30    1.16    0.10
  -1   4 -30    1.29    0.09
   1  -4 -30    1.34    0.10
   2   4 -30    4.37    0.22
  -2  -4 -30    4.04    0.23
   2   4 -30    4.30    0.23
  -2   4 -30    4.32    0.23
  -2   4 -30    4.29    0.22
   2  -4 -30    4.43    0.23
   0   0 -31    0.07    0.05
   1   0 -31   -0.04    0.06
  -1   0 -31    0.02    0.04
   1   0 -31   -0.08    0.04
   2   0 -31   -0.03    0.05
  -2   0 -31   -0.04    0.04
   2   0 -31   -0.03    0.04
   3   0 -31   -0.04    0.03
  -3   0 -31    0.03    0.05
  -3   0 -31    0.04    0.05
   0   1 -31    0.01    0.04
   0  -1 -31    0.04    0.04
  -1  -1 -31    0.18    0.05
   1   1 -31    0.13    0.04
   1   1 -31    0.18    0.06
   1  -1 -31    0.15    0.06
   1  -1 -31    0.18    0.05
  -1   1 -31    0.20    0.06
   2   1 -31    0.28    0.07
  -2  -1 -31    0.20    0.06
   2   1 -31    0.26    0.07
  -2   1 -31    0.09    0.04
  -2   1 -31    0.26    0.08
   2  -1 -31    0.17    0.05
   2  -1 -31    0.21    0.06
  -3  -1 -31    0.21    0.07
  -3  -1 -31    0.21    0.05
   3   1 -31    0.21    0.05
   3  -1 -31    0.13    0.04
  -3   1 -31    0.20    0.06
  -3   1 -31    0.10    0.05
   0  -2 -31   -0.03    0.08
   0  -2 -31    0.06    0.04
   0   2 -31    0.02    0.04
   1   2 -31    4.73    0.26
   1   2 -31    4.70    0.25
  -1  -2 -31    4.99    0.26
  -1   2 -31    4.51    0.25
   1  -2 -31    4.61    0.26
   1  -2 -31    4.87    0.26
   2   2 -31   11.67    0.58
   2   2 -31   11.43    0.57
  -2  -2 -31   11.46    0.58
   2  -2 -31   11.19    0.58
  -2   2 -31   10.92    0.57
   2  -2 -31   12.47    0.58
  -2   2 -31   11.92    0.58
  -3  -2 -31    0.11    0.05
   3   2 -31    0.06    0.04
   3  -2 -31    0.01    0.04
  -3   2 -31    0.14    0.05
  -3   2 -31    0.07    0.04
   0   3 -31    0.06    0.03
   0  -3 -31    0.02    0.04
   0  -3 -31   -0.02    0.08
  -1  -3 -31   -0.01    0.03
   1   3 -31    0.06    0.03
  -1   3 -31    0.00    0.03
   1  -3 -31   -0.01    0.04
   2   3 -31    5.39    0.28
   2   3 -31    5.58    0.28
  -2  -3 -31    5.27    0.28
  -2   3 -31    5.26    0.28
  -2   3 -31    5.02    0.28
   2  -3 -31    5.53    0.28
   0   4 -31    0.51    0.05
   0  -4 -31    0.56    0.06
   1   4 -31    5.02    0.27
  -1   4 -31    5.50    0.27
   1  -4 -31    5.25    0.27
   1  -4 -31    5.37    0.28
   0   0 -32   31.27    1.52
   1   0 -32    0.16    0.06
  -1   0 -32    0.19    0.05
   1   0 -32    0.14    0.05
   2   0 -32   10.81    0.55
   2   0 -32   11.26    0.56
  -2   0 -32   11.37    0.56
  -3   0 -32    1.06    0.09
   3   0 -32    1.09    0.08
   0  -1 -32   -0.02    0.04
   0   1 -32    0.07    0.04
   1   1 -32    0.35    0.10
  -1  -1 -32    0.20    0.06
   1   1 -32    0.20    0.06
  -1   1 -32    0.27    0.06
   1  -1 -32    0.33    0.07
   1  -1 -32    0.23    0.06
   2   1 -32   12.32    0.63
   2   1 -32   11.42    0.63
  -2  -1 -32   13.65    0.64
   2  -1 -32   12.50    0.63
   2  -1 -32   13.17    0.63
  -2   1 -32   13.46    0.63
  -3  -1 -32    0.57    0.08
   3   1 -32    0.54    0.06
  -3   1 -32    0.82    0.10
   3  -1 -32    0.65    0.07
   0  -2 -32    3.43    0.19
   0   2 -32    3.06    0.18
  -1  -2 -32    2.08    0.14
   1   2 -32    2.20    0.13
   1  -2 -32    2.43    0.14
   1  -2 -32    2.33    0.15
  -1   2 -32    2.35    0.14
   2   2 -32    6.97    0.36
   2   2 -32    6.68    0.35
  -2  -2 -32    7.04    0.36
   2  -2 -32    7.66    0.36
  -2   2 -32    6.85    0.36
   0  -3 -32    0.05    0.04
   0   3 -32   -0.01    0.03
   1   3 -32    0.85    0.07
  -1  -3 -32    0.73    0.07
   1  -3 -32    0.65    0.07
   1  -3 -32    0.57    0.09
  -1   3 -32    0.65    0.06
   0   0 -33    0.00    0.04
   1   0 -33    0.02    0.04
  -1   0 -33   -0.03    0.03
  -2   0 -33    0.06    0.04
   2   0 -33   -0.02    0.04
   0   1 -33   -0.01    0.03
   0  -1 -33   -0.01    0.04
   1   1 -33    0.09    0.04
  -1  -1 -33    0.22    0.06
  -1   1 -33    0.18    0.05
   1  -1 -33    0.14    0.07
   1  -1 -33    0.11    0.04
  -2  -1 -33    0.09    0.04
   2   1 -33    0.08    0.05
   2  -1 -33    0.08    0.05
  -2   1 -33    0.04    0.04
   0  -2 -33    1.69    0.11
   1   2 -33    7.53    0.36
  -1  -2 -33    7.36    0.36
   1  -2 -33    7.43    0.36
  -1   2 -33    6.14    0.36
   0   0 -34    0.17    0.05
   0   1 -34    0.01    0.03
   0  -1 -34    0.00    0.03
   0   0   0    0.00    0.00
;
_shelx_hkl_checksum              29500
_shelx_res_file
;
    JTM710_0m.res created by SHELXL-2014/7
TITL JTM710_0m_a.res in Pbca
REM Old TITL JTM710_0m in Pbca
REM SHELXT solution in Pbca
REM R1 0.106,  Rweak 0.001,  Alpha 0.015,  Orientation as input
REM Formula found by SHELXT:  C9 N O S
CELL  1.54178   7.3148   8.4030  27.6701   90.000   90.000   90.000
ZERR    8.000   0.0006   0.0006   0.0021    0.000    0.000    0.000
LATT  1
SYMM 1/2-X, -Y, 1/2+Z
SYMM -X, 1/2+Y, 1/2-Z
SYMM 1/2+X, 1/2-Y, -Z
SFAC C H N O S
UNIT 72 72 8 8 8
TEMP -123
SIZE 0.043 0.311 0.331
L.S. 5
BOND $H
LIST 6
FMAP 2
PLAN 5
CONF
EQIV $1 x+1/2, -y+1/2, -z+1
HTAB C8 O1_$1
EQIV $2 -x+1/2, y+1/2, z
HTAB C9 O1_$2
EQIV $3 x-1/2, -y+1/2, -z+1
HTAB C9 O1_$3
ACTA 144.4
WGHT    0.038300    0.767200
EXTI    0.002871
FVAR       0.17169
S1    5    0.707361    0.307507    0.624135    11.00000    0.02340    0.02723 =
         0.03419    0.00232   -0.00356    0.00595
O1    4    0.448204    0.323556    0.508341    11.00000    0.03166    0.03006 =
         0.02611   -0.00833   -0.00101   -0.00379
N1    3    0.364306    0.441680    0.578767    11.00000    0.01750    0.02291 =
         0.02168   -0.00146   -0.00234    0.00013
C1    1    0.559624    0.447017    0.650975    11.00000    0.02132    0.02335 =
         0.02328    0.00320   -0.00038   -0.00270
C2    1    0.591063    0.500903    0.697831    11.00000    0.02802    0.03834 =
         0.02421    0.00516   -0.00495   -0.00540
H2    2    0.693140    0.458375    0.714123    11.00000    0.03894
C3    1    0.477821    0.614241    0.718463    11.00000    0.03670    0.04689 =
         0.02059   -0.00498    0.00197   -0.00799
H3    2    0.499459    0.652425    0.751196    11.00000    0.04578
C4    1    0.335036    0.677088    0.691776    11.00000    0.03225    0.03639 =
         0.02746   -0.00691    0.00739   -0.00123
H4    2    0.260989    0.758510    0.704762    11.00000    0.04718
C5    1    0.299652    0.622706    0.645476    11.00000    0.02392    0.02697 =
         0.02621   -0.00064    0.00231    0.00098
H5    2    0.195285    0.665738    0.627565    11.00000    0.03036
C6    1    0.409577    0.505240    0.624720    11.00000    0.01935    0.02138 =
         0.01925    0.00108    0.00080   -0.00296
C7    1    0.491112    0.380994    0.547448    11.00000    0.02425    0.01887 =
         0.02287   -0.00124    0.00069   -0.00164
C8    1    0.687104    0.387427    0.563757    11.00000    0.02092    0.02691 =
         0.02825   -0.00443    0.00179   -0.00002
H8A   2    0.730906    0.492155    0.563391    11.00000    0.03252
H8B   2    0.759461    0.319190    0.542141    11.00000    0.03362
C9    1    0.172972    0.446888    0.562784    11.00000    0.02019    0.03454 =
         0.02941   -0.00279   -0.00588    0.00137
H9A   2    0.095053    0.434748    0.592162    11.00000    0.03380
H9B   2    0.147674    0.549053    0.545644    11.00000    0.04255
H9C   2    0.151749    0.358782    0.539415    11.00000    0.03315
HKLF 4
REM  JTM710_0m_a.res in Pbca
REM R1 =  0.0292 for    1628 Fo > 4sig(Fo)  and  0.0298 for all    1674 data
REM    146 parameters refined using      0 restraints
END
WGHT      0.0383      0.7679
REM Highest difference peak  0.285,  deepest hole -0.237,  1-sigma level  0.045
Q1    1   0.5838  0.3910  0.5559  11.00000  0.05    0.28
Q2    1   0.4407  0.4146  0.5621  11.00000  0.05    0.23
Q3    1   0.4989  0.4744  0.6373  11.00000  0.05    0.21
Q4    1   0.3809  0.6064  0.7067  11.00000  0.05    0.21
Q5    1   0.5022  0.5271  0.7108  11.00000  0.05    0.21
;
_shelx_res_checksum              80890
loop_
_space_group_symop_operation_xyz
'x, y, z'
'-x+1/2, -y, z+1/2'
'-x, y+1/2, -z+1/2'
'x+1/2, -y+1/2, -z'
'-x, -y, -z'
'x-1/2, y, -z-1/2'
'x, -y-1/2, z-1/2'
'-x-1/2, y-1/2, z'
loop_
_atom_site_type_symbol
_atom_site_label
_atom_site_fract_x
_atom_site_fract_y
_atom_site_fract_z
_atom_site_U_iso_or_equiv
_atom_site_adp_type
_atom_site_calc_flag
_atom_site_occupancy
S S1 0.70736(4) 0.30751(4) 0.62414(2) 0.02827(15) Uani d 1
O O1 0.44820(14) 0.32356(11) 0.50834(3) 0.0293(2) Uani d 1
N N1 0.36431(14) 0.44168(12) 0.57877(3) 0.0207(2) Uani d 1
C C1 0.55962(17) 0.44702(14) 0.65097(4) 0.0227(3) Uani d 1
C C2 0.59106(19) 0.50090(17) 0.69783(5) 0.0302(3) Uani d 1
H H2 0.693(2) 0.458(2) 0.7141(6) 0.039(5) Uiso d 1
C C3 0.4778(2) 0.61424(18) 0.71846(5) 0.0347(3) Uani d 1
H H3 0.499(3) 0.652(2) 0.7512(7) 0.046(5) Uiso d 1
C C4 0.3350(2) 0.67709(18) 0.69178(5) 0.0320(3) Uani d 1
H H4 0.261(3) 0.759(2) 0.7048(6) 0.047(5) Uiso d 1
C C5 0.29965(17) 0.62271(16) 0.64548(5) 0.0257(3) Uani d 1
H H5 0.195(2) 0.666(2) 0.6276(5) 0.030(4) Uiso d 1
C C6 0.40958(16) 0.50524(14) 0.62472(4) 0.0200(3) Uani d 1
C C7 0.49111(17) 0.38099(14) 0.54745(4) 0.0220(3) Uani d 1
C C8 0.68710(17) 0.38743(16) 0.56376(5) 0.0254(3) Uani d 1
H H8A 0.731(2) 0.492(2) 0.5634(6) 0.033(4) Uiso d 1
H H8B 0.759(3) 0.319(2) 0.5421(6) 0.034(4) Uiso d 1
C C9 0.17297(18) 0.44689(17) 0.56278(5) 0.0280(3) Uani d 1
H H9A 0.095(2) 0.435(2) 0.5922(6) 0.034(4) Uiso d 1
H H9B 0.148(3) 0.549(2) 0.5456(6) 0.043(5) Uiso d 1
H H9C 0.152(2) 0.359(2) 0.5394(6) 0.033(4) Uiso d 1
loop_
_atom_site_aniso_label
_atom_site_aniso_U_11
_atom_site_aniso_U_22
_atom_site_aniso_U_33
_atom_site_aniso_U_12
_atom_site_aniso_U_13
_atom_site_aniso_U_23
S1 0.0234(2) 0.0272(2) 0.0342(2) 0.00595(11) -0.00356(11) 0.00232(12)
O1 0.0317(5) 0.0301(5) 0.0261(5) -0.0038(4) -0.0010(4) -0.0083(4)
N1 0.0175(5) 0.0229(5) 0.0217(5) 0.0001(4) -0.0023(4) -0.0015(4)
C1 0.0213(6) 0.0234(6) 0.0233(6) -0.0027(5) -0.0004(4) 0.0032(5)
C2 0.0280(7) 0.0383(7) 0.0242(6) -0.0054(6) -0.0050(5) 0.0052(5)
C3 0.0367(8) 0.0469(8) 0.0206(6) -0.0080(6) 0.0020(5) -0.0050(6)
C4 0.0322(7) 0.0364(7) 0.0275(7) -0.0012(6) 0.0074(6) -0.0069(5)
C5 0.0239(6) 0.0270(6) 0.0262(6) 0.0010(5) 0.0023(5) -0.0006(5)
C6 0.0194(6) 0.0214(6) 0.0192(6) -0.0030(4) 0.0008(4) 0.0011(4)
C7 0.0242(6) 0.0189(5) 0.0229(6) -0.0016(5) 0.0007(5) -0.0012(4)
C8 0.0209(6) 0.0269(6) 0.0283(6) 0.0000(5) 0.0018(5) -0.0044(5)
C9 0.0202(6) 0.0345(7) 0.0294(7) 0.0014(5) -0.0059(5) -0.0028(6)
loop_
_atom_type_symbol
_atom_type_description
_atom_type_scat_dispersion_real
_atom_type_scat_dispersion_imag
_atom_type_scat_source
C C 0.0181 0.0091 'International Tables Vol C Tables 4.2.6.8 and 6.1.1.4'
H H 0.0000 0.0000 'International Tables Vol C Tables 4.2.6.8 and 6.1.1.4'
N N 0.0311 0.0180 'International Tables Vol C Tables 4.2.6.8 and 6.1.1.4'
O O 0.0492 0.0322 'International Tables Vol C Tables 4.2.6.8 and 6.1.1.4'
S S 0.3331 0.5567 'International Tables Vol C Tables 4.2.6.8 and 6.1.1.4'
loop_
_geom_angle_atom_site_label_1
_geom_angle_atom_site_label_2
_geom_angle_atom_site_label_3
_geom_angle
C1 S1 C8 95.30(6)
C7 N1 C6 123.36(10)
C7 N1 C9 117.81(10)
C6 N1 C9 118.77(10)
C2 C1 C6 119.84(12)
C2 C1 S1 120.56(10)
C6 C1 S1 119.61(9)
C3 C2 C1 120.56(13)
C3 C2 H2 122.5(11)
C1 C2 H2 116.9(11)
C4 C3 C2 119.59(13)
C4 C3 H3 119.6(12)
C2 C3 H3 120.8(12)
C3 C4 C5 120.59(13)
C3 C4 H4 120.4(12)
C5 C4 H4 119.0(12)
C4 C5 C6 120.40(12)
C4 C5 H5 119.5(9)
C6 C5 H5 120.1(9)
C5 C6 C1 118.91(11)
C5 C6 N1 120.02(11)
C1 C6 N1 121.00(11)
O1 C7 N1 122.17(12)
O1 C7 C8 121.54(11)
N1 C7 C8 116.29(10)
C7 C8 S1 110.02(9)
C7 C8 H8A 110.9(10)
S1 C8 H8A 109.3(10)
C7 C8 H8B 108.0(11)
S1 C8 H8B 107.6(10)
H8A C8 H8B 110.9(14)
N1 C9 H9A 107.2(10)
N1 C9 H9B 110.2(11)
H9A C9 H9B 111.7(14)
N1 C9 H9C 108.8(10)
H9A C9 H9C 111.4(14)
H9B C9 H9C 107.6(13)
loop_
_geom_bond_atom_site_label_1
_geom_bond_atom_site_label_2
_geom_bond_distance
S1 C1 1.7589(13)
S1 C8 1.8067(14)
O1 C7 1.2257(15)
N1 C7 1.3680(16)
N1 C6 1.4183(15)
N1 C9 1.4684(16)
C1 C2 1.3924(18)
C1 C6 1.4042(17)
C2 C3 1.385(2)
C2 H2 0.943(18)
C3 C4 1.384(2)
C3 H3 0.97(2)
C4 C5 1.3846(19)
C4 H4 0.94(2)
C5 C6 1.3967(17)
C5 H5 0.979(17)
C7 C8 1.5040(18)
C8 H8A 0.937(19)
C8 H8B 0.983(18)
C9 H9A 0.998(17)
C9 H9B 0.998(19)
C9 H9C 0.995(17)
loop_
_geom_hbond_atom_site_label_D
_geom_hbond_atom_site_label_H
_geom_hbond_atom_site_label_A
_geom_hbond_site_symmetry_A
_geom_hbond_distance_DH
_geom_hbond_distance_HA
_geom_hbond_distance_DA
_geom_hbond_angle_DHA
C8 H8B O1 4_556 0.983(18) 2.301(18) 3.2819(16) 175.0(15)
C9 H9B O1 8_665 0.998(19) 2.62(2) 3.6157(17) 173.3(15)
C9 H9C O1 4_456 0.995(17) 2.512(17) 3.4265(16) 152.6(14)
loop_
_geom_torsion_atom_site_label_1
_geom_torsion_atom_site_label_2
_geom_torsion_atom_site_label_3
_geom_torsion_atom_site_label_4
_geom_torsion
C8 S1 C1 C2 -145.51(11)
C8 S1 C1 C6 34.01(11)
C6 C1 C2 C3 -1.42(19)
S1 C1 C2 C3 178.10(11)
C1 C2 C3 C4 -1.6(2)
C2 C3 C4 C5 2.8(2)
C3 C4 C5 C6 -1.0(2)
C4 C5 C6 C1 -1.97(19)
C4 C5 C6 N1 175.26(11)
C2 C1 C6 C5 3.18(18)
S1 C1 C6 C5 -176.35(9)
C2 C1 C6 N1 -174.02(11)
S1 C1 C6 N1 6.45(16)
C7 N1 C6 C5 152.11(12)
C9 N1 C6 C5 -25.19(16)
C7 N1 C6 C1 -30.72(17)
C9 N1 C6 C1 151.98(12)
C6 N1 C7 O1 178.39(11)
C9 N1 C7 O1 -4.28(17)
C6 N1 C7 C8 -1.19(16)
C9 N1 C7 C8 176.13(11)
O1 C7 C8 S1 -129.74(11)
N1 C7 C8 S1 49.85(13)
C1 S1 C8 C7 -60.08(9)

_cod_database_fobs_code 1545495
