#------------------------------------------------------------------------------
#$Date: 2017-03-07 03:37:29 +0200 (Tue, 07 Mar 2017) $
#$Revision: 194012 $
#$URL: file:///home/coder/svn-repositories/cod/cif/1/54/55/1545509.cif $
#------------------------------------------------------------------------------
#
# This file is available in the Crystallography Open Database (COD),
# http://www.crystallography.net/
#
# All data on this site have been placed in the public domain by the
# contributors.
#
data_1545509
loop_
_publ_author_name
'Yang, Zhusheng'
'Chen, Fei'
'Zhang, Shuxin'
'He, Yanmei'
'Yang, Nianfa'
'Fan, Qing-Hua'
_publ_section_title
;
 Ruthenium-Catalyzed Enantioselective Hydrogenation of Phenanthridine
 Derivatives
;
_journal_name_full               'Organic Letters'
_journal_paper_doi               10.1021/acs.orglett.7b00419
_journal_year                    2017
_chemical_absolute_configuration ad
_chemical_formula_moiety         'C22 H21 N O3 S'
_chemical_formula_sum            'C22 H21 N O3 S'
_chemical_formula_weight         379.46
_space_group_crystal_system      orthorhombic
_space_group_IT_number           19
_space_group_name_Hall           'P 2ac 2ab'
_space_group_name_H-M_alt        'P 21 21 21'
_symmetry_space_group_name_Hall  'P 2ac 2ab'
_symmetry_space_group_name_H-M   'P 21 21 21'
_atom_sites_solution_hydrogens   geom
_atom_sites_solution_primary     direct
_audit_creation_date             2016-08-02
_audit_creation_method
;
Olex2 1.2
(compiled 2016.02.19 svn.r3266 for OlexSys, GUI svn.r5155)
;
_cell_angle_alpha                90
_cell_angle_beta                 90
_cell_angle_gamma                90
_cell_formula_units_Z            4
_cell_length_a                   9.509(3)
_cell_length_b                   13.094(4)
_cell_length_c                   15.323(5)
_cell_measurement_reflns_used    5496
_cell_measurement_temperature    173.1500
_cell_measurement_theta_max      27.4540
_cell_measurement_theta_min      2.6472
_cell_volume                     1907.9(10)
_computing_cell_refinement       'CrystalClear (Rigaku Inc., 2007)'
_computing_data_collection       'CrystalClear (Rigaku Inc., 2007)'
_computing_data_reduction        'CrystalClear (Rigaku Inc., 2007)'
_computing_molecular_graphics    'Olex2 (Dolomanov et al., 2009)'
_computing_publication_material  'CIFTAB (Sheldrick, 2013)'
_computing_structure_refinement  'SHELXL (Sheldrick, 2014)'
_computing_structure_solution
;
'SHELXT (Sheldrick, 2014)'
;
_diffrn_ambient_temperature      173.1500
_diffrn_detector_area_resol_mean 28.5714
_diffrn_measured_fraction_theta_full 0.998
_diffrn_measured_fraction_theta_max 0.998
_diffrn_measurement_details
;
scan:
    Number of images: 360
               Slice: -110.0000 - 70.0000
         Image width: 0.5000
            Exp time: 10.0000
       Rotation axis: Omega
               Omega: 0.0000
                 Chi: 45.0000
                 Phi: 90.0000
                 XTD: 45.1778
              2theta: -19.8693
scan:
    Number of images: 360
               Slice: -110.0000 - 70.0000
         Image width: 0.5000
            Exp time: 10.0000
       Rotation axis: Omega
               Omega: 0.0000
                 Chi: 45.0000
                 Phi: 270.0000
                 XTD: 45.1778
              2theta: -19.8693
scan:
    Number of images: 280
               Slice: -110.0000 - 30.0000
         Image width: 0.5000
            Exp time: 10.0000
       Rotation axis: Omega
               Omega: 0.0000
                 Chi: 45.0000
                 Phi: 0.0000
                 XTD: 45.1778
              2theta: -19.8693
;
_diffrn_measurement_device
;
Saturn724+ (2x2 bin mode)
;
_diffrn_measurement_device_details
;
AFC10: Fixed Chi 2 circle
;
_diffrn_measurement_device_type  'Saturn724+ CCD'
_diffrn_measurement_method       '\w scans at fixed \c = 45\%'
_diffrn_orient_matrix_type       d*Trek
_diffrn_orient_matrix_UB_11      -0.0285
_diffrn_orient_matrix_UB_12      0.0926
_diffrn_orient_matrix_UB_13      -0.0408
_diffrn_orient_matrix_UB_21      0.0583
_diffrn_orient_matrix_UB_22      0.0338
_diffrn_orient_matrix_UB_23      0.0359
_diffrn_orient_matrix_UB_31      0.0382
_diffrn_orient_matrix_UB_32      -0.0110
_diffrn_orient_matrix_UB_33      -0.0517
_diffrn_radiation_detector       CCD
_diffrn_radiation_monochromator  'Graphite Monochromator'
_diffrn_radiation_type           MoK\a
_diffrn_radiation_wavelength     0.71073
_diffrn_reflns_av_R_equivalents  0.0973
_diffrn_reflns_av_unetI/netI     0.0724
_diffrn_reflns_Laue_measured_fraction_full 0.998
_diffrn_reflns_Laue_measured_fraction_max 0.998
_diffrn_reflns_limit_h_max       12
_diffrn_reflns_limit_h_min       -12
_diffrn_reflns_limit_k_max       16
_diffrn_reflns_limit_k_min       -16
_diffrn_reflns_limit_l_max       19
_diffrn_reflns_limit_l_min       -19
_diffrn_reflns_number            21048
_diffrn_reflns_point_group_measured_fraction_full 0.998
_diffrn_reflns_point_group_measured_fraction_max 0.999
_diffrn_reflns_theta_full        26.000
_diffrn_reflns_theta_max         27.434
_diffrn_reflns_theta_min         2.962
_diffrn_source                   'Sealed Tube'
_diffrn_source_current           30.0000
_diffrn_source_power             1.5000
_diffrn_source_voltage           50.0000
_exptl_absorpt_coefficient_mu    0.192
_exptl_absorpt_correction_T_max  1.00000
_exptl_absorpt_correction_T_min  0.86536
_exptl_absorpt_correction_type   multi-scan
_exptl_absorpt_process_details   'CrystalClear (Rigaku Inc., 2007)'
_exptl_crystal_colour            Colorless
_exptl_crystal_density_diffrn    1.321
_exptl_crystal_description       block
_exptl_crystal_F_000             800
_exptl_crystal_size_max          0.146
_exptl_crystal_size_mid          0.138
_exptl_crystal_size_min          0.125
_refine_diff_density_max         0.245
_refine_diff_density_min         -0.294
_refine_diff_density_rms         0.059
_refine_ls_abs_structure_details
;
 Flack x determined using 1074 quotients [(I+)-(I-)]/[(I+)+(I-)]
 (Parsons, Flack and Wagner, Acta Cryst. B69 (2013) 249-259).
;
_refine_ls_abs_structure_Flack   0.00(7)
_refine_ls_extinction_method     none
_refine_ls_goodness_of_fit_ref   1.272
_refine_ls_hydrogen_treatment    constr
_refine_ls_matrix_type           full
_refine_ls_number_parameters     247
_refine_ls_number_reflns         4328
_refine_ls_number_restraints     0
_refine_ls_restrained_S_all      1.272
_refine_ls_R_factor_all          0.1001
_refine_ls_R_factor_gt           0.0918
_refine_ls_shift/su_max          0.000
_refine_ls_shift/su_mean         0.000
_refine_ls_structure_factor_coef Fsqd
_refine_ls_weighting_details
'w=1/[\s^2^(Fo^2^)+2.1919P] where P=(Fo^2^+2Fc^2^)/3'
_refine_ls_weighting_scheme      calc
_refine_ls_wR_factor_gt          0.1261
_refine_ls_wR_factor_ref         0.1289
_reflns_Friedel_coverage         0.760
_reflns_Friedel_fraction_full    0.999
_reflns_Friedel_fraction_max     0.999
_reflns_number_gt                3974
_reflns_number_total             4328
_reflns_threshold_expression     'I > 2\s(I)'
_cod_data_source_file            ol7b00419_si_002.cif
_cod_data_source_block           sa4951
_cod_database_code               1545509
_shelx_space_group_comment
;
The symmetry employed for this shelxl refinement is uniquely defined
by the following loop, which should always be used as a source of
symmetry information in preference to the above space-group names.
They are only intended as comments.
;
_diffrn_number_total             2484
_olex2_refinement_description
;
1. Fixed Uiso
 At 1.2 times of:
  All C(H) groups
 At 1.5 times of:
  All C(H,H,H) groups
2.a Ternary CH refined with riding coordinates:
 C1(H1)
2.b Aromatic/amide H refined with riding coordinates:
 C3(H3), C5(H5), C6(H6), C9(H9), C10(H10), C11(H11), C12(H12), C17(H17),
 C18(H18), C20(H20), C21(H21)
2.c Idealised Me refined as rotating group:
 C14(H14A,H14B,H14C), C15(H15A,H15B,H15C), C22(H22A,H22B,H22C)
;
_shelx_res_file
;
    sa4951.res created by SHELXL-2014/7

TITL sa4951_a.res in P2(1)2(1)2(1)
CELL 0.71073 9.5094 13.0939 15.323 90 90 90
ZERR 4 0.003 0.0041 0.0049 0 0 0
LATT -1
SYMM 0.5-X,-Y,0.5+Z
SYMM -X,0.5+Y,0.5-Z
SYMM 0.5+X,0.5-Y,-Z
SFAC C H N O S
UNIT 88 84 4 12 4

L.S. 4
PLAN  20
BOND $H
LIST 6
fmap 2
MORE -1
ACTA 52
CONF
OMIT 0 1 1
OMIT 1 0 1
REM <olex2.extras>
REM <HklSrc "%.\\sa4951.hkl">
REM </olex2.extras>

WGHT    0.000000    2.191900
FVAR       0.71738
S1    5    0.299388    0.357096    0.513311    11.00000    0.03431    0.03784 =
         0.01933    0.00011    0.00136   -0.00143
O1    4    0.796179    0.268142    0.826876    11.00000    0.02936    0.04222 =
         0.04294    0.00555   -0.01079   -0.00204
O2    4    0.355879    0.275778    0.461182    11.00000    0.05376    0.04769 =
         0.01981   -0.00959    0.00468   -0.00016
O3    4    0.176408    0.411119    0.483572    11.00000    0.03167    0.05851 =
         0.02941    0.00932   -0.00739    0.00277
N1    3    0.259070    0.305575    0.608563    11.00000    0.02425    0.02781 =
         0.01925   -0.00263   -0.00056   -0.00078
C1    1    0.362567    0.234108    0.648150    11.00000    0.02908    0.02400 =
         0.02290   -0.00424    0.00068    0.00383
AFIX  13
H1    2    0.424817    0.209217    0.601830    11.00000   -1.20000
AFIX   0
C2    1    0.451949    0.286775    0.716569    11.00000    0.02420    0.02374 =
         0.01936    0.00072    0.00159    0.00168
C3    1    0.589005    0.253535    0.733002    11.00000    0.02989    0.02537 =
         0.02268    0.00297    0.00689   -0.00252
AFIX  43
H3    2    0.628733    0.201981    0.699312    11.00000   -1.20000
AFIX   0
C4    1    0.665551    0.298390    0.800357    11.00000    0.02789    0.03290 =
         0.03212    0.00868   -0.00451   -0.00349
C5    1    0.607967    0.379204    0.846878    11.00000    0.04009    0.02768 =
         0.03115    0.00111   -0.00567   -0.00757
AFIX  43
H5    2    0.661042    0.411603    0.889682    11.00000   -1.20000
AFIX   0
C6    1    0.473500    0.411659    0.830250    11.00000    0.03204    0.02710 =
         0.02804    0.00125   -0.00234   -0.00192
AFIX  43
H6    2    0.436144    0.465730    0.862051    11.00000   -1.20000
AFIX   0
C7    1    0.392062    0.364364    0.766061    11.00000    0.02901    0.02459 =
         0.02122    0.00178    0.00233   -0.00300
C8    1    0.242525    0.391270    0.749984    11.00000    0.03124    0.02294 =
         0.02174   -0.00124    0.00677   -0.00097
C9    1    0.160087    0.439609    0.812772    11.00000    0.03398    0.03030 =
         0.02795   -0.00078   -0.00267    0.00043
AFIX  43
H9    2    0.199923    0.456904    0.866195    11.00000   -1.20000
AFIX   0
C10   1    0.021230    0.462272    0.797462    11.00000    0.03940    0.02962 =
         0.03176   -0.00608    0.00971    0.00709
AFIX  43
H10   2   -0.032256    0.493862    0.840510    11.00000   -1.20000
AFIX   0
C11   1   -0.039652    0.437756    0.716987    11.00000    0.02537    0.03152 =
         0.04199    0.00674    0.00246    0.00380
AFIX  43
H11   2   -0.132596    0.455416    0.705635    11.00000   -1.20000
AFIX   0
C12   1    0.038514    0.387311    0.654487    11.00000    0.02308    0.03277 =
         0.03097   -0.00062   -0.00299   -0.00208
AFIX  43
H12   2   -0.002525    0.368443    0.601808    11.00000   -1.20000
AFIX   0
C13   1    0.178189    0.365026    0.670720    11.00000    0.03611    0.01853 =
         0.02399    0.00058    0.00431   -0.00474
C14   1    0.283560    0.142724    0.686320    11.00000    0.04155    0.02784 =
         0.03228   -0.00533   -0.00361   -0.00855
AFIX 137
H14A  2    0.216277    0.166282    0.728467    11.00000   -1.50000
H14B  2    0.349169    0.097459    0.714090    11.00000   -1.50000
H14C  2    0.235634    0.107061    0.640366    11.00000   -1.50000
AFIX   0
C15   1    0.860222    0.184565    0.781206    11.00000    0.03176    0.04737 =
         0.05513    0.00414   -0.00116    0.01173
AFIX 137
H15A  2    0.871489    0.202274    0.720813    11.00000   -1.50000
H15B  2    0.801429    0.125222    0.785939    11.00000   -1.50000
H15C  2    0.950602    0.170272    0.806304    11.00000   -1.50000
AFIX   0
C16   1    0.435260    0.447647    0.530947    11.00000    0.03526    0.03141 =
         0.01984    0.00008    0.00875   -0.00148
C17   1    0.400262    0.548047    0.549318    11.00000    0.03421    0.03677 =
         0.03277   -0.00097    0.00935    0.00138
AFIX  43
H17   2    0.306686    0.568113    0.553457    11.00000   -1.20000
AFIX   0
C18   1    0.508038    0.617903    0.561388    11.00000    0.06091    0.02850 =
         0.03453   -0.00453    0.01133    0.00133
AFIX  43
H18   2    0.485566    0.685608    0.573298    11.00000   -1.20000
AFIX   0
C19   1    0.648557    0.589762    0.556218    11.00000    0.04461    0.04120 =
         0.02358   -0.00286    0.00191   -0.00676
C20   1    0.679257    0.487790    0.540351    11.00000    0.02535    0.05106 =
         0.02668    0.00849    0.00106    0.00448
AFIX  43
H20   2    0.772673    0.466883    0.538466    11.00000   -1.20000
AFIX   0
C21   1    0.573413    0.416336    0.527234    11.00000    0.04024    0.03246 =
         0.02658    0.00505    0.00273    0.00882
AFIX  43
H21   2    0.595480    0.348377    0.516111    11.00000   -1.20000
AFIX   0
C22   1    0.763040    0.668921    0.566779    11.00000    0.06877    0.06171 =
         0.03460   -0.01232    0.00823   -0.02288
AFIX 137
H22A  2    0.766966    0.710943    0.515498    11.00000   -1.50000
H22B  2    0.851849    0.635355    0.574826    11.00000   -1.50000
H22C  2    0.743000    0.710731    0.616719    11.00000   -1.50000
AFIX   0
HKLF 4

REM  sa4951_a.res in P2(1)2(1)2(1)
REM R1 =  0.0918 for    3974 Fo > 4sig(Fo)  and  0.1001 for all    4328 data
REM    247 parameters refined using      0 restraints

END

WGHT      0.0000      2.1919

REM Highest difference peak  0.245,  deepest hole -0.294,  1-sigma level  0.059
Q1    1   0.3236  0.3771  0.7518  11.00000  0.05    0.25
Q2    1   0.1478  0.3440  0.4297  11.00000  0.05    0.24
Q3    1   0.0801  0.4402  0.5040  11.00000  0.05    0.23
Q4    1   0.8396  0.6818  0.6183  11.00000  0.05    0.23
Q5    1   0.1825  0.1226  0.6600  11.00000  0.05    0.22
Q6    1  -0.1834  0.4823  0.6634  11.00000  0.05    0.22
Q7    1   0.9636  0.2988  0.8962  11.00000  0.05    0.22
Q8    1   0.7061  0.2198  0.6062  11.00000  0.05    0.22
Q9    1   0.0742  0.4063  0.8272  11.00000  0.05    0.21
Q10   1   0.3618  0.3968  0.4618  11.00000  0.05    0.21
Q11   1   0.3734  0.4115  0.5155  11.00000  0.05    0.21
Q12   1   0.2363  0.5434  0.5555  11.00000  0.05    0.21
Q13   1   0.2536  0.4131  0.4517  11.00000  0.05    0.21
Q14   1   0.3557  0.3247  0.4609  11.00000  0.05    0.20
Q15   1   0.7726  0.0366  0.8009  11.00000  0.05    0.20
Q16   1   0.7135  0.0836  0.7532  11.00000  0.05    0.20
Q17   1   0.4538  0.2667  0.5033  11.00000  0.05    0.20
Q18   1   0.2768  0.4576  0.5017  11.00000  0.05    0.20
Q19   1   0.1892  0.5998  0.8678  11.00000  0.05    0.20
Q20   1   0.0629  0.4982  0.6349  11.00000  0.05    0.20
;
_shelx_res_checksum              20291
_shelx_hkl_file
;
   0   0  -3   -9.14    7.27
   0   0   3   -0.58    7.73
   0   0   3    3.32    8.97
   0   0  -3   16.38    8.25
   0   0   4 9953.20  144.90
   0   0   4 9963.32  279.97
   0   0   4 9972.25  275.28
   0   0  -5   -6.83    9.55
   0   0   5   14.23   11.13
   0   0  -5   31.67   13.54
   0   0   5    0.72    1.27
   0   0  -6 3709.20   66.95
   0   0   6 3599.95   63.06
   0   0   6 3724.50   68.46
   0   0   6 3752.63   54.23
   0   0  -7   24.02   15.30
   0   0   7   25.71    9.45
   0   0   7   40.08   16.66
   0   0   7    2.37    3.25
   0   0  -8  364.89   24.34
   0   0   8  293.50   24.06
   0   0   8  338.13   18.82
   0   0  -9   11.32   12.03
   0   0   9    3.67   12.27
   0   0 -10  147.54   21.48
   0   0  10   72.98   17.22
   0   0 -11   25.23   17.96
   0   0  11   20.32   13.65
   0   0 -12   22.53   12.69
   0   0  12   14.49   13.62
   0   0 -13   22.07   12.55
   0   0 -14   77.51   19.27
   0   0  14   52.14   17.29
   0   0 -15   13.77   17.26
   0   0  15   31.69   17.30
   0   0 -16   31.30   15.63
   0   0  16   59.01   25.03
   0   0  17   35.21   22.25
   0   0 -18   30.63   13.86
   0   0  18   44.56   23.31
   0   0 -19   42.94   16.80
   0   0  19   13.93   16.69
   0   1   0   -0.47    2.59
   0  -1  -1    6.62    2.57
   0   1   1    1.53    2.41
   0   1   1   -0.40    1.55
   0  -1   1   -1.21    4.28
   0   1  -1    4.06    3.46
   0   1   1    0.23    1.94
   0   1   1    1.64    2.10
   0  -1   1    5.98    3.70
   0   1   2  480.14   11.98
   0   1  -2  506.22   14.65
   0  -1   2  500.64   13.48
   0   1  -2  515.53   14.97
   0   1   2  534.64   12.47
   0  -1  -2  495.28   11.79
   0   1   2  497.13    9.92
   0  -1   2  518.21   12.61
   0  -1  -3 2258.46   39.53
   0   1   3 2284.81   38.96
   0  -1   3 2276.41   40.34
   0  -1   3 2217.07   41.95
   0   1  -3 2288.61   42.19
   0   1   3 2250.09   39.51
   0   1   3 2251.21   32.36
   0   1  -3 2316.13   37.33
   0   1  -4 9816.68  144.98
   0  -1   4 9574.77  140.93
   0  -1   4 9942.63  148.13
   0   1  -4 9601.92  142.54
   0   1   4 9909.03  145.50
   0  -1   4 9999.00  278.05
   0   1  -4 9698.38  137.26
   0  -1  -5  946.51   25.74
   0   1   5  976.63   25.02
   0  -1   5  935.23   27.98
   0   1   5  945.63   26.66
   0  -1  -5  974.98   25.53
   0  -1   5  986.78   32.01
   0   1  -5  945.22   19.87
   0  -1  -6 1671.11   37.89
   0   1   6 1706.32   36.99
   0   1  -6 1658.12   39.63
   0  -1   6 1666.43   37.03
   0  -1   6 1744.71   44.26
   0   1   6 1675.33   39.02
   0   1  -6 1663.90   38.99
   0  -1  -6 1720.08   37.66
   0  -1   6 1624.47   31.67
   0   1  -6 1734.38   30.59
   0  -1  -7 2009.60   65.64
   0   1  -7 2006.68   66.24
   0   1   7 2039.90   64.87
   0  -1   7 1886.24   61.33
   0  -1   7 2011.46   68.19
   0  -1   7 2170.58   68.47
   0   1  -7 2009.34   59.11
   0  -1  -8  364.14   23.62
   0   1  -8  382.78   25.98
   0  -1   8  382.36   28.86
   0   1   8  383.29   27.16
   0  -1   8  386.93   29.74
   0   1  -8  328.47   16.59
   0  -1  -9 1543.33   69.87
   0   1  -9 1311.16   62.02
   0  -1   9 1605.06   74.92
   0   1   9 1374.11   65.10
   0  -1   9 1349.32   56.55
   0   1  -9 1421.84   58.84
   0  -1 -10  373.01   29.15
   0   1 -10  336.44   27.76
   0  -1  10  347.43   30.60
   0   1  10  394.14   32.22
   0  -1  10  356.98   22.96
   0   1 -10  334.54   20.11
   0  -1 -11   26.13   12.72
   0   1 -11   38.20   17.92
   0  -1  11   11.40   13.25
   0   1  11   14.14   12.38
   0  -1  11    4.62    2.57
   0   1 -11    7.55    3.05
   0  -1 -12   30.99   13.89
   0   1 -12   -4.08   12.15
   0  -1  12   72.71   21.11
   0   1  12   54.21   17.67
   0  -1 -13    8.10   11.37
   0   1 -13   25.92   13.37
   0  -1  13   -2.52   14.31
   0   1  13   18.29   15.58
   0  -1 -14    3.10   11.32
   0   1 -14   41.39   15.31
   0  -1  14   27.99   15.77
   0   1  14   47.73   18.56
   0  -1 -15  105.12   21.62
   0   1 -15  115.48   24.06
   0  -1  15  100.21   25.77
   0   1  15   95.05   20.34
   0  -1 -16   19.00   13.14
   0   1 -16   14.52   13.38
   0  -1  16   58.26   25.16
   0   1  16   19.95   14.69
   0  -1 -17   93.06   23.23
   0   1 -17   92.42   22.80
   0  -1  17   71.51   19.35
   0   1  17   66.90   19.88
   0  -1 -18   -2.56   11.88
   0   1 -18    5.27   13.83
   0  -1  18   33.91   18.84
   0   1  18   47.83   16.97
   0  -1 -19   40.86   14.99
   0   1 -19   31.08   15.21
   0  -1  19   35.42   25.21
   0   1  19    7.77   17.46
   0   2   0 1171.95   23.18
   0   2   0 1154.93   19.38
   0   2   0 1255.84   24.55
   0  -2  -2 2437.45   41.33
   0   2   2 2380.96   40.19
   0  -2   2 2507.45   44.67
   0   2  -2 2386.76   41.93
   0   2   2 2444.91   38.55
   0  -2   2 2315.28   40.95
   0   2  -2 2417.70   42.06
   0   2   3 2281.58   40.79
   0  -2   3 2330.20   43.34
   0   2  -3 2254.37   42.85
   0  -2  -3 2381.90   40.23
   0  -2  -3 2357.80   38.38
   0  -2   3 2342.88   42.17
   0   2   3 2336.62   37.25
   0   2  -3 2287.98   40.73
   0  -2  -4  237.69   15.66
   0   2  -4  217.28   15.39
   0  -2   4  213.59   13.71
   0  -2   4  214.59   18.98
   0   2  -4  239.86   14.88
   0  -2  -4  213.81   12.94
   0  -2  -4  229.10    7.90
   0  -2   4  228.22   23.58
   0   2   4  209.49    7.49
   0   2  -4  203.15   11.97
   0  -2  -5 1331.62   30.95
   0   2   5 1461.02   32.26
   0  -2   5 1423.84   33.60
   0   2  -5 1451.95   34.09
   0   2   5 1354.62   31.66
   0  -2  -5 1435.33   31.96
   0  -2   5 1430.53   39.41
   0   2   5 1453.10   23.45
   0   2  -5 1376.79   27.90
   0  -2  -6   80.81   16.15
   0   2   6   27.80    7.75
   0   2  -6   40.98   11.79
   0  -2   6   70.69    8.48
   0  -2   6   56.19   18.69
   0   2   6   67.03   10.80
   0  -2  -6   44.57    6.24
   0  -2   6   59.15   12.26
   0   2  -6   47.72    7.63
   0   2   6   52.17    3.27
   0  -2  -7   37.88   10.31
   0   2   7   33.89    7.80
   0   2  -7   29.94   17.00
   0  -2   7    3.11   13.16
   0   2   7   60.62   12.09
   0  -2  -7   17.67    8.08
   0  -2   7   55.70   10.38
   0   2  -7   27.06    6.46
   0  -2  -8  143.67   19.55
   0   2  -8  115.18   15.78
   0  -2   8  107.36   17.07
   0   2   8   99.13   14.05
   0  -2   8  129.29   17.54
   0   2  -8  135.98   11.15
   0  -2  -9  716.61   46.45
   0   2  -9  824.70   52.69
   0  -2   9  742.90   49.31
   0   2   9  779.86   50.19
   0  -2   9  794.82   61.36
   0   2  -9  758.12   43.52
   0  -2 -10   45.50   17.07
   0   2 -10   75.96   18.68
   0  -2  10   51.02   13.97
   0   2  10   53.01   17.07
   0  -2  10   56.91   13.64
   0   2 -10   57.44   11.43
   0  -2 -11  194.55   20.21
   0   2 -11  243.03   22.51
   0  -2  11  179.57   23.35
   0   2  11  248.02   23.21
   0  -2  11  176.90   29.82
   0   2 -11  209.79   14.34
   0  -2 -12   75.00   21.32
   0   2 -12   35.49   19.37
   0  -2  12   41.99   23.04
   0   2  12   52.84   22.03
   0  -2  12   40.35   10.74
   0   2 -12   30.55    7.82
   0  -2 -13 1187.03   75.02
   0   2 -13 1297.20   82.81
   0  -2  13 1277.94   83.48
   0   2  13 1181.24   77.09
   0  -2  13 1065.81   60.64
   0  -2 -14   19.99   12.12
   0   2 -14   20.80   14.15
   0  -2  14   46.31   19.33
   0   2  14   28.92   14.97
   0  -2 -15  311.12   41.07
   0   2 -15  268.90   36.18
   0  -2  15  258.82   39.75
   0   2  15  293.54   41.31
   0  -2 -16   16.68   12.79
   0   2 -16   27.34   18.11
   0  -2  16   11.56   15.72
   0   2  16    7.25   15.49
   0  -2 -17   33.17   14.76
   0   2 -17    0.32   13.58
   0  -2  17   55.21   26.73
   0   2  17   42.55   17.52
   0  -2 -18   44.02   18.70
   0   2 -18   34.16   14.45
   0  -2  18   43.14   18.51
   0   2  18   40.92   17.68
   0  -2 -19   60.71   22.38
   0   2 -19   17.53   13.98
   0  -2  19   13.89   17.85
   0   2  19   57.03   21.79
   0   3   0   16.19   10.45
   0  -3   0   21.37    9.37
   0  -3   0   11.00    7.47
   0   3   0   16.99    6.69
   0   3   0   17.02   10.01
   0   3   1   15.42    7.67
   0   3  -1   -8.77   11.23
   0  -3  -1   10.88    5.34
   0   3   1   16.14    4.94
   0  -3   1    1.49    6.76
   0  -3  -1   24.97   11.40
   0  -3   1   -2.77   11.23
   0   3   1   32.17    9.59
   0   3  -1   24.29   10.88
   0  -3  -2  318.41   15.20
   0   3   2  343.98   46.15
   0   3  -2  368.97   20.26
   0  -3   2  308.19   14.71
   0  -3  -2  348.20   14.87
   0   3   2  353.04   17.59
   0   3  -2  318.80   13.91
   0  -3  -2  380.11   14.56
   0  -3   2  336.43   49.48
   0   3  -3 1503.49   35.88
   0  -3   3 1393.91   31.55
   0   3   3 1357.00   32.48
   0   3  -3 1403.72   31.52
   0   3   3 1369.34   25.74
   0  -3  -3 1430.21   28.33
   0  -3   3 1390.44   42.76
   0   3   3 1393.41   27.72
   0  -3  -4   99.67   21.23
   0   3   4   81.04   13.81
   0  -3   4   46.00    9.46
   0   3   4   76.40    6.80
   0  -3   4   64.33   12.56
   0   3  -4   43.15    8.92
   0   3   4   53.09    6.85
   0  -3  -4   76.25   11.51
   0  -3   4   61.15   12.81
   0   3   4   50.27    6.53
   0   3  -4   70.66    9.29
   0  -3  -5 1922.32   41.25
   0   3   5 1869.70   38.63
   0   3  -5 1847.39   43.48
   0  -3   5 1964.16   42.77
   0  -3   5 1939.51   45.80
   0   3  -5 1869.40   41.02
   0   3   5 1895.65   38.16
   0  -3  -5 1962.82   38.35
   0  -3  -5 1967.40   33.79
   0  -3   5 1936.44   55.34
   0   3   5 1931.72   33.17
   0   3  -5 1887.77   38.33
   0  -3  -6  119.17   24.63
   0   3   6  103.37   12.18
   0   3   6  104.89   11.38
   0  -3  -6  131.28   12.23
   0  -3  -6  120.11   18.47
   0  -3   6  143.45   24.35
   0   3   6  103.83    6.93
   0   3  -6   91.36    9.08
   0  -3  -7 1435.19   64.38
   0   3  -7 1404.52   51.74
   0  -3   7 1452.92   53.08
   0   3   7 1541.23   68.93
   0  -3  -7 1363.47   46.08
   0  -3   7 1565.00   73.42
   0   3  -7 1502.04   64.99
   0   3   7 1472.33   43.06
   0  -3  -8  190.87   16.55
   0   3  -8  176.70   18.76
   0  -3   8  213.18   25.84
   0   3   8  175.99   17.25
   0  -3   8  211.39   34.03
   0   3  -8  184.36   13.37
   0   3   8  183.21    8.37
   0  -3  -9  311.59   25.09
   0   3  -9  261.46   23.37
   0  -3   9  346.63   30.93
   0   3   9  276.96   23.55
   0  -3   9  323.54   41.54
   0   3  -9  268.20   20.12
   0  -3 -10   11.44   11.17
   0   3 -10   23.57   14.95
   0  -3  10   10.69   12.04
   0   3  10   20.46   11.02
   0  -3  10    1.02    5.71
   0   3 -10   20.17    7.30
   0  -3 -11  620.69   38.10
   0   3 -11  810.39   50.26
   0  -3  11  694.89   44.90
   0   3  11  665.22   40.74
   0  -3  11  663.79   59.10
   0   3 -11  590.67   32.11
   0  -3 -12  109.98   24.83
   0   3 -12  164.11   24.83
   0  -3  12   94.11   23.40
   0   3  12   96.83   22.37
   0  -3  12   87.37   23.63
   0   3 -12   87.51   18.56
   0  -3 -13   45.03   17.38
   0   3 -13    7.19   13.08
   0  -3  13   36.56   18.21
   0   3  13   61.80   21.51
   0  -3  13    6.01    5.11
   0  -3 -14  104.58   17.73
   0   3 -14  172.98   28.48
   0  -3  14  146.34   26.35
   0   3  14   70.80   24.22
   0  -3  14   89.62   25.03
   0  -3 -15    8.12   10.77
   0   3 -15   42.99   14.47
   0  -3  15   42.62   19.95
   0   3  15    5.50   14.44
   0   3 -16  198.38   33.29
   0  -3  16  105.07   29.95
   0   3  16  205.50   34.46
   0  -3 -17   62.61   20.49
   0   3 -17   43.96   16.05
   0  -3  17   57.71   21.37
   0   3  17   88.46   26.23
   0  -3 -18  195.58   44.52
   0   3 -18  205.46   31.33
   0  -3  18  144.95   37.53
   0   3  18  163.24   37.27
   0  -3 -19   45.66   20.34
   0   3 -19   17.92   14.12
   0  -3  19   43.20   21.42
   0   3  19   35.95   16.19
   0   4   0 3304.60   60.01
   0  -4   0 3271.05   52.47
   0   4   0 3182.67   50.73
   0  -4   0 3183.82   63.69
   0   4   0 3163.84   55.88
   0   4   1 1381.69   31.82
   0   4  -1 1468.41   35.36
   0   4   1 1407.37   34.70
   0  -4  -1 1432.13   26.74
   0   4   1 1368.11   25.04
   0  -4   1 1398.29   28.73
   0   4  -1 1423.27   28.87
   0  -4  -1 1454.38   34.14
   0   4   1 1441.56   32.17
   0   4   2  526.11   18.19
   0  -4  -2  519.80   17.00
   0   4   2  488.72   13.45
   0  -4   2  492.62   18.30
   0   4  -2  560.53   19.28
   0  -4  -2  489.23   22.58
   0  -4   2  543.72   58.90
   0   4   2  530.81   19.44
   0  -4  -3  327.06   20.16
   0  -4   3  357.08   17.63
   0  -4  -3  337.41   12.35
   0  -4   3  347.07   22.53
   0   4  -3  316.48   15.03
   0  -4  -3  348.35   15.74
   0  -4   3  348.53   52.14
   0   4   3  348.54   13.92
   0  -4  -4  417.98   62.64
   0   4   4  337.68   40.32
   0   4  -4  388.04   22.62
   0  -4   4  342.98   16.73
   0   4   4  373.00   13.22
   0  -4   4  370.66   19.02
   0   4  -4  381.62   17.67
   0   4   4  389.03   13.68
   0  -4  -4  377.34   15.07
   0   4   4  338.72   13.02
   0   4  -4  339.40   16.39
   0  -4  -5    9.31    5.14
   0   4   5   22.15   10.46
   0   4  -5   30.62   13.19
   0   4   5    7.71    2.64
   0  -4   5   62.66   18.73
   0   4   5   10.22    6.13
   0  -4  -5   12.86    5.00
   0  -4   5  -16.04   10.53
   0   4   5    7.70    5.34
   0   4  -5   17.36    7.83
   0  -4  -6  426.77   29.28
   0   4   6  391.05   19.58
   0   4  -6  369.18   24.50
   0   4   6  423.29   18.95
   0   4   6  435.69   21.07
   0  -4  -6  444.33   21.10
   0  -4   6  505.69   31.75
   0   4   6  447.59   17.46
   0   4  -6  422.61   20.55
   0  -4  -7  316.61   43.93
   0   4  -7  308.26   24.56
   0   4   7  242.09   15.79
   0  -4   7  321.13   25.16
   0   4   7  300.93   21.14
   0  -4  -7  282.73   21.78
   0  -4   7  281.78   38.81
   0   4  -7  282.18   18.05
   0   4   7  278.81   15.61
   0  -4  -8  312.68   54.04
   0   4  -8  384.93   30.38
   0   4   8  296.98   22.71
   0  -4   8  283.11   36.71
   0   4  -8  275.83   20.80
   0   4   8  270.68   16.81
   0  -4  -9    7.90    6.36
   0   4  -9   17.67   10.65
   0  -4   9   40.88   14.74
   0   4   9   -1.20    8.64
   0  -4   9   11.89    3.63
   0   4  -9    7.97    8.33
   0   4   9    9.02    2.97
   0  -4 -10   -5.71   10.90
   0   4 -10   14.17   10.81
   0  -4  10   10.80   14.08
   0   4  10   -6.41    9.03
   0  -4  10    8.41    6.90
   0  -4 -11   15.62   11.29
   0   4 -11   38.66   15.05
   0  -4  11    0.60   12.38
   0   4  11   23.35   16.21
   0  -4  11    9.20    7.56
   0  -4 -12  980.30   76.39
   0   4 -12 1039.60   67.99
   0  -4  12 1061.35   71.51
   0   4  12 1066.83   68.21
   0  -4  12  896.74   83.62
   0  -4 -13   15.25   12.65
   0   4 -13   -5.51   10.33
   0  -4  13   48.64   25.59
   0   4  13   27.34   13.62
   0  -4  13    3.42    7.80
   0  -4 -14   29.07   11.47
   0   4 -14   16.14   12.70
   0  -4  14   74.28   19.36
   0   4  14   47.94   18.71
   0  -4  14   21.88    8.20
   0  -4 -15   36.71   18.92
   0   4 -15   15.01   19.14
   0  -4  15   19.88   16.77
   0   4  15   20.28   13.53
   0  -4 -16   98.31   24.78
   0   4 -16  161.41   32.24
   0  -4  16  190.86   36.40
   0   4  16   64.22   20.73
   0  -4 -17   30.68    8.74
   0   4 -17   80.43   25.68
   0  -4  17    5.91   18.77
   0   4  17   78.43   24.37
   0  -4 -18  -16.43   11.08
   0   4 -18   32.62   20.57
   0  -4  18   50.88   29.67
   0   4  18    7.95   12.60
   0  -4 -19   43.54   18.88
   0   4 -19   62.98   19.35
   0  -4  19  107.31   32.22
   0   4  19  152.38   35.33
   0   5   0    0.33   12.33
   0  -5   0   24.22    8.92
   0   5   0   12.88    7.32
   0  -5   0   30.20    7.52
   0   5   0   23.77   14.62
   0   5   1  100.86   18.25
   0   5  -1  104.45   14.91
   0   5   1  131.13   15.70
   0  -5   1  112.17   12.71
   0  -5  -1  101.04    7.21
   0   5   1  106.88    7.41
   0  -5   1  108.98   10.69
   0   5  -1  123.88    9.11
   0  -5  -1  127.49   20.69
   0  -5   1  128.94   26.32
   0   5   1   98.32   12.02
   0   5  -1   87.52   11.55
   0   5  -2   21.36   13.32
   0  -5   2   32.59    9.68
   0   5   2   28.04   16.39
   0  -5  -2   19.94    5.46
   0   5   2    9.49    4.90
   0  -5   2   22.24   11.52
   0   5  -2    9.67    7.14
   0  -5  -2   16.29    6.96
   0  -5   2   19.51    7.17
   0   5   2   39.91   11.92
   0   5  -2   31.98   15.78
   0  -5  -3  445.76   69.95
   0   5   3  358.11   51.20
   0   5  -3  345.78   24.02
   0  -5  -3  398.38   18.56
   0   5   3  361.52   15.04
   0  -5   3  358.04   19.69
   0   5  -3  335.61   17.56
   0  -5  -3  416.02   26.16
   0  -5   3  425.33   49.39
   0   5   3  394.22   19.41
   0   5  -3  375.15   22.63
   0  -5  -4   48.90   10.81
   0   5   4   26.09    8.50
   0   5  -4   31.08   12.55
   0   5   4   32.66    6.24
   0  -5   4   30.98   11.11
   0   5  -4   34.10   11.71
   0   5   4   24.79    7.50
   0  -5  -4   36.27   11.01
   0  -5   4   23.18    7.99
   0  -5  -5  506.31   73.26
   0  -5   5  460.96   28.82
   0   5   5  505.20   20.73
   0  -5  -5  487.25   22.14
   0  -5   5  494.80   41.94
   0   5   5  443.75   18.99
   0  -5  -6  199.82   38.14
   0   5  -6  198.29   22.65
   0   5   6  146.46   32.58
   0  -5   6  186.73   18.52
   0   5   6  146.74   12.64
   0  -5  -6  248.96   41.17
   0  -5   6  192.44   33.22
   0   5   6  143.80   11.79
   0  -5  -7  651.58   35.48
   0   5  -7  656.52   39.09
   0   5   7  548.93   59.19
   0  -5   7  683.47   38.53
   0   5   7  656.42   33.13
   0  -5  -7  620.43   33.78
   0  -5   7  643.14   46.04
   0   5   7  571.80   27.43
   0  -5  -8  369.34   61.16
   0   5  -8  350.50   30.06
   0  -5   8  356.80   30.73
   0   5   8  404.39   29.37
   0  -5  -8  329.54   21.14
   0  -5   8  346.46   57.66
   0   5   8  309.55   19.86
   0  -5  -9   63.29   23.45
   0   5  -9   50.87   20.18
   0  -5   9  117.16   20.39
   0   5   9   93.53   18.89
   0  -5   9   28.28   11.16
   0   5   9   40.53    7.94
   0  -5 -10  110.08   22.47
   0   5 -10   66.03   14.43
   0  -5  10  132.79   26.89
   0   5  10  130.18   21.05
   0  -5  10   90.43   25.18
   0   5  10   84.31   11.63
   0  -5 -11 1629.54  101.28
   0   5 -11 1807.43  297.53
   0   5  11 1626.11  100.50
   0  -5  11 1710.96  288.93
   0  -5 -12   19.30   11.01
   0   5 -12    8.18   12.09
   0   5  12   -3.81   10.86
   0  -5  12   13.24   10.62
   0  -5 -13  127.07   24.55
   0   5 -13   74.33   21.98
   0  -5  13   98.48   25.21
   0   5  13   49.17   13.56
   0  -5  13   58.08   16.11
   0  -5 -14   15.26    5.53
   0   5 -14   49.07   21.12
   0  -5  14   32.33   19.01
   0   5  14   33.86   17.09
   0  -5  14   26.08   13.74
   0  -5 -15  101.07   26.35
   0   5 -15  134.82   30.34
   0  -5  15  115.78   28.39
   0   5  15  112.29   21.78
   0  -5 -16   38.25   23.26
   0   5 -16   32.56   15.65
   0  -5  16   58.39   18.47
   0   5  16   37.46   18.63
   0  -5 -17   56.43   25.18
   0   5 -17   59.43   23.56
   0  -5  17   92.77   25.93
   0   5  17   57.31   21.28
   0  -5 -18   51.61   19.72
   0   5 -18   42.48   26.26
   0  -5  18   -0.13   19.53
   0   5  18   18.50   13.52
   0   6   0 1639.23   57.80
   0  -6   0 1560.56   49.42
   0   6   0 1532.06   47.91
   0   6  -1   70.80   13.62
   0   6   1  114.77   15.71
   0  -6  -1  107.45    9.76
   0  -6   1  125.43   11.25
   0   6   1  100.91    7.76
   0   6  -1  113.78    9.81
   0   6  -2   77.04   14.10
   0  -6  -2   98.83   15.46
   0  -6   2   83.46   12.11
   0   6  -2   97.87    9.66
   0  -6  -2   93.68   17.09
   0  -6   2   91.98   17.72
   0   6   2  121.53   13.75
   0  -6  -3   73.71   13.13
   0   6  -3   72.80   14.71
   0  -6  -3   87.62   14.60
   0   6   3   92.29    7.85
   0  -6   3   91.33   12.85
   0   6  -3   69.64    9.06
   0  -6  -3  116.77   19.70
   0  -6   3  100.28   18.08
   0   6   3   73.65    9.56
   0  -6  -4   26.87   15.35
   0   6  -4   43.01   13.31
   0   6   4   22.99    7.25
   0  -6   4    7.77    8.71
   0   6  -4   11.86    8.13
   0   6   4   37.81    9.26
   0  -6  -4   38.29   15.25
   0  -6   4   38.47   15.64
   0   6   4    9.46    7.38
   0  -6  -5    9.32    7.83
   0   6  -5   24.42   17.70
   0   6   5    7.73    3.18
   0  -6   5   19.35   12.22
   0   6   5    3.81    5.92
   0  -6  -5   13.42    7.36
   0  -6   5   28.72   11.33
   0   6   5   14.15    7.28
   0  -6  -6  165.72   31.57
   0   6   6   83.23   21.03
   0  -6   6   91.83   16.30
   0   6   6  135.24   13.40
   0  -6  -6  141.49   31.15
   0  -6   6  149.13   28.32
   0   6   6  121.70   11.96
   0  -6  -7   22.03   13.34
   0   6  -7   21.81   12.92
   0   6   7    7.61    3.44
   0  -6   7   17.34   11.94
   0   6   7   13.93    7.90
   0  -6  -7   15.22    6.43
   0  -6   7   10.19    4.98
   0   6   7    7.80    4.51
   0  -6  -8   45.01   15.86
   0   6  -8   29.84   14.29
   0  -6   8   56.98   15.53
   0   6   8   31.29   12.30
   0  -6  -8   35.18    8.03
   0  -6   8   19.86   14.95
   0   6   8   24.15    8.35
   0  -6  -9 1458.88   73.13
   0   6  -9 1485.20  258.05
   0  -6   9 1483.89  257.84
   0   6   9 1472.73  254.37
   0  -6  -9 1398.82   64.19
   0  -6   9 1492.55  260.05
   0   6   9 1283.72   59.59
   0  -6 -10  431.93   66.53
   0   6 -10  506.63   48.67
   0  -6  10  429.80   38.40
   0   6  10  388.27   30.41
   0  -6  10  388.28   66.79
   0   6  10  378.58   24.90
   0  -6 -11  295.54   59.23
   0   6 -11  319.81   32.33
   0  -6  11  335.82   32.45
   0   6  11  336.85   28.18
   0  -6  11  334.31   71.48
   0  -6 -12   12.00    5.63
   0   6 -12   15.79   19.49
   0  -6  12   45.02   22.45
   0   6  12   34.25   15.00
   0  -6  12   17.11   10.96
   0  -6 -13  271.61   44.02
   0   6 -13  288.99   39.70
   0  -6  13  230.54   34.38
   0   6  13  194.30   28.34
   0  -6  13  169.40   42.12
   0  -6 -14   43.72   13.85
   0   6 -14   41.27   15.49
   0  -6  14   30.06   16.10
   0   6  14   47.00   18.30
   0  -6  14   23.06    8.98
   0  -6 -15  139.12   46.71
   0   6 -15   50.71   18.16
   0   6  15  104.14   23.35
   0  -6 -16   31.06   12.88
   0   6 -16   61.53   21.59
   0  -6  16   28.95   16.70
   0   6  16   50.31   19.30
   0  -6 -17   23.35    8.83
   0   6 -17    4.87   13.30
   0  -6  17   20.97   18.01
   0   6  17   31.72   13.13
   0  -6 -18   14.24    7.55
   0   6 -18   46.40   24.44
   0  -6  18   48.19   29.37
   0   6  18   66.25   22.72
   0   7   0   25.33   13.87
   0  -7   0   16.46    6.60
   0   7   0   17.80    6.02
   0   7  -1   57.09   14.11
   0   7   1   33.57   11.92
   0  -7  -1   30.72    5.98
   0  -7   1   34.23    7.56
   0   7   1   37.78    8.51
   0   7  -1   21.42    8.26
   0  -7  -1   47.20   13.72
   0  -7   1   30.24   11.32
   0   7  -2  258.30   20.74
   0   7   2  271.82   24.32
   0  -7  -2  305.65   35.84
   0  -7   2  294.33   20.17
   0   7   2  306.25   16.11
   0   7  -2  289.77   18.63
   0  -7  -2  301.09   56.46
   0  -7   2  393.74   66.09
   0   7  -3   24.54   13.57
   0   7   3   17.87   12.27
   0  -7  -3   13.71    6.54
   0   7   3    9.75    5.79
   0  -7   3   36.92   12.21
   0   7  -3   16.78    6.85
   0  -7  -3   -1.27   11.25
   0  -7   3   16.84    8.32
   0  -7  -4   54.25   18.46
   0   7  -4   34.49   19.82
   0  -7  -4    0.95    4.13
   0   7   4   16.97    5.98
   0  -7   4   11.36    8.16
   0  -7  -4    2.51   10.78
   0  -7   4   15.98    6.17
   0  -7  -5  398.17   68.87
   0   7  -5  347.20   32.07
   0   7   5  379.88   24.11
   0  -7   5  306.83   24.40
   0   7   5  318.58   22.07
   0  -7  -5  421.61   62.23
   0  -7   5  366.00   69.84
   0  -7  -6   62.27   12.73
   0   7  -6   75.59   21.32
   0   7   6   47.80   12.72
   0  -7   6   77.16   16.77
   0   7   6   71.95    9.55
   0  -7  -6   63.89   10.56
   0  -7   6   84.84   20.15
   0  -7  -7   25.40    9.36
   0   7  -7   25.58   17.94
   0   7   7    2.49    3.64
   0  -7   7   22.11   11.91
   0   7   7    8.41    5.96
   0  -7  -7   10.80    4.08
   0  -7   7   22.81   11.29
   0  -7  -8 1084.51  142.95
   0   7  -8 1158.82   63.15
   0  -7   8 1102.93   60.50
   0   7   8 1182.09   57.46
   0  -7  -8 1164.96   61.35
   0  -7   8 1193.69  103.23
   0  -7  -9   55.28   20.55
   0   7  -9   35.14   15.17
   0  -7   9   46.93   20.24
   0   7   9   39.55   11.29
   0  -7  -9   42.92    9.48
   0  -7   9   61.59   18.90
   0  -7 -10   65.73   21.57
   0   7 -10   84.75   24.65
   0   7  10  124.95   23.73
   0  -7  10   86.64   24.13
   0   7  10   37.33    8.53
   0  -7 -11   22.65    7.79
   0   7 -11   20.81   15.49
   0  -7  11   15.60   16.10
   0   7  11   43.19   12.37
   0  -7  11   21.26   11.38
   0  -7 -12  377.18   66.41
   0   7 -12  374.10   36.88
   0  -7  12  441.52   44.45
   0   7  12  344.23   31.98
   0  -7  12  313.67   73.26
   0  -7 -13   27.35    8.31
   0   7 -13   16.36   13.18
   0  -7  13   -1.33   16.32
   0   7  13   22.17   11.36
   0  -7  13   23.60   10.80
   0   7 -14  133.90   30.60
   0  -7  14   22.18   18.06
   0   7  14  102.59   23.77
   0  -7  14   43.08   24.13
   0  -7 -15   14.20   13.26
   0   7 -15   39.47   15.22
   0  -7  15   42.28   19.45
   0   7  15   22.56   11.49
   0  -7  15   40.15   14.18
   0  -7 -16   66.67   19.04
   0   7 -16   57.77   20.39
   0  -7  16   94.23   30.95
   0   7  16   99.02   29.04
   0  -7 -17   42.13   14.83
   0   7 -17   27.85   20.10
   0  -7  17   35.34   18.21
   0   7  17   41.88   19.22
   0  -7 -18   18.33   18.19
   0  -7  18   57.79   23.06
   0   7  18   40.37   17.88
   0   8   0  251.94   22.59
   0  -8   0  202.84   16.48
   0   8   0  229.51   16.94
   0  -8   0  285.78   41.20
   0   8  -1  257.00   25.06
   0   8   1  208.95   25.93
   0  -8  -1  210.31   16.41
   0  -8   1  173.40   16.09
   0   8   1  172.95   13.59
   0   8  -1  147.84   13.35
   0  -8   1  222.64   43.13
   0  -8  -1  204.90   27.04
   0   8  -2   15.38   12.50
   0   8   2   37.92   13.30
   0  -8  -2    9.46    7.83
   0  -8   2   10.36    7.99
   0   8   2   26.12    6.34
   0   8  -2   12.45    4.19
   0  -8  -2   17.85    7.06
   0  -8   2    1.82    6.03
   0   8  -3  334.87   28.87
   0   8   3  366.16   30.17
   0  -8  -3  413.51   35.18
   0   8   3  408.00   25.01
   0  -8   3  347.74   25.84
   0  -8  -3  522.20   75.14
   0  -8   3  483.98   74.57
   0   8  -4    5.52   12.95
   0   8   4   30.69   12.91
   0  -8  -4   17.92    6.10
   0   8   4   26.13    6.45
   0  -8   4   25.79    9.64
   0  -8  -4   24.88   10.34
   0  -8   4   16.92    8.18
   0  -8  -5  423.77   32.55
   0   8  -5  442.02   36.10
   0   8   5  397.82   25.18
   0  -8   5  366.90   27.77
   0   8   5  360.15   23.49
   0  -8  -5  359.14   49.06
   0  -8   5  418.91   57.33
   0  -8  -6  282.48   24.96
   0   8  -6  263.98   26.45
   0   8   6  220.31   16.32
   0  -8   6  262.11   24.60
   0   8   6  241.77   18.00
   0  -8  -6  250.51   46.60
   0  -8   6  313.32   58.49
   0  -8  -7  120.37   31.11
   0   8   7  102.06   25.60
   0  -8   7  163.41   33.51
   0   8   7  155.49   21.61
   0  -8  -7  169.41   29.74
   0  -8   7  170.45   34.30
   0  -8  -8  196.67   37.94
   0   8  -8  266.58   30.86
   0  -8   8  220.40   24.66
   0   8   8  204.64   17.90
   0  -8  -8  219.67   39.95
   0  -8   8  158.44   27.32
   0  -8  -9  350.76   61.82
   0   8  -9  333.18   31.74
   0  -8   9  380.97   34.26
   0   8   9  397.92   28.64
   0  -8  -9  373.77   48.55
   0  -8   9  404.63   50.24
   0  -8 -10  355.94   58.09
   0   8 -10  385.56   37.01
   0  -8  10  359.49   37.07
   0   8  10  373.25   30.15
   0  -8 -10  378.55   29.75
   0  -8  10  342.40   55.50
   0  -8 -11  226.11   44.28
   0   8 -11  214.28   29.32
   0  -8  11  173.17   26.94
   0   8  11  215.51   22.56
   0  -8  11  147.16   30.96
   0  -8 -12  396.51   83.25
   0   8 -12  448.82   55.45
   0  -8  12  470.61   56.59
   0   8  12  549.90   60.23
   0  -8  12  373.09   53.80
   0  -8 -13   35.55   11.27
   0   8 -13   33.91   15.43
   0  -8  13   10.06   15.88
   0   8  13    6.63   10.75
   0  -8  13   31.42   10.47
   0  -8 -14   23.04   14.48
   0   8 -14   15.84   15.12
   0  -8  14   62.27   22.39
   0   8  14   21.89   10.61
   0  -8  14   22.58   10.88
   0  -8 -15   83.08   23.12
   0   8 -15   66.02   26.91
   0  -8  15   56.19   25.05
   0   8  15   90.57   22.89
   0  -8  15   31.81   11.09
   0  -8 -16    9.67   10.01
   0   8 -16    3.25   14.60
   0  -8  16   18.33   19.52
   0   8  16   -2.51    8.76
   0  -8 -17   37.64   10.28
   0   8 -17   38.50   19.89
   0  -8  17   33.11   16.60
   0   9   0   17.18   12.13
   0  -9   0   10.85    8.63
   0   9   0    2.30    4.49
   0  -9   0   -4.08   12.42
   0   9  -1  224.88   24.48
   0   9   1  174.58   21.03
   0  -9  -1  168.27   27.33
   0  -9   1  235.31   19.86
   0   9   1  181.17   14.06
   0   9  -1  202.07   16.97
   0  -9   1  250.27   42.18
   0  -9  -1  191.99   38.34
   0   9  -2  118.57   18.58
   0   9   2  133.82   21.64
   0  -9  -2  126.51   21.63
   0  -9   2  138.34   14.38
   0   9   2  128.88   10.80
   0  -9  -2  188.00   33.34
   0  -9   2  171.96   31.50
   0   9  -3   14.91   12.74
   0   9   3   13.07   11.39
   0  -9  -3   13.28    6.22
   0  -9   3   33.56   14.14
   0  -9  -3   65.01   19.01
   0  -9   3  -10.15   10.89
   0   9  -4   35.99   14.15
   0   9   4   14.48   12.24
   0  -9  -4   47.33    9.99
   0   9   4   55.37    9.78
   0  -9   4   57.34   13.98
   0  -9  -4   88.74   23.82
   0  -9   4   46.22   16.74
   0   9  -5  403.82   34.52
   0   9   5  481.59   33.02
   0   9   5  348.68   19.67
   0  -9   5  435.39   29.12
   0   9   5  427.83   23.58
   0  -9  -5  427.97   60.62
   0  -9   5  533.58   68.67
   0  -9  -6   52.68   17.75
   0   9  -6   47.81   15.80
   0   9   6   39.38    9.44
   0  -9   6  110.30   28.17
   0   9   6   87.24   18.11
   0  -9  -6   68.76   22.21
   0  -9   6   51.56   17.57
   0  -9  -7  122.29   27.92
   0   9  -7   64.69   17.65
   0   9   7   43.48   10.47
   0  -9   7   78.95   22.70
   0   9   7  114.40   23.33
   0  -9  -7  106.74   24.64
   0  -9   7  131.45   31.78
   0  -9  -8  226.33   40.30
   0   9  -8  141.99   30.73
   0  -9   8  199.37   25.14
   0   9   8  173.20   17.11
   0  -9  -8  195.60   34.62
   0  -9   8  152.84   30.01
   0  -9  -9   37.84   11.97
   0   9  -9   63.89   19.77
   0  -9   9   33.44   14.68
   0   9   9   38.62    9.56
   0  -9  -9   43.68   13.35
   0  -9   9   49.25   27.38
   0  -9 -10   84.86   29.10
   0   9 -10   67.89   24.93
   0  -9  10  101.30   17.46
   0   9  10   76.06   16.84
   0  -9 -10   46.37   10.52
   0  -9  10   91.67   20.14
   0  -9 -11  128.50   31.11
   0   9 -11   52.24   25.64
   0  -9  11   81.76   22.03
   0   9  11  120.90   18.95
   0  -9  11   79.51   21.54
   0  -9 -12    8.62    7.58
   0   9 -12   25.38   16.94
   0  -9  12    9.60   13.79
   0   9  12   -1.75    6.45
   0  -9  12   22.10    6.60
   0  -9 -13   39.90   10.97
   0   9 -13   12.25   16.17
   0  -9  13   70.50   25.00
   0   9  13   16.50    7.69
   0  -9  13   40.70   13.47
   0  -9 -14   34.34   14.89
   0   9 -14   66.40   23.03
   0  -9  14   48.59   21.41
   0  -9  14   28.56   10.51
   0  -9 -15   23.58   13.40
   0   9 -15   11.28   15.39
   0  -9  15   15.04   16.28
   0  -9  15   18.89    6.27
   0  -9 -16   25.80    8.16
   0   9 -16    3.65   16.45
   0  -9  16   41.43   21.02
   0  10   0  117.62   24.57
   0 -10   0  156.61   23.17
   0  10   0   86.55   14.30
   0 -10   0  142.83   29.51
   0  10  -1  289.09   27.79
   0  10   1  282.85   26.29
   0 -10  -1  256.71   38.80
   0 -10   1  254.26   20.00
   0  10   1  206.68   14.52
   0 -10  -1  260.64   56.68
   0  10  -2   10.00   12.28
   0  10   2   25.58   12.95
   0 -10  -2   10.66    6.05
   0 -10   2   27.99    7.58
   0  10   2    3.28    3.84
   0 -10  -2   41.12   11.73
   0 -10   2   35.51   11.96
   0  10  -3  169.36   24.03
   0  10   3  188.08   24.36
   0 -10  -3  160.83   26.14
   0 -10   3  158.61   18.78
   0  10   3  107.45   20.08
   0 -10  -3  150.73   26.35
   0 -10   3  155.75   22.83
   0  10  -4  235.56   29.28
   0  10   4  253.52   27.09
   0 -10  -4  249.75   18.76
   0 -10   4  301.52   26.15
   0  10   4  178.97   14.16
   0 -10  -4  245.77   44.37
   0 -10   4  294.23   65.84
   0  10  -5    4.31   13.55
   0  10   5   21.50   14.57
   0  10   5    3.67    3.88
   0 -10   5    8.97   10.12
   0  10   5    7.39    4.93
   0 -10  -5   16.04    9.56
   0 -10   5   29.87   16.86
   0  10  -6  225.64   27.08
   0  10   6  223.26   27.38
   0 -10   6  250.15   24.63
   0 -10  -6  193.26   49.70
   0 -10   6  293.63   38.62
   0  10  -7   34.91   20.60
   0  10   7   11.78   14.08
   0 -10   7   32.27   16.62
   0  10   7   21.80    7.54
   0 -10  -7   20.46   11.12
   0 -10   7   47.52   18.65
   0 -10  -8   31.67   13.61
   0 -10   8   -4.38    9.37
   0  10   8   28.66    8.62
   0 -10  -8   12.90    8.48
   0 -10   8   53.72   20.17
   0 -10  -9    9.17   11.78
   0  10  -9   29.96   15.10
   0 -10   9   31.83   19.74
   0  10   9   19.05   10.43
   0 -10  -9   21.80   15.03
   0 -10   9   34.06   17.76
   0 -10 -10   32.65   16.64
   0  10 -10   74.27   18.86
   0 -10  10   45.64   14.84
   0  10  10   53.03   13.10
   0 -10 -10   36.79    8.88
   0 -10  10   42.89   15.81
   0 -10 -11   24.13   11.10
   0  10 -11   21.18   16.83
   0 -10  11   43.97   17.18
   0  10  11   25.68    8.95
   0 -10 -11   19.30   10.10
   0 -10  11   29.21    9.87
   0 -10 -12   31.30   17.52
   0  10 -12   77.70   24.32
   0 -10  12   53.12   18.53
   0 -10  12   22.34   11.58
   0 -10 -13   51.73   17.01
   0  10 -13   33.68   17.30
   0 -10  13   56.45   22.97
   0 -10  13   24.25   10.70
   0 -10 -14   33.35   14.81
   0  10 -14   -2.49   13.95
   0 -10  14   54.73   23.84
   0 -10  14   31.95    9.23
   0 -10 -15   54.33   19.71
   0  10 -15   38.72   20.21
   0 -10  15   31.17   18.14
   0 -10  15   22.41    8.92
   0 -10 -16   12.91   10.39
   0  10 -16   42.18   26.51
   0 -10  16   21.49   16.29
   0  11   0    6.10   16.35
   0 -11   0    9.56    5.90
   0  11   0    6.01    5.37
   0 -11   0   36.15   17.66
   0  11  -1   56.88   19.45
   0  11   1   35.13   16.34
   0 -11  -1   43.14   14.70
   0 -11   1   43.89   12.15
   0  11   1   20.16    7.51
   0 -11  -1   25.75   15.62
   0  11  -2   90.08   27.57
   0  11   2   89.50   27.18
   0 -11  -2   67.93   16.75
   0 -11   2   98.69   20.28
   0  11   2   35.65    9.90
   0 -11  -2  142.23   39.06
   0 -11   2  108.38   33.05
   0  11  -3   64.57   19.14
   0  11   3   41.24   16.89
   0 -11  -3   27.01    8.57
   0 -11   3   35.44   14.26
   0 -11  -3   30.18   12.18
   0 -11   3   23.63   19.02
   0  11  -4   43.69   23.21
   0  11   4   53.15   20.78
   0 -11  -4   42.17    8.95
   0 -11   4   44.62   13.12
   0 -11  -4   26.78   11.80
   0 -11   4   35.57   15.25
   0  11  -5  192.21   25.12
   0  11   5  188.18   26.36
   0 -11   5  207.09   23.60
   0  11   5  217.94   17.78
   0 -11  -5  251.49   50.83
   0 -11   5  231.07   44.76
   0  11  -6   33.97   18.52
   0  11   6    1.40   12.61
   0 -11   6   20.18   15.85
   0  11   6   19.28    7.56
   0 -11  -6    4.53    9.51
   0 -11   6   35.16   13.28
   0  11  -7   26.94   18.08
   0  11   7    2.81   14.27
   0 -11   7    6.45   11.94
   0  11   7    7.54    6.18
   0 -11  -7    2.27    8.35
   0 -11   7   52.12   16.52
   0  11   8   75.42   16.76
   0 -11   8   12.55   12.10
   0 -11  -8   19.68   17.50
   0 -11   8  102.49   27.73
   0  11  -9  153.36   34.56
   0 -11   9   48.76   15.39
   0 -11  -9   62.19   18.69
   0 -11   9  115.09   30.39
   0 -11 -10   55.47   19.19
   0  11 -10   63.40   27.03
   0 -11  10   57.14   20.64
   0 -11 -10   16.74    6.22
   0 -11  10   60.56   18.84
   0 -11 -11   20.32   12.08
   0  11 -11   41.79   23.15
   0 -11  11   -9.19   14.51
   0 -11  11   28.17   10.42
   0 -11 -12   71.77   23.60
   0  11 -12  117.04   32.19
   0 -11  12   92.92   28.86
   0 -11  12   76.48   24.01
   0 -11 -13   68.26   20.51
   0  11 -13   55.52   23.31
   0 -11  13   41.92   17.93
   0 -11  13   37.47   22.17
   0 -11 -14   99.19   33.35
   0 -11  14  110.97   32.53
   0 -11  14   32.23   10.98
   0 -11 -15   29.30   12.08
   0  11 -15   -5.21   17.34
   0 -11  15   16.42   17.17
   0 -11  15   11.19    8.20
   0  12   0  242.28   28.97
   0 -12   0  209.69   20.06
   0 -12   0  159.33   38.38
   0  12  -1   45.57   17.72
   0  12   1   15.90   15.04
   0 -12  -1   14.15    4.90
   0 -12   1   24.54   12.97
   0 -12  -1   20.63   14.03
   0 -12   1   13.86   11.67
   0  12  -2   85.52   29.20
   0  12   2   90.80   21.27
   0 -12  -2   55.58   13.94
   0 -12   2   85.45   20.24
   0 -12  -2   68.76   20.40
   0 -12   2  105.22   22.66
   0  12  -3   23.77   16.38
   0  12   3   12.91   15.29
   0 -12  -3   27.30    7.15
   0 -12   3   34.84   14.98
   0 -12  -3   35.67   12.94
   0 -12   3   32.64   18.58
   0  12  -4   23.74   23.49
   0  12   4   46.65   17.50
   0 -12  -4    6.50    4.37
   0 -12   4   25.28   14.16
   0 -12  -4   29.85   11.36
   0 -12   4   29.37   16.43
   0  12  -5   50.29   19.79
   0  12   5   44.73   16.67
   0 -12   5   85.99   16.97
   0 -12  -5  123.28   44.59
   0 -12   5   78.84   30.91
   0  12  -6   21.33   17.70
   0  12   6    8.07   14.84
   0 -12   6  -10.75   11.87
   0 -12  -6   -3.04   10.54
   0 -12   6   21.22   18.94
   0  12  -7   40.90   17.64
   0  12   7   85.45   24.21
   0 -12   7   46.04   13.72
   0 -12  -7   64.59   24.03
   0 -12   7   45.76   20.14
   0  12   8   12.92   12.85
   0 -12   8   22.76   17.52
   0 -12  -8   15.71    7.19
   0 -12   8   19.89   18.15
   0  12  -9   24.98   18.41
   0  12   9   20.00   14.28
   0 -12   9    6.73   11.79
   0 -12  -9   11.37    6.14
   0 -12   9   36.53   15.65
   0  12 -10   26.78   18.81
   0  12  10   54.69   21.11
   0 -12  10   26.75   14.23
   0 -12 -10    7.55    6.08
   0 -12  10   40.86   23.31
   0  12 -11   79.74   27.58
   0  12  11   22.22   13.43
   0 -12  11   34.36   15.16
   0 -12  11   66.40   31.62
   0 -12 -12   28.87   16.50
   0  12 -12   52.32   33.98
   0 -12  12    7.09   14.26
   0 -12  12   41.35   15.03
   0 -12 -13   40.48   17.21
   0  12 -13   26.91   19.19
   0 -12  13   28.28   16.94
   0 -12  13   24.56   15.39
   0 -12 -14   13.30   11.52
   0  12 -14   26.60   17.35
   0 -12  14   11.86   14.05
   0 -12  14    7.71    7.53
   0  13   0   28.93   16.84
   0 -13   0   13.54    7.75
   0 -13   0    9.74    9.57
   0  13  -1  130.29   31.02
   0  13   1   73.25   25.36
   0 -13  -1   57.48   15.96
   0 -13   1   79.35   16.59
   0 -13  -1   78.69   23.26
   0 -13   1  110.65   25.47
   0  13  -2   95.24   27.20
   0  13   2   97.47   26.38
   0 -13   2   77.04   18.35
   0 -13  -2  134.30   28.71
   0 -13   2   59.10   18.29
   0  13  -3   11.52   19.25
   0 -13   3   19.27    8.93
   0 -13  -3   81.12   20.65
   0 -13   3   26.98   17.52
   0  13  -4   18.81   16.84
   0  13   4   21.00   15.28
   0 -13  -4   36.34   14.88
   0 -13   4   39.45   14.97
   0  13  -5   82.32   27.82
   0  13   5   36.45   15.47
   0 -13   5   84.79   21.73
   0 -13  -5   80.21   24.10
   0 -13   5   52.10   19.43
   0  13  -6   96.11   27.53
   0  13   6   15.89   13.82
   0 -13   6   22.13   16.01
   0 -13  -6   29.66   13.62
   0 -13   6   20.24    7.61
   0  13  -7   -0.21   13.46
   0  13   7   16.54   13.56
   0 -13   7    2.11   11.97
   0 -13  -7   13.64    7.98
   0 -13   7   40.47   15.25
   0  13  -8    3.48   15.82
   0  13   8   33.69   15.97
   0 -13   8   21.21   14.29
   0 -13  -8   19.24   10.01
   0 -13   8   17.77   10.68
   0  13   9   22.95   13.75
   0 -13   9  -19.18   12.55
   0 -13  -9   17.04    6.77
   0 -13   9   45.88   18.54
   0  13 -10   87.66   30.53
   0  13  10   77.54   25.18
   0 -13  10   28.75   16.67
   0 -13 -10   41.15   15.02
   0 -13  10   26.15   11.39
   0  13 -11   51.26   26.83
   0  13  11   39.20   20.29
   0 -13  11   44.16   15.84
   0 -13  11   49.83   24.51
   0  13 -12   23.65   18.06
   0  13  12   44.59   16.95
   0 -13  12   24.54   13.81
   0 -13  12   48.28   17.76
   0  14   0   58.51   19.70
   0 -14   0   59.28   26.31
   0  14  -1   81.77   25.99
   0  14   1  199.59   39.36
   0 -14  -1   90.44   27.06
   0 -14   1  108.00   33.35
   0  14  -2   57.16   25.04
   0  14   2   30.29   16.70
   0 -14  -2   26.46    9.20
   0  14  -3   29.96   21.03
   0  14   3    7.74   14.19
   0 -14   3   15.12    8.97
   0 -14  -3  -14.68   15.78
   0 -14   3   17.10    9.19
   0  14  -4  127.38   31.11
   0  14   4  135.35   29.57
   0 -14   4   73.18   18.83
   0 -14  -4   54.92   23.51
   0 -14   4   66.40   20.18
   0  14  -5   30.13   19.30
   0  14   5   42.29   18.15
   0 -14   5   30.03   14.83
   0 -14  -5   14.99   21.91
   0 -14   5   17.95    9.56
   0  14  -6  144.42   37.97
   0  14   6  130.62   30.27
   0 -14   6  159.18   35.13
   0 -14  -6   98.51   35.61
   0 -14   6  157.60   54.72
   0  14  -7   15.45   18.20
   0  14   7    7.13   14.44
   0 -14   7    6.06   10.33
   0 -14  -7   25.12    7.33
   0 -14   7   -0.04   16.93
   0  14  -8   40.63   17.53
   0  14   8   25.50   20.95
   0 -14   8    4.37   11.98
   0 -14  -8  -11.95   10.80
   0  14  -9   45.45   26.31
   0  14   9   -2.89   13.16
   0 -14   9    6.19   12.69
   0 -14  -9   12.69    7.40
   0 -14   9   28.87    9.61
   0  14 -10  191.38   31.34
   0  14  10  176.34   25.78
   0 -14  10   60.36   20.03
   0 -14  10  118.45   44.46
   0  14 -11   42.39   19.93
   0  14  11   19.02   15.08
   0 -14  11   12.06   13.17
   0 -14  11   44.87   15.07
   0  15   0   -1.61   13.62
   0 -15   0   28.55   14.80
   0  15  -1  143.05   32.95
   0  15   1  177.87   42.15
   0 -15   1  109.64   33.13
   0 -15  -1   95.78   30.22
   0  15  -2  120.93   37.53
   0  15   2   39.27   18.77
   0 -15  -2   54.43   24.90
   0 -15   2   64.76   21.37
   0  15  -3   75.59   28.95
   0  15   3   34.61   15.92
   0 -15  -3   76.46   24.04
   0 -15   3   26.39   17.28
   0  15  -4   33.81   23.86
   0  15   4   27.36   16.28
   0 -15  -4   37.77   15.16
   0 -15   4   38.94   14.83
   0  15  -5  161.16   40.25
   0  15   5   80.41   23.01
   0 -15  -5  116.95   47.10
   0 -15   5   90.78   35.70
   0  15  -6   24.00   19.07
   0  15   6   12.48   15.74
   0 -15  -6   23.41   12.04
   0 -15   6   42.10   14.33
   0  15  -7   11.58   20.55
   0  15   7   11.26   15.67
   0 -15  -7   -2.37    5.62
   0 -15   7   25.78   16.83
   0  15  -8   30.40   19.95
   0  15   8   44.92   18.25
   0 -15   8   31.00   17.27
   0 -15  -8   40.24   10.01
   0 -15   8   87.43   36.32
   0  15  -9   42.55   30.29
   0  15   9   10.39   13.48
   0 -15   9   12.56   11.11
   0 -15  -9   -4.29   10.97
   0 -15   9   35.58   22.82
   0  16   0    9.55   16.98
   0 -16   0   30.59   12.42
   0  16  -1   77.65   31.04
   0  16   1   19.58   18.97
   0 -16   1   40.08   14.09
   0 -16  -1   17.00    9.25
   0  16  -2  101.88   35.97
   0  16   2   27.20   16.73
   0 -16  -2   15.70   17.70
   0 -16   2   45.29   12.04
   0  16  -3   15.80   19.30
   0  16   3   31.05   16.05
   0 -16  -3   52.02   17.06
   0 -16   3   65.84   37.71
   0  16  -4   24.14   17.24
   0  16   4   11.84   21.33
   0 -16  -4   31.87   13.29
   0 -16   4   28.03   12.14
   0  16  -5  103.75   36.44
   0  16   5   22.83   15.33
   0 -16  -5   56.03   23.03
   0 -16   5   47.24   18.16
   0  16  -6   20.44   17.24
   0  16   6   37.33   15.64
   0 -16  -6   -3.29   13.60
   0 -16   6    4.78   17.71
  -1   0   0    4.38    2.50
   1   0   0   -0.69    3.01
  -1   0   0   11.48    5.86
   1   0   0    3.49    4.85
  -1   0  -1    3.29    5.06
   1   0   1    4.34    5.10
  -1   0   1    5.29    5.34
  -1   0  -2 2289.01   39.41
  -1   0   2 2299.74   34.32
  -1   0   2 2260.25   38.34
   1   0   2 2288.90   38.73
  -1   0   2 2232.14   38.67
  -1   0   2 2302.07   37.29
   1   0  -2 2338.04   37.21
   1   0   3 1874.58   36.21
   1   0  -3 1859.82   31.25
   1   0   3 1918.50   37.24
  -1   0  -3 1893.81   35.65
  -1   0   3 1946.68   39.09
   1   0  -3 1872.69   36.25
   1   0  -3 1854.42   31.50
  -1   0  -4 6015.69   95.62
   1   0   4 5682.44   89.13
   1   0  -4 5854.06   87.50
  -1   0   4 5937.54   88.37
   1   0   4 5863.67   92.73
  -1   0   4 6028.40   96.16
  -1   0  -4 5896.05   84.41
  -1   0   4 5820.66   85.66
   1   0  -4 5792.04   84.74
   1   0  -5 2316.13   42.88
   1   0   5 2280.19   45.31
  -1   0   5 2406.15   43.26
   1   0   5 2510.93   50.87
  -1   0   5 2495.17   50.05
   1   0  -5 2344.08   46.48
  -1   0  -5 2341.22   36.41
  -1   0   5 2231.93   37.13
   1   0  -5 2380.36   38.93
  -1   0  -6  756.16   31.77
   1   0  -6  825.68   30.65
   1   0   6  807.02   31.62
  -1   0   6  844.64   30.48
   1   0   6  825.93   34.00
  -1   0  -6  829.85   32.44
  -1   0   6  787.45   33.20
  -1   0  -6  854.75   27.58
  -1   0   6  859.22   27.78
   1   0  -6  813.39   26.38
   1   0  -7  251.08   16.78
  -1   0   7  252.57   14.28
   1   0   7  282.29   20.87
  -1   0   7  225.40   18.89
  -1   0   7  240.81   12.22
   1   0  -7  229.39   10.57
  -1   0  -8   27.76   12.13
   1   0  -8   61.33   13.34
  -1   0   8   47.89    9.77
  -1   0   8   42.08   14.44
  -1   0   8   52.17    7.01
   1   0  -8   37.91    5.05
  -1   0  -9  960.02   48.55
   1   0  -9  944.89   47.09
   1   0   9  883.00   56.35
  -1   0   9  984.74   50.18
  -1   0   9  950.26   40.05
  -1   0  -9  920.89   49.39
  -1   0 -10   26.29   10.98
   1   0 -10   -0.66    9.22
   1   0  10   20.33   11.56
  -1   0  10   28.48   16.99
  -1   0  10   16.27    4.73
  -1   0 -11   35.75   12.97
   1   0 -11   11.53   10.17
   1   0  11   -1.65   11.50
  -1   0  11   -4.92   11.72
  -1   0  11    3.13    1.93
  -1   0 -12  409.53   34.45
   1   0 -12  465.42   36.00
   1   0  12  435.64   38.79
  -1   0  12  394.93   36.52
   1   0 -13   65.12   20.50
  -1   0 -13   42.36   19.69
   1   0  13   96.57   27.25
  -1   0  13   29.25   21.16
  -1   0 -14  234.28   26.65
   1   0 -14  214.14   28.85
   1   0  14  180.91   26.99
  -1   0  14  189.44   26.92
  -1   0 -15   73.61   21.68
   1   0 -15   29.95   11.79
   1   0  15   78.64   26.44
  -1   0  15   35.32   17.35
   1   0 -16  107.33   26.39
  -1   0 -16  155.36   33.42
   1   0  16   88.85   21.20
  -1   0  16  181.08   35.86
  -1   0 -17   25.67   15.68
   1   0 -17   13.42   12.62
   1   0  17   69.13   24.75
  -1   0 -18   24.06   13.98
   1   0 -18   44.80   22.46
   1   0  18   90.57   28.02
  -1   0  18   40.50   26.45
   1   0 -19   57.16   20.98
  -1   0 -19   55.80   18.95
   1   0  19   65.65   28.30
  -1   0  19   39.34   18.32
   1   1   1 1755.88   27.19
   1  -1  -2  170.13   15.17
  -1   1  -2  144.95   11.14
  -1  -1   2  139.50    8.56
   1  -1  -2  207.53   24.53
  -1   1   2  157.92   23.82
   1  -1   2  179.26   10.69
   1   1   2  153.05    9.68
  -1  -1  -2  151.94    6.96
   1   1  -2  181.20   10.50
  -1   1  -2  150.18   14.83
  -1  -1   2  134.90    9.11
   1   1  -2  165.48    8.73
   1   1   2  143.79    6.85
   1  -1  -3 5752.61   83.38
   1   1   3 5666.42   88.01
  -1   1   3 5606.32   81.11
   1   1  -3 5772.03   86.20
  -1   1   3 5585.62   85.91
   1  -1   3 5832.56   91.35
   1   1   3 5780.60   87.19
  -1  -1  -3 5655.85   84.70
   1   1  -3 5576.70   86.97
  -1   1   3 5768.27   89.78
  -1   1  -3 5530.88   83.35
  -1  -1   3 5709.92   86.14
   1   1  -3 5706.49   85.60
  -1  -1  -3 5666.51   81.47
   1   1   3 5632.05   81.03
   1  -1  -4 1760.32   32.59
   1   1   4 1814.03   37.31
  -1   1   4 1838.54   32.39
   1  -1   4 1840.91   38.20
   1   1  -4 1792.40   34.78
  -1  -1   4 1799.54   34.92
   1  -1   4 1816.43   40.18
  -1   1  -4 1852.17   38.36
  -1  -1  -4 1834.09   36.16
   1   1  -4 1800.31   37.14
  -1   1   4 1779.46   37.64
   1  -1   4 1878.37   34.18
  -1   1  -4 1781.71   33.92
  -1  -1   4 1806.75   33.75
   1   1  -4 1808.48   32.75
  -1  -1  -4 1823.21   29.19
  -1   1   4 1819.90   30.82
  -1  -1  -5   19.63   11.94
   1  -1  -5    3.75    6.71
   1   1   5   11.02   10.21
  -1   1  -5   31.36   14.91
  -1   1   5   21.25    5.40
   1   1  -5   42.24   10.62
   1  -1   5    7.76   10.11
  -1  -1   5   30.07    8.51
   1  -1   5   22.86   10.77
  -1  -1  -5   17.18    7.60
  -1  -1   5   16.36   12.66
  -1   1   5    5.67   10.98
   1   1  -5   10.86   10.57
   1  -1  -5    4.43    8.06
   1  -1   5   23.38    5.10
  -1   1  -5   18.37    6.62
  -1  -1   5   23.89    6.39
  -1  -1  -5   20.67    3.79
   1   1  -5   32.51    6.40
  -1   1   5   28.31    5.91
   1  -1  -6  452.67   20.07
   1   1   6  453.82   21.78
  -1   1  -6  440.55   24.46
  -1   1   6  404.78   17.68
   1   1  -6  397.39   19.37
   1  -1   6  405.55   20.71
  -1  -1   6  410.03   18.82
   1  -1   6  448.88   24.78
   1   1   6  407.99   21.17
  -1   1  -6  427.33   22.31
  -1  -1  -6  423.79   21.98
  -1  -1   6  387.97   25.96
  -1   1   6  499.17   29.76
  -1   1  -6  406.01   17.22
  -1  -1   6  419.42   17.82
  -1  -1  -6  430.63   13.23
   1   1  -6  412.48   16.99
  -1   1   6  435.95   15.69
   1  -1  -7  687.56   28.04
  -1  -1  -7  641.46   31.23
  -1   1  -7  643.40   30.20
   1   1  -7  738.42   32.32
  -1   1   7  631.01   25.20
  -1  -1   7  653.20   26.58
   1  -1   7  647.81   32.39
   1   1   7  707.99   31.81
  -1  -1   7  660.07   31.17
  -1  -1  -7  683.47   29.25
  -1   1   7  642.60   33.80
  -1   1  -7  654.23   22.30
  -1  -1   7  629.22   22.84
  -1   1   7  640.54   21.00
   1   1  -7  707.16   25.67
  -1  -1  -8 1053.58   51.34
   1  -1  -8 1033.46   48.78
  -1   1  -8 1027.44   50.82
   1   1  -8 1135.17   52.70
  -1   1   8 1008.96   46.10
  -1  -1   8  977.16   45.66
   1   1   8 1050.42   50.79
  -1  -1   8 1009.54   52.19
  -1   1   8 1037.69   51.66
  -1  -1   8 1035.39   44.72
  -1   1  -8 1033.10   43.60
  -1   1   8  971.82   40.23
   1   1  -8 1067.04   46.00
  -1  -1  -9   81.10   14.02
   1  -1  -9   86.41   12.54
  -1   1  -9  130.38   17.23
   1   1  -9  126.60   17.72
   1  -1   9   96.81   20.16
   1   1   9   88.73   16.13
  -1  -1   9   98.08   20.62
  -1   1   9  112.01   20.30
  -1  -1   9  105.48   10.55
  -1   1   9  103.05    7.31
  -1   1  -9  100.27    9.07
   1   1  -9  122.75   10.57
  -1  -1 -10  528.45   37.94
   1  -1 -10  489.49   33.41
  -1   1 -10  469.33   34.85
   1   1 -10  523.47   35.49
   1  -1  10  515.88   38.10
   1   1  10  510.06   40.69
  -1  -1  10  554.11   41.22
  -1   1  10  521.77   38.45
  -1   1  10  485.21   26.51
  -1   1  10  460.24   24.90
  -1  -1  10  477.33   28.41
  -1   1 -10  490.40   28.00
   1   1 -10  463.62   27.56
  -1  -1 -11   36.51   13.62
   1  -1 -11   26.75   10.49
  -1   1 -11   47.46   13.50
   1   1 -11   25.76    8.96
   1  -1  11   14.17   13.52
   1   1  11   45.41   14.63
  -1  -1  11   25.24   14.19
  -1   1  11   52.30   16.38
  -1  -1  11   32.18    8.24
  -1   1 -11   20.48    4.38
   1   1 -11   24.66    6.29
  -1  -1 -12  308.19   28.85
   1  -1 -12  335.00   28.40
  -1   1 -12  306.72   30.63
   1   1 -12  251.26   24.25
   1  -1  12  242.02   29.30
   1   1  12  297.88   28.80
  -1  -1  12  313.25   32.18
  -1   1  12  254.45   27.74
  -1  -1  12  241.73   24.66
   1   1 -12  282.61   18.79
  -1  -1 -13  484.22   39.21
   1  -1 -13  455.09   37.22
  -1   1 -13  466.61   38.85
   1   1 -13  584.21   44.20
   1  -1  13  511.82   43.28
   1   1  13  526.08   42.77
  -1  -1  13  492.87   41.96
  -1   1  13  535.34   53.58
  -1  -1  13  401.45   32.78
   1  -1 -14   60.00   21.29
  -1  -1 -14  108.88   22.56
  -1   1 -14   62.27   19.17
   1   1 -14   67.57   22.41
   1  -1  14   80.85   21.98
   1   1  14   98.61   20.68
  -1  -1  14   54.00   19.89
  -1   1  14   93.96   22.06
   1  -1 -15   49.46   18.95
  -1  -1 -15   38.39   15.87
   1   1 -15   33.58   13.62
  -1   1 -15   22.71   14.16
   1  -1  15   81.43   22.94
   1   1  15   37.28   22.74
  -1  -1  15   44.37   19.29
  -1   1  15   40.60   17.57
   1  -1 -16  141.74   32.20
  -1  -1 -16  120.10   26.88
  -1   1 -16   85.87   24.87
   1   1 -16   95.21   22.82
   1  -1  16   76.50   26.43
   1   1  16   73.29   20.43
  -1  -1  16   82.41   27.70
  -1   1  16   69.25   20.04
   1  -1 -17  141.31   29.70
  -1  -1 -17  110.37   26.73
  -1   1 -17  146.49   28.03
   1   1 -17  156.63   31.34
   1  -1  17  127.40   27.37
   1   1  17  159.02   32.55
  -1  -1 -18   12.05   14.55
   1  -1 -18   74.73   23.23
  -1   1 -18   68.27   24.73
   1   1 -18   -0.04   13.76
   1  -1  18   30.00   16.76
   1   1  18    7.57   15.66
  -1  -1  18   21.25   16.35
  -1   1  18   13.12   15.15
  -1  -1 -19  106.04   31.86
   1   1 -19   94.22   29.80
  -1   1 -19  144.85   27.34
   1  -1  19  114.53   31.89
   1   1  19  112.14   33.76
  -1  -1  19  113.05   34.46
  -1   1  19   97.43   32.83
  -1  -2   0   37.31    7.75
   1   2   0   21.12    6.98
  -1   2   0   32.79    6.50
   1  -2   0   23.26    5.61
  -1   2   0   31.87    5.69
  -1  -2   0   27.76    3.90
  -1   2   0   20.27    6.21
   1   2   0   50.55   11.74
  -1  -2  -1 8167.50  120.01
  -1   2  -1 8163.04  119.53
  -1   2   1 8043.49  114.47
  -1  -2   1 8246.43  120.05
   1  -2  -1 8253.38  120.35
  -1   2   1 7895.00  114.82
   1  -2   1 8047.15  118.38
  -1   2  -1 7995.80  117.62
   1   2  -1 8031.30  114.51
   1  -2   1 8066.47  122.89
  -1   2   1 7986.91  116.72
  -1  -2   1 8245.70  121.37
  -1  -2  -1 8078.75  117.86
   1   2   1 8176.42  119.14
   1  -2  -2 2603.96   44.19
   1   2   2 2734.51   48.24
  -1   2  -2 2629.99   47.41
   1  -2   2 2506.62   44.31
   1   2  -2 2697.05   47.28
  -1  -2   2 2702.72   46.91
   1  -2  -2 2648.05   53.78
  -1   2   2 2811.54   49.53
  -1   2  -2 2612.03   46.63
   1   2   2 2552.66   38.56
  -1  -2  -2 2650.62   39.69
   1   2  -2 2671.10   45.48
  -1   2   2 2583.79   45.92
   1  -2   2 2669.18   47.57
  -1   2  -2 2573.97   47.07
  -1  -2   2 2643.15   48.06
  -1  -2  -2 2690.75   44.82
   1  -2  -3 5599.88   87.62
  -1   2   3 5592.71   82.91
   1   2   3 5675.57   89.13
  -1   2  -3 5819.06   92.85
  -1   2   3 5644.50   91.67
   1   2   3 5547.60   81.79
  -1  -2  -3 5716.92   83.70
  -1  -2   3 5666.79   89.25
   1   2  -3 5676.80   88.65
  -1   2   3 5590.23   83.00
   1  -2   3 5915.01  114.43
  -1   2  -3 5824.00   89.79
  -1  -2   3 5779.85   90.16
  -1  -2  -3 5693.40   84.14
   1   2  -3 5529.90   85.53
   1   2   3 5762.29   84.73
   1  -2  -4 2569.47   43.89
  -1   2   4 2609.23   44.03
   1   2   4 2698.12   50.74
   1  -2   4 2597.03   49.26
   1   2  -4 2547.68   47.47
  -1  -2   4 2680.95   48.45
   1  -2   4 2583.39   51.54
  -1   2  -4 2528.08   48.46
   1   2   4 2738.69   46.77
  -1  -2  -4 2634.03   44.48
   1   2  -4 2485.33   47.17
  -1   2   4 2575.79   47.28
  -1   2   4 2628.05   43.51
  -1   2  -4 2693.83   46.88
  -1  -2   4 2734.10   49.82
  -1  -2  -4 2696.18   42.86
   1   2  -4 2631.72   47.03
   1   2   4 2614.13   41.35
   1  -2  -5  522.05   17.89
  -1  -2  -5  478.38   20.67
   1   2   5  447.38   18.69
  -1   2   5  474.49   14.42
  -1   2  -5  442.07   21.56
   1   2  -5  515.78   20.01
   1  -2   5  510.74   20.45
  -1  -2   5  446.48   16.98
  -1   2   5  510.20   18.29
   1  -2   5  512.57   24.37
  -1   2  -5  510.84   21.30
   1   2   5  505.80   19.44
  -1  -2  -5  505.01   17.36
   1   2  -5  504.95   22.66
  -1   2   5  512.86   20.23
  -1   2   5  482.22   12.73
   1  -2   5  583.56   57.44
  -1   2  -5  467.39   44.62
  -1  -2  -5  489.83   12.19
  -1  -2   5  487.39   18.81
   1   2  -5  541.80   18.48
   1   2   5  469.62   11.24
   1  -2  -6  141.93   11.82
  -1   2   6  143.24   10.10
   1   2  -6  134.46   14.36
  -1  -2   6  123.90   11.69
   1  -2   6  152.97   17.76
   1   2   6  144.28   13.12
  -1  -2   6  131.75   17.68
  -1  -2  -6  136.25   11.96
   1  -2  -6  123.49   12.68
  -1   2   6  116.06   14.23
   1  -2   6  122.15   18.27
  -1   2  -6  140.29   10.06
  -1  -2  -6  136.53    6.72
  -1  -2   6  132.21   11.58
   1   2  -6  132.82   13.41
   1   2   6  129.06    6.02
  -1   2   6  107.87    7.37
   1  -2  -7 2027.53   64.58
  -1  -2  -7 1998.76   67.48
  -1   2   7 1900.28   59.88
  -1   2  -7 2047.16   69.96
   1   2  -7 1822.39   60.98
  -1  -2   7 1923.82   62.41
   1  -2   7 1990.07   68.69
   1   2   7 1982.12   66.08
  -1  -2  -7 1840.88   59.57
  -1   2   7 1928.42   64.36
   1  -2   7 1960.15   65.79
  -1   2   7 1922.51   56.67
  -1   2  -7 1916.51   58.59
  -1  -2   7 1967.55   61.91
   1   2  -7 1943.38   60.04
  -1   2   7 1963.68   57.15
   1  -2  -8  496.64   28.88
  -1  -2  -8  552.09   32.74
  -1   2   8  530.97   27.43
  -1   2  -8  502.96   30.69
   1   2  -8  544.09   30.65
   1  -2   8  554.54   36.36
   1   2   8  433.94   25.98
  -1  -2   8  484.14   32.34
   1  -2   8  526.26   35.44
  -1   2   8  508.98   22.43
  -1  -2   8  496.30   25.79
  -1   2  -8  562.69   28.03
   1   2  -8  546.49   27.05
  -1   2   8  521.96   22.92
   1  -2  -9  376.43   27.03
  -1  -2  -9  334.28   28.34
  -1   2  -9  359.17   28.57
   1   2  -9  300.49   24.21
   1  -2   9  366.20   30.78
   1   2   9  331.91   30.60
  -1  -2   9  342.69   30.49
  -1   2   9  390.32   30.99
   1  -2   9  362.38   23.93
  -1   2   9  324.67   20.28
  -1  -2   9  347.11   23.86
  -1   2  -9  289.06   19.19
  -1   2   9  331.86   18.70
   1   2  -9  329.68   22.55
  -1  -2 -10   54.58   17.25
   1  -2 -10   28.93   12.52
  -1   2 -10   28.13   12.42
   1   2 -10   11.24   11.14
   1  -2  10   19.36   13.33
   1   2  10   41.50   15.97
  -1  -2  10   17.93   12.27
  -1   2  10   23.06   12.72
   1  -2  10   10.09    4.50
  -1  -2  10   26.35    9.20
  -1   2 -10   16.81    6.03
   1   2 -10    4.91    4.94
   1  -2 -11  173.54   17.04
  -1  -2 -11  247.20   24.13
  -1   2 -11  219.60   22.17
   1   2 -11  200.48   21.12
   1  -2  11  255.09   26.23
   1   2  11  184.37   20.83
  -1  -2  11  255.62   25.83
  -1   2  11  243.18   23.28
  -1  -2  11  175.75   29.03
  -1   2 -11  238.44   15.54
   1   2 -11  216.58   15.22
   1  -2 -12  230.75   26.02
  -1  -2 -12  243.93   29.72
  -1   2 -12  205.48   24.35
   1   2 -12  180.81   20.56
   1  -2  12  202.01   23.64
   1   2  12  170.32   20.60
  -1  -2  12  217.49   27.04
  -1   2  12  200.15   24.57
  -1  -2  12  143.95   26.11
  -1   2 -12  184.31   14.71
   1   2 -12  198.90   15.71
   1  -2 -13  149.07   26.87
  -1  -2 -13  165.62   23.14
  -1   2 -13  201.60   26.76
   1   2 -13  156.82   25.59
   1  -2  13  102.14   27.88
   1   2  13  139.52   29.66
  -1  -2  13  221.68   28.46
  -1   2  13  121.72   28.86
  -1  -2  13  114.70   31.52
   1  -2 -14   36.59   16.70
  -1  -2 -14   27.41   21.12
  -1   2 -14   31.00   13.83
   1   2 -14   53.73   20.56
   1  -2  14   51.41   24.54
   1   2  14   15.29   15.10
  -1  -2  14   38.12   18.50
  -1   2  14   28.15   21.49
   1  -2 -15  113.21   22.97
  -1  -2 -15  116.59   25.32
  -1   2 -15  119.07   26.48
   1   2 -15   42.05   18.56
   1  -2  15  140.02   31.20
   1   2  15   95.96   21.85
  -1  -2  15  123.34   30.27
  -1   2  15   82.73   22.76
  -1  -2 -16   64.01   18.86
   1  -2 -16   36.81   13.35
  -1   2 -16   55.72   18.48
   1  -2  16   71.45   24.67
   1   2  16   85.76   20.84
  -1  -2  16  120.94   31.08
  -1   2  16   67.77   24.53
   1  -2 -17   37.02   16.66
  -1  -2 -17   32.86   21.07
   1   2 -17   18.49   13.80
  -1   2 -17   34.38   15.02
   1  -2  17   14.18   15.39
   1   2  17  -13.41   16.88
  -1  -2  17    6.64   14.84
  -1   2  17   10.33   17.13
   1  -2 -18   36.59   16.16
  -1  -2 -18   13.07   14.91
   1   2 -18   40.47   15.67
  -1   2 -18    5.11   13.66
   1  -2  18   -2.44   16.39
   1   2  18   49.79   24.64
  -1  -2  18   27.62   17.59
  -1   2  18   19.71   16.80
   1  -2 -19   21.74   12.01
  -1  -2 -19   57.11   19.21
  -1   2 -19   74.77   25.30
   1   2 -19   34.21   14.26
   1  -2  19   86.13   31.61
   1   2  19   42.87   18.90
  -1  -2  19   55.89   23.21
  -1   2  19   68.42   28.16
  -1   3   0 1227.17   27.35
  -1   3   0 1221.79   26.82
  -1  -3   0 1255.52   21.15
   1   3   0 1258.58   21.25
  -1   3   0 1206.79   27.76
  -1  -3   0 1280.71   30.34
   1   3   0 1249.69   28.65
  -1   3  -1 2949.27   52.42
   1  -3   1 2851.10   49.77
  -1   3   1 3055.62   50.96
  -1  -3   1 3095.52   53.80
   1  -3  -1 2907.04   48.43
   1  -3   1 3070.01   54.00
  -1   3  -1 2925.52   50.51
  -1  -3   1 2927.65   46.83
   1   3  -1 2860.93   45.58
   1  -3  -1 3014.23   52.64
   1  -3   1 3021.41   53.49
  -1   3   1 2883.89   50.38
  -1  -3   1 2911.41   53.12
  -1  -3  -1 2862.76   50.57
   1   3  -1 3005.50   53.40
   1   3   1 2868.64   49.78
  -1   3   2 2666.05   45.26
   1   3   2 2737.30   49.73
  -1   3  -2 2810.93   52.26
   1   3  -2 2655.71   49.44
  -1  -3   2 2709.11   49.41
   1   3   2 2749.19   39.87
   1  -3  -2 2762.52   47.74
  -1   3   2 2715.04   47.10
   1  -3   2 2551.77   47.97
  -1   3  -2 2579.06   47.44
   1   3   2 2693.39   38.60
  -1  -3   2 2837.11   50.29
   1   3  -2 2641.28   45.60
   1  -3  -2 2823.93   50.02
   1  -3   2 2654.59   50.54
  -1  -3   2 2773.89   52.21
  -1  -3  -2 2737.62   48.29
   1  -3  -3 2634.18   45.58
  -1   3   3 2672.76   55.71
   1   3   3 2615.06   56.56
  -1   3  -3 2601.46   50.68
  -1  -3   3 2583.37   47.40
   1  -3  -3 2599.50   51.40
  -1   3   3 2560.27   46.41
  -1   3  -3 2510.05   48.18
   1   3   3 2549.89   39.83
  -1  -3   3 2612.48   48.39
   1   3  -3 2538.70   46.77
  -1  -3  -3 2704.24   42.05
   1  -3  -3 2513.48   44.67
   1  -3   3 2589.86   48.49
  -1   3   3 2645.65   45.67
  -1   3  -3 2552.45   57.81
  -1  -3  -3 2535.69   44.63
  -1  -3   3 2511.45   49.45
   1   3   3 2468.30   42.50
   1   3   4 2993.24   55.45
  -1   3   4 3021.97   57.14
  -1   3  -4 2868.08   54.59
   1   3   4 2955.12   48.29
  -1  -3  -4 2985.87   48.41
  -1   3   4 2987.88   53.92
   1  -3   4 3029.74   57.75
  -1   3   4 2893.00   50.31
  -1   3  -4 3054.44   55.19
  -1  -3  -4 2932.92   48.68
   1   3  -4 2952.38   53.82
   1   3   4 2955.46   48.70
   1  -3  -5  311.39   16.06
  -1   3   5  297.74   15.25
   1   3   5  305.51   18.43
   1   3  -5  288.45   18.89
   1  -3   5  297.90   17.91
  -1  -3   5  309.06   17.18
  -1   3   5  243.44   23.39
   1  -3   5  239.09   19.63
  -1   3  -5  287.78   17.42
   1   3   5  296.79   14.72
   1   3  -5  275.90   17.70
  -1  -3  -5  281.55   14.27
  -1   3   5  301.95   17.95
   1  -3   5  304.28   21.13
  -1   3   5  312.91   31.72
  -1   3  -5  279.25   27.37
  -1  -3  -5  279.75   12.61
  -1  -3   5  291.04   19.34
   1   3  -5  275.90   17.75
   1   3   5  300.30   12.84
   1  -3  -6  136.67   20.67
  -1  -3  -6  110.89   17.13
  -1   3   6  100.92    8.83
  -1   3  -6   93.98   15.09
   1   3  -6   89.68   10.96
  -1  -3   6   86.80   10.11
  -1   3   6   84.23   19.47
   1   3   6  108.60   12.26
  -1  -3   6  176.37   19.55
  -1  -3  -6  135.43   12.45
  -1   3   6  110.71   12.74
   1  -3   6  126.76   17.46
  -1   3   6  115.20   16.80
  -1  -3  -6  131.87    8.91
  -1   3  -6  129.47   10.89
  -1  -3   6  135.51   13.49
   1   3  -6  104.20   10.30
   1  -3  -7  460.46   38.45
  -1  -3  -7  428.69   27.07
   1   3  -7  476.09   29.28
   1  -3   7  425.81   29.45
   1   3   7  506.15   27.15
  -1   3   7  419.52   26.95
  -1  -3  -7  420.22   23.47
   1  -3   7  461.22   54.14
  -1   3   7  431.85   22.90
  -1  -3  -7  434.71   26.58
  -1   3  -7  409.09   23.22
  -1  -3   7  458.63   25.18
   1   3  -7  440.45   23.77
   1   3   7  438.67   19.61
   1  -3  -8 1591.83   70.30
  -1  -3  -8 1488.96   69.54
  -1   3   8 1299.09   57.28
  -1   3  -8 1421.90   66.69
   1   3  -8 1521.37   69.71
   1   3   8 1428.90   64.01
  -1  -3   8 1329.38   63.39
  -1   3   8 1304.19   60.81
  -1  -3  -8 1394.28   55.74
   1  -3   8 1518.47   76.63
  -1  -3   8 1426.26   62.69
  -1   3  -8 1405.01   61.03
   1   3  -8 1447.53   63.47
  -1   3   8 1502.85   61.64
   1  -3  -9  130.28   14.23
  -1  -3  -9  114.25   15.26
  -1   3  -9   91.23   17.27
   1   3  -9  111.06   16.45
   1  -3   9  127.29   18.59
   1   3   9  108.56   16.63
  -1  -3   9  105.81   20.14
  -1   3   9  137.78   17.95
   1  -3   9  109.44   20.46
  -1  -3   9  138.02   15.27
  -1   3  -9  103.59   12.48
   1   3  -9  115.90   12.92
  -1   3   9   99.34    7.40
   1  -3 -10  216.33   19.95
  -1  -3 -10  227.81   22.10
  -1   3 -10  174.13   22.94
   1   3 -10  253.95   24.03
   1  -3  10  303.23   27.85
   1   3  10  187.10   19.43
  -1  -3  10  272.79   28.72
  -1   3  10  251.72   24.99
   1  -3  10  265.20   36.63
  -1  -3  10  247.47   34.41
  -1   3 -10  211.12   17.07
  -1   3  10  228.26   12.79
   1   3 -10  223.01   17.88
   1  -3 -11   70.68   15.75
  -1  -3 -11   58.93   13.29
  -1   3 -11   53.54   15.97
   1   3 -11   34.67   11.58
   1  -3  11   29.05   13.98
   1   3  11   38.72   13.33
  -1  -3  11   22.83   13.63
  -1   3  11   82.85   18.43
   1  -3  11   53.63   11.61
  -1  -3  11   52.04   11.24
  -1   3 -11   67.76   12.58
   1   3 -11   29.54    7.71
   1  -3 -12 1056.45   68.04
  -1  -3 -12 1180.00   77.10
  -1   3 -12 1143.24   76.19
   1   3 -12 1124.76   74.25
   1  -3  12 1108.64   75.37
   1   3  12 1211.64   78.80
  -1  -3  12 1086.69   73.65
  -1   3  12 1175.39   76.95
   1  -3  12 1192.19   72.12
  -1  -3  12 1139.92   69.82
  -1   3 -12  995.16   61.09
   1   3 -12  910.50   56.70
   1  -3 -13   96.00   18.58
  -1  -3 -13  104.42   16.68
  -1   3 -13  146.82   24.08
   1   3 -13  118.81   16.28
   1  -3  13  153.56   25.88
   1   3  13   85.23   20.55
  -1  -3  13  106.26   24.31
  -1   3  13  194.22   33.29
  -1  -3  13  106.53   21.55
   1  -3 -14   42.76   16.44
  -1  -3 -14   50.66   16.43
  -1   3 -14   10.76   13.78
   1   3 -14   16.68   11.43
   1  -3  14   88.00   25.07
   1   3  14   62.09   23.02
  -1  -3  14   37.27   19.48
  -1   3  14   83.72   27.62
  -1  -3  14   30.97   10.25
   1  -3 -15   99.05   22.00
  -1  -3 -15  144.65   28.77
  -1   3 -15  119.65   27.03
   1   3 -15  111.09   28.65
   1  -3  15  136.98   34.71
   1   3  15  121.91   26.55
  -1  -3  15  110.64   29.06
  -1   3  15  147.48   33.28
   1  -3 -16  156.26   27.12
  -1  -3 -16  114.30   26.01
  -1   3 -16  172.30   34.07
   1   3 -16  144.07   27.37
   1  -3  16  100.55   25.23
   1   3  16  172.09   29.98
  -1  -3  16  163.42   35.82
  -1   3  16  131.81   28.45
   1  -3 -17   79.31   22.68
  -1  -3 -17   39.69   13.44
  -1   3 -17   27.48   15.39
   1   3 -17   45.69   16.84
   1  -3  17   67.76   24.24
   1   3  17   70.37   21.26
  -1  -3  17   54.58   23.40
  -1   3  17   68.32   24.35
   1  -3 -18    8.76   10.76
  -1   3 -18   21.21   15.05
   1   3 -18   29.61   18.44
   1  -3  18   61.71   31.21
   1   3  18   42.56   17.22
  -1  -3  18  127.78   40.47
  -1   3  18   98.42   34.54
   1  -3 -19    8.39    9.10
  -1  -3 -19   17.07   12.80
  -1   3 -19    9.54   15.39
   1   3 -19   17.81   13.73
   1  -3  19   16.88   19.16
   1   3  19   66.94   27.78
  -1  -3  19   14.33   18.06
  -1   3  19  -18.49   15.71
   1   4   0 2514.65   48.09
  -1   4   0 2573.79   48.89
   1  -4   0 2494.07   45.97
   1  -4   0 2495.97   46.30
  -1   4   0 2478.72   44.92
  -1  -4   0 2541.50   39.43
   1   4   0 2495.98   38.76
   1  -4   0 2496.57   48.71
  -1   4   0 2506.01   47.81
   1   4   0 2475.18   48.08
   1   4   1 1832.28   38.52
  -1   4  -1 1872.94   41.02
   1   4  -1 1887.47   41.20
  -1  -4   1 1883.53   40.04
   1  -4  -1 1870.82   37.37
   1  -4  -1 1910.29   37.15
  -1  -4  -1 1835.47   26.89
  -1   4   1 1925.86   36.70
   1  -4   1 1982.67   40.18
  -1   4  -1 1880.13   37.44
  -1  -4   1 1883.75   33.73
   1   4   1 1829.60   26.82
   1   4  -1 1831.91   32.61
   1  -4  -1 1935.01   41.56
   1  -4   1 1832.14   41.99
  -1   4   1 1805.89   37.60
  -1   4  -1 1833.97   39.72
  -1  -4   1 1875.78   42.07
   1   4   1 1788.21   37.90
   1   4  -1 1829.63   39.65
  -1   4   2  811.59   22.51
  -1  -4  -2  808.20   27.07
   1   4   2  792.56   64.63
  -1   4  -2  819.46   26.21
  -1  -4   2  858.22   25.12
  -1   4   2  814.94   23.17
   1  -4  -2  910.74   24.12
  -1   4   2  851.55   21.72
   1   4   2  833.16   13.05
   1  -4   2  863.80   27.52
  -1  -4   2  829.32   22.20
   1   4  -2  837.34   21.90
   1   4   2  823.98   12.90
   1  -4  -2  804.91   24.38
   1  -4   2  842.18   27.43
  -1   4   2  766.07   30.09
  -1  -4  -2  784.56   24.28
  -1  -4   2  842.43   26.04
   1   4  -2  865.80   26.12
   1   4   2  850.18   23.42
   1  -4  -3  285.24   14.47
  -1   4   3  274.33   38.19
   1   4   3  263.03   43.03
  -1   4  -3  322.15   18.47
   1  -4   3  282.33   16.52
   1   4  -3  282.37   17.57
  -1  -4   3  261.59   15.34
   1  -4  -3  351.67   45.00
   1   4   3  289.71   21.84
  -1   4   3  278.66   31.60
  -1  -4   3  247.83   14.73
   1   4   3  281.88    7.98
   1   4  -3  273.98   13.53
   1  -4  -3  345.78   48.21
   1  -4   3  390.64   61.30
  -1   4   3  272.11   31.48
  -1  -4  -3  304.42   16.92
  -1  -4   3  301.99   18.53
   1   4   3  288.75   13.01
   1  -4  -4  975.92   34.81
  -1  -4  -4 1000.10   38.93
  -1   4   4  919.56   31.90
   1   4   4  886.47   49.85
  -1   4  -4 1024.34   40.59
   1   4   4  929.59   29.70
   1  -4  -4  996.49   35.36
  -1   4   4  962.88   37.48
   1  -4   4  977.57   39.29
  -1   4  -4  931.29   37.35
  -1  -4   4  985.43   37.27
   1   4   4  987.07   31.25
   1   4  -4  906.33   33.55
   1  -4  -4 1044.08   35.84
  -1   4   4 1042.12   38.27
  -1   4  -4  865.54   82.33
  -1  -4  -4  954.48   34.08
   1   4  -4  934.96   35.47
   1   4   4  945.07   32.06
   1  -4  -5  337.43   30.55
  -1   4   5  328.97   16.20
  -1   4  -5  350.15   23.12
   1   4  -5  323.15   23.04
  -1  -4   5  288.20   17.66
  -1   4   5  227.65   35.24
   1  -4   5  325.15   21.17
  -1  -4   5  314.25   23.98
   1   4   5  310.11   14.64
   1   4  -5  321.85   18.79
  -1  -4  -5  312.47   13.86
  -1   4   5  332.31   18.05
   1  -4  -5  318.84   17.08
   1  -4   5  359.84   22.98
  -1   4   5  321.41   15.09
  -1   4  -5  319.84   18.06
  -1  -4  -5  354.47   17.77
  -1  -4   5  352.42   21.43
   1   4  -5  365.85   19.20
   1   4   5  288.10   13.70
   1  -4  -6  380.34   56.66
  -1  -4  -6  385.85   63.86
  -1   4   6  378.99   17.80
  -1   4  -6  412.46   25.45
   1   4  -6  347.38   22.24
  -1   4   6  283.10   31.99
  -1  -4   6  349.49   22.60
   1   4   6  390.65   17.77
  -1  -4  -6  379.23   16.87
   1  -4   6  420.87   27.03
  -1   4   6  351.83   30.91
  -1  -4  -6  393.58   26.44
  -1   4  -6  403.83   21.06
  -1  -4   6  383.28   21.40
   1   4  -6  419.53   20.86
   1   4   6  391.98   15.97
   1  -4  -7  368.70   27.18
  -1  -4  -7  404.12   25.93
  -1   4   7  381.32   21.33
  -1   4  -7  453.87   31.33
   1   4  -7  364.69   25.45
   1  -4   7  392.33   28.82
  -1  -4   7  406.92   28.45
   1   4   7  365.09   21.58
  -1   4   7  399.93   26.10
  -1  -4  -7  382.89   22.30
   1  -4   7  465.92   71.51
  -1  -4  -7  381.36   23.90
  -1   4   7  339.35   43.48
  -1  -4   7  450.22   25.76
  -1   4  -7  351.56   21.16
   1   4  -7  346.50   22.39
   1   4   7  411.87   20.21
   1  -4  -8  468.08   72.20
  -1  -4  -8  364.92   54.27
  -1   4  -8  381.15   31.09
   1   4  -8  382.46   30.43
   1  -4   8  384.22   33.07
  -1  -4   8  385.95   31.84
   1   4   8  372.42   25.83
  -1   4   8  353.24   28.58
  -1  -4  -8  351.00   24.01
   1  -4   8  421.93   34.06
  -1  -4  -8  369.31   21.94
  -1   4   8  365.58   30.44
  -1  -4   8  353.47   25.24
  -1   4  -8  329.66   24.18
   1   4   8  340.00   20.21
   1  -4  -9   12.40    7.83
  -1  -4  -9   34.92   10.57
  -1   4  -9    7.93   14.13
   1   4  -9   68.99   20.04
   1  -4   9   13.76   13.62
  -1  -4   9   14.52   12.45
   1   4   9   -0.23    8.20
  -1   4   9   15.21   11.04
  -1  -4  -9   11.27    3.10
   1  -4   9   14.11    7.02
  -1   4   9    2.58    2.62
   1   4   9   14.49    4.07
   1  -4 -10  309.69   53.46
  -1  -4 -10  260.28   45.50
  -1   4 -10  288.76   28.87
   1   4 -10  268.21   23.69
   1  -4  10  297.63   26.35
  -1  -4  10  230.53   21.82
   1   4  10  311.09   22.88
  -1   4  10  243.64   21.27
   1  -4  10  297.03   24.84
  -1  -4  10  278.47   40.61
  -1   4  10  265.57   14.04
  -1   4  10  254.50   13.25
   1  -4 -11   63.36   19.85
  -1  -4 -11   92.52   29.25
  -1   4 -11   59.53   17.66
   1   4 -11  107.65   24.32
   1  -4  11   21.83   14.44
   1   4  11   66.62   19.56
  -1   4  11   77.41   20.14
   1  -4  11   62.00   16.88
  -1  -4  11   96.36   27.86
   1  -4 -12  293.93   49.12
  -1  -4 -12  315.07   34.04
  -1   4 -12  381.79   35.75
   1   4 -12  354.71   32.02
   1  -4  12  319.56   33.61
  -1  -4  12  281.39   29.91
   1   4  12  333.31   29.28
  -1   4  12  312.53   29.24
   1  -4  12  268.99   44.75
  -1  -4  12  332.71   35.71
   1  -4 -13  126.20   38.92
  -1  -4 -13  147.71   25.93
  -1   4 -13  103.08   18.28
   1   4 -13  132.16   22.95
   1  -4  13  126.38   25.80
  -1  -4  13  221.71   29.93
   1   4  13  157.71   21.64
  -1   4  13  134.34   21.03
   1  -4  13  136.74   14.98
  -1  -4  13  101.69   27.48
   1  -4 -14  229.27   48.66
  -1  -4 -14  209.84   39.91
  -1   4 -14  267.27   36.45
   1   4 -14  293.89   41.10
   1  -4  14  313.97   43.28
  -1  -4  14  178.43   28.94
   1   4  14  256.87   33.36
  -1   4  14  229.25   31.50
  -1  -4  14  132.72   38.12
   1  -4 -15   15.97    9.45
  -1  -4 -15   10.58   12.20
  -1   4 -15   44.53   20.46
   1   4 -15    6.38   12.67
   1  -4  15   40.96   18.12
  -1  -4  15   56.15   24.99
   1   4  15   22.65   17.86
  -1   4  15   36.55   21.07
   1  -4 -16   38.33   12.18
  -1  -4 -16   68.25   18.31
  -1   4 -16    5.86   16.22
   1   4 -16   34.74   14.11
   1  -4  16   30.74   20.00
  -1  -4  16   37.62   17.25
   1   4  16   18.99   12.41
  -1   4  16   33.76   15.30
   1  -4 -17   78.01   24.89
  -1  -4 -17   41.08   10.95
  -1   4 -17   34.91   15.88
   1   4 -17  101.41   28.43
   1  -4  17   32.31   19.88
   1   4  17   37.92   13.63
  -1  -4  17   80.91   32.88
  -1   4  17   66.41   23.33
   1  -4 -18   39.19   11.80
  -1  -4 -18   26.09   11.95
   1   4 -18   52.57   19.53
  -1   4 -18   49.62   19.78
   1  -4  18   34.81   20.47
   1   4  18   34.52   15.96
  -1  -4  18   81.73   31.08
  -1   4  18   73.32   23.75
  -1  -4 -19   -0.65   13.08
  -1   4 -19   27.79   15.65
   1   4 -19    9.00   12.41
   1  -4  19   17.29   17.43
  -1  -4  19   15.02   20.42
   1   4  19   14.75   13.68
  -1   4  19   18.02   14.38
   1   5   0  477.14   64.37
  -1   5   0  610.72   22.55
   1  -5   0  559.06   21.45
   1  -5   0  590.56   20.18
  -1   5   0  527.99   17.81
  -1  -5   0  543.58   13.53
   1   5   0  571.30   13.98
   1  -5   0  593.03   27.59
  -1   5   0  477.30   58.66
   1   5   0  567.84   21.50
  -1   5   1 1088.20   27.66
   1   5   1 1041.82   45.69
  -1   5  -1 1071.37   32.77
   1   5   1 1111.50   32.82
  -1  -5   1  998.88   28.38
  -1  -5  -1 1107.14   18.93
   1  -5   1 1067.54   28.02
  -1   5   1 1060.07   24.72
  -1   5  -1 1000.79   25.06
  -1  -5   1 1109.71   24.45
   1   5   1 1078.37   18.45
   1   5  -1 1088.87   23.37
   1  -5  -1 1163.95   32.89
   1  -5   1 1193.08   35.54
  -1   5   1 1103.45   29.56
  -1   5  -1 1000.70   61.85
   1   5  -1 1050.70   30.22
  -1   5   2  428.26   19.29
   1   5   2  364.78   45.74
  -1   5  -2  415.80   23.40
   1   5  -2  444.75   26.51
   1  -5   2  462.46   22.97
  -1   5   2  385.60   20.69
  -1  -5   2  385.79   20.58
   1  -5  -2  406.08   18.64
  -1   5   2  388.17   16.99
   1  -5   2  397.86   21.95
   1   5   2  394.19   12.27
  -1   5  -2  438.93   21.38
  -1  -5   2  444.30   21.17
   1   5  -2  403.85   18.48
   1   5   2  382.70   12.15
   1  -5  -2  392.78   27.51
   1  -5   2  476.75   67.82
  -1   5   2  327.10   54.64
  -1   5  -2  343.49   47.52
  -1  -5  -2  420.01   21.48
  -1  -5   2  420.54   24.02
   1   5   2  366.06   18.95
  -1  -5  -3  824.62   35.03
  -1   5   3  740.01   27.76
  -1   5  -3  864.10   36.86
   1   5  -3  818.08   35.32
  -1   5   3  757.92   29.85
   1  -5  -3  792.93   32.39
  -1   5   3  789.38   28.15
   1   5   3  811.25   24.66
   1  -5   3  786.02   33.08
  -1   5  -3  755.40   31.67
  -1  -5   3  796.89   30.88
   1   5  -3  778.42   29.20
   1   5   3  815.22   24.93
   1  -5  -3  858.72   35.17
   1  -5   3  775.84   33.57
  -1   5   3  675.34   80.83
  -1  -5  -3  795.64   31.89
  -1  -5   3  841.35   35.80
   1   5   3  782.95   30.18
   1  -5  -4  989.65   36.77
  -1   5   4  967.43   34.33
  -1   5  -4  936.29   38.60
   1   5  -4 1115.47   43.99
   1  -5  -4  987.67   38.31
   1   5   4  999.93   31.94
  -1   5   4  976.05   34.60
   1  -5   4 1046.76   40.66
  -1  -5   4  986.41   37.71
   1   5   4 1013.71   31.40
   1   5  -4  973.30   35.68
   1  -5  -4 1001.21   37.27
   1  -5   4 1080.81   46.46
  -1   5   4  941.70   33.57
  -1  -5  -4 1009.74   37.35
  -1  -5   4 1022.70   40.25
   1   5   4  922.31   33.17
   1  -5  -5 1147.56   53.43
  -1  -5  -5 1074.38   69.36
  -1   5   5 1157.09   51.48
   1   5  -5 1170.66   56.99
   1   5   5 1131.81   50.30
   1  -5   5 1208.48   57.72
  -1  -5   5 1094.45   52.23
   1   5   5 1087.10   46.18
  -1   5   5 1179.10   52.78
   1  -5  -5 1158.50   53.52
   1  -5   5 1106.26   56.74
  -1   5   5 1069.22   47.37
  -1  -5  -5 1106.64   49.65
  -1  -5   5 1150.69   54.60
   1   5   5 1083.67   47.78
   1  -5  -6  473.40   67.16
  -1  -5  -6  425.64   72.18
  -1   5   6  342.15   20.76
  -1   5  -6  459.99   32.26
   1   5  -6  428.80   28.26
   1   5   6  422.51   21.23
  -1   5   6  340.15   42.82
   1  -5   6  370.84   25.73
  -1  -5   6  413.19   28.24
   1   5   6  458.20   23.21
  -1   5   6  381.19   22.63
   1  -5  -6  405.78   22.31
   1  -5   6  502.97   60.58
  -1  -5  -6  463.11   25.89
  -1   5   6  373.15   44.66
  -1  -5   6  428.95   26.60
   1   5   6  380.91   20.42
   1  -5  -7  657.81   83.11
  -1  -5  -7  679.25   92.70
  -1   5  -7  641.06   45.25
   1   5  -7  606.34   40.83
   1   5   7  590.99   35.49
   1  -5   7  666.62   46.89
  -1  -5   7  580.21   40.09
   1   5   7  597.21   36.42
  -1   5   7  558.50   36.66
   1  -5   7  783.99   66.79
  -1  -5  -7  644.98   43.74
  -1   5   7  546.01   32.88
  -1  -5   7  639.69   42.07
   1   5   7  584.77   34.78
   1  -5  -8   35.66   13.02
  -1  -5  -8   16.72   10.86
   1   5  -8   18.61   10.88
   1  -5   8   -1.24   12.56
  -1  -5   8   21.92   12.24
   1   5   8   27.88    9.98
  -1   5   8   27.53    9.40
  -1  -5  -8   22.59    8.33
   1  -5   8   19.22    9.72
  -1  -5  -8   19.01    6.83
  -1  -5   8   26.23   10.11
  -1   5   8   14.15    6.04
   1   5   8    6.58    4.35
   1  -5  -9  166.03   25.37
  -1  -5  -9  191.39   37.12
  -1   5  -9  161.81   21.73
   1   5  -9  215.60   29.12
  -1  -5   9  246.05   26.16
   1   5   9  180.90   17.70
  -1   5   9  229.31   21.42
  -1  -5  -9  167.65   18.51
   1  -5   9  202.80   35.97
  -1  -5   9  246.24   43.58
  -1   5   9  172.91   12.92
   1   5   9  206.26   13.61
   1  -5 -10   18.09    7.29
  -1  -5 -10   20.28   10.22
  -1   5 -10    1.99   12.50
   1   5 -10   17.12   18.64
   1  -5  10    8.66   12.91
  -1  -5  10   21.89   14.79
   1   5  10   26.44   13.67
  -1   5  10    8.34    9.99
  -1  -5 -10   10.34    4.11
   1  -5  10   21.16   10.74
  -1  -5  10   49.16   14.86
  -1   5  10    1.05    2.98
   1   5  10   10.51    3.63
   1  -5 -11  107.36   24.63
  -1  -5 -11  107.30   27.82
  -1   5 -11  126.26   30.94
   1   5 -11   67.09   19.45
   1  -5  11   54.71   21.74
  -1  -5  11   85.13   25.61
   1   5  11   59.20   17.04
  -1   5  11   67.03   17.83
   1  -5  11   67.63   16.72
  -1  -5  11   75.65   19.34
  -1   5  11   60.20   11.65
  -1   5  11   69.97   13.33
   1  -5 -12  194.20   32.93
  -1  -5 -12  221.40   51.28
  -1   5 -12  264.27   33.12
   1   5 -12  200.36   27.86
   1  -5  12  343.68   39.39
  -1  -5  12  285.94   34.71
   1   5  12  209.71   22.45
  -1   5  12  219.02   29.18
   1  -5  12  219.03   38.48
  -1  -5  12  313.04   33.40
   1  -5 -13  386.72   74.23
  -1  -5 -13  359.55   76.39
  -1   5 -13  530.96   46.45
   1   5 -13  431.59   40.02
   1  -5  13  444.16   44.88
  -1  -5  13  474.96   44.34
   1   5  13  381.94   33.32
  -1   5  13  494.76   45.91
   1  -5  13  358.76   61.96
  -1  -5  13  392.43   76.50
   1  -5 -14   26.78   12.38
  -1  -5 -14   44.80   11.61
  -1   5 -14   27.51   15.22
   1   5 -14   28.52   13.90
   1  -5  14   43.39   19.41
   1   5  14   18.18   15.96
  -1   5  14   39.14   13.65
   1  -5  14   15.28    9.16
  -1  -5  14   22.86   14.05
   1  -5 -15   74.66   19.15
  -1  -5 -15  106.13   29.05
  -1   5 -15   80.61   22.86
   1   5 -15  127.77   26.95
   1  -5  15   67.22   19.94
  -1  -5  15   85.75   26.48
   1   5  15  191.67   34.09
  -1   5  15  112.14   25.13
   1  -5 -16   41.79   15.09
  -1  -5 -16   40.20   15.37
  -1   5 -16   24.46   21.06
   1   5 -16   33.38   15.18
   1  -5  16   80.77   22.59
  -1  -5  16   45.52   19.50
   1   5  16   22.15   13.83
  -1   5  16   -4.35   13.75
   1  -5 -17   77.92   18.46
  -1  -5 -17   52.74   27.56
  -1   5 -17   42.82   17.39
   1   5 -17   60.61   24.18
   1  -5  17   50.37   23.59
  -1  -5  17   11.82   15.87
   1   5  17   54.99   17.39
  -1   5  17   54.94   23.30
   1  -5 -18   29.42   12.65
  -1  -5 -18   24.04   16.11
  -1   5 -18   43.44   19.49
   1   5 -18   62.12   20.30
   1  -5  18   33.54   21.20
   1   5  18   38.09   13.22
  -1  -5  18   54.68   23.92
  -1   5  18   31.17   15.76
   1   6   0   -0.11   11.82
   1  -6   0   -0.08    8.70
  -1  -6   0   13.63    7.59
  -1   6   0    2.82    5.94
   1   6   0   16.62    6.45
  -1  -6   0   28.52   15.80
  -1   6   1  400.30   20.04
  -1   6  -1  415.14   25.50
  -1   6   1  409.49   24.96
   1   6   1  416.03   23.66
   1  -6  -1  406.95   19.16
  -1  -6  -1  454.53   15.93
   1  -6   1  388.47   20.72
  -1   6   1  445.33   19.36
  -1  -6   1  375.15   16.92
  -1   6  -1  403.90   19.54
   1   6   1  436.52   15.22
   1   6  -1  421.72   17.13
  -1  -6  -1  439.52   28.98
  -1   6   2  173.41   21.16
  -1   6  -2  140.58   16.31
   1   6  -2  250.35   22.42
  -1   6   2  160.45   14.20
  -1  -6  -2  184.61   14.66
   1  -6  -2  215.71   29.81
  -1   6   2  188.28   11.70
   1  -6   2  179.69   15.79
  -1   6  -2  143.67   12.08
  -1  -6   2  184.00   12.10
   1   6   2  195.10    7.77
   1   6  -2  162.91   11.87
   1  -6  -2  184.77   36.30
   1  -6   2  203.72   35.93
  -1  -6  -2  206.56   17.45
  -1  -6   2  212.14   19.85
  -1  -6  -3  339.32   66.80
  -1   6   3  263.71   50.28
  -1   6  -3  348.11   23.78
  -1   6   3  371.78   20.83
   1  -6  -3  381.21   56.70
  -1   6   3  324.27   15.67
   1   6   3  340.94   11.98
   1  -6   3  379.43   21.19
  -1  -6   3  399.43   20.75
   1   6   3  333.74   11.81
   1  -6  -3  370.74   63.67
   1  -6   3  418.92   70.92
  -1  -6  -3  360.33   22.75
  -1  -6   3  325.69   25.83
  -1  -6  -4   -0.15    9.64
  -1   6   4   18.70    7.74
  -1   6  -4   -7.70   13.00
  -1   6   4   14.89    8.29
   1  -6  -4   31.87    7.66
  -1   6   4   31.37    8.87
   1   6   4   13.08    4.12
   1  -6   4   14.63   12.14
  -1  -6   4   14.84    8.82
   1   6  -4    3.24    6.32
   1   6   4    8.49    4.19
   1  -6  -4   18.37    8.81
   1  -6   4   10.13    7.20
  -1   6   4   13.94    5.83
  -1  -6  -4   20.98   15.53
  -1  -6   4    6.99   12.03
   1   6   4   14.79    7.88
   1  -6  -5  216.62   31.19
  -1  -6  -5  223.69   41.07
  -1   6  -5  155.91   20.53
   1   6  -5  191.22   21.07
   1  -6  -5  218.00   17.09
   1   6   5  167.06   24.55
  -1   6   5  138.46   34.79
   1  -6   5  172.16   15.17
  -1  -6   5  152.69   16.00
   1   6   5  167.20   10.32
   1  -6  -5  220.29   25.59
   1  -6   5  205.51   37.67
  -1  -6  -5  219.15   41.39
  -1   6   5  197.48   15.31
  -1  -6   5  212.72   21.89
   1   6   5  201.87   15.34
   1  -6  -6  470.04   38.95
  -1  -6  -6  445.35   61.30
  -1   6  -6  404.42   34.21
   1   6  -6  360.36   29.89
   1   6   6  373.56   36.55
  -1   6   6  303.48   45.63
   1  -6   6  397.56   31.60
  -1  -6   6  418.45   31.94
   1   6   6  365.78   23.31
  -1   6   6  390.05   26.21
   1  -6  -6  396.48   55.28
   1  -6   6  411.95   39.46
  -1  -6  -6  412.12   51.28
  -1   6   6  414.54   27.25
  -1  -6   6  411.68   30.98
   1   6   6  350.37   23.25
   1  -6  -7  536.78   84.46
  -1  -6  -7  436.79   91.40
  -1   6  -7  457.84   43.55
   1   6  -7  420.83   32.66
   1   6   7  292.57   51.36
   1  -6   7  417.99   31.88
  -1  -6   7  522.04   39.16
   1   6   7  428.36   27.04
  -1   6   7  387.56   26.86
   1  -6  -7  420.55   27.72
   1  -6   7  517.61   51.52
  -1  -6  -7  434.30   37.25
  -1  -6   7  385.17   29.66
  -1   6   7  395.54   26.01
   1   6   7  401.95   25.99
   1  -6  -8   48.42   15.10
  -1  -6  -8   55.97   19.48
   1   6  -8   45.99   14.87
   1   6   8   39.83   10.45
   1  -6   8   20.54   14.63
  -1  -6   8   48.41   16.24
   1   6   8   39.05   10.53
  -1   6   8   28.95   10.31
   1  -6   8   28.50    9.43
  -1  -6  -8   71.35   16.46
  -1  -6   8   87.73   20.04
  -1   6   8   33.96    9.21
   1   6   8   33.74    8.12
   1  -6  -9   52.05   14.19
  -1  -6  -9   62.96   13.76
  -1   6  -9   62.67   20.45
   1   6  -9   83.09   17.71
   1  -6   9   61.16   20.17
  -1  -6   9   57.34   16.14
   1   6   9   21.42    7.89
  -1   6   9   42.83   13.62
   1  -6   9   52.38   19.16
  -1  -6  -9   37.37    8.66
  -1  -6   9   37.04   13.73
  -1   6   9   28.05    6.55
   1   6   9   29.08    7.07
   1  -6 -10  296.25   66.56
  -1  -6 -10  335.26   68.69
  -1   6 -10  231.11   27.57
   1   6 -10  314.37   29.21
   1  -6  10  243.71   28.52
  -1  -6  10  306.77   31.77
   1   6  10  250.05   21.68
  -1   6  10  256.13   23.83
  -1  -6 -10  207.23   28.47
   1  -6  10  230.35   42.71
  -1  -6  10  236.68   36.99
  -1   6  10  220.76   16.81
   1   6  10  254.71   18.10
   1  -6 -11   63.35   21.39
  -1  -6 -11   42.54   16.10
  -1   6 -11   20.57   13.68
   1   6 -11   37.51   15.83
   1  -6  11   44.17   17.12
  -1  -6  11   34.84   21.82
   1   6  11    8.59    8.83
  -1   6  11   53.00   19.26
   1  -6  11   23.28    9.97
  -1  -6  11   61.33   16.85
   1  -6 -12  279.72   45.25
  -1  -6 -12  399.11   74.12
  -1   6 -12  521.18   51.17
   1   6 -12  419.19   40.56
   1  -6  12  319.05   33.32
  -1  -6  12  402.86   44.50
   1   6  12  441.63   36.43
  -1   6  12  323.55   32.87
   1  -6  12  352.79   63.11
  -1  -6  12  305.33   46.92
   1  -6 -13  137.80   30.70
  -1  -6 -13  196.59   48.03
  -1   6 -13  145.04   28.37
   1   6 -13  157.53   27.94
  -1  -6  13  159.53   29.58
   1   6  13  162.41   25.77
  -1   6  13  148.63   24.74
   1  -6  13  126.07   25.11
  -1  -6  13  110.64   26.33
   1  -6 -14   63.93   22.34
  -1  -6 -14   71.22   17.92
  -1   6 -14   57.26   18.84
   1   6 -14   42.06   15.12
   1  -6  14   44.15   23.71
  -1  -6  14  135.57   34.74
   1   6  14   59.73   17.65
  -1   6  14   97.04   23.90
   1  -6  14   69.81   20.76
  -1  -6  14   68.74   24.23
   1  -6 -15   16.97   12.97
  -1  -6 -15   36.86   15.42
  -1   6 -15   40.30   16.06
   1   6 -15   31.73   15.43
   1  -6  15   12.18   16.08
  -1  -6  15   23.89   19.63
   1   6  15   48.77   15.83
  -1   6  15   10.49   11.81
  -1  -6  15   21.80    6.62
   1  -6 -16   57.22   18.06
  -1  -6 -16   30.51   12.79
   1   6 -16   58.50   22.17
   1  -6  16   47.32   20.98
  -1  -6  16   83.05   27.73
   1   6  16   42.19   13.19
  -1   6  16   11.11   13.06
   1  -6 -17   28.83   19.30
  -1  -6 -17   14.17   10.36
  -1   6 -17   47.15   23.38
   1   6 -17    6.65   13.18
   1  -6  17   10.36   16.70
  -1  -6  17   35.09   19.07
   1   6  17   56.27   22.25
  -1   6  17   26.01   14.55
   1  -6 -18   34.13   13.22
  -1  -6 -18   70.74   28.89
  -1   6 -18   52.17   26.58
   1   6 -18   61.41   23.67
   1  -6  18   67.94   26.03
   1   6  18   31.45   14.49
  -1   6  18   81.43   27.49
   1   7   0   73.82   15.28
   1  -7   0   37.83    7.06
  -1  -7   0   76.67    7.40
  -1   7   0   63.72   10.21
   1   7   0   56.06    6.97
  -1  -7   0   50.26   12.56
  -1   7  -1   63.08   15.85
  -1   7   1   46.22   10.38
   1   7  -1   60.60   15.29
   1   7   1   93.53   17.69
   1  -7  -1  103.10   11.71
  -1  -7  -1   77.20    6.64
   1  -7   1   67.72   12.80
  -1   7   1   79.86   10.13
  -1  -7   1   52.99    7.37
  -1   7  -1   77.97   10.92
   1   7   1   82.69    6.73
   1   7  -1   66.04    7.98
   1  -7  -1   89.88   16.96
   1  -7   1  105.33   17.31
  -1  -7  -1   86.80   14.89
  -1  -7   1   83.27   16.75
  -1   7  -2  311.76   26.07
   1   7  -2  416.57   32.19
  -1   7   2  333.66   22.82
   1   7   2  357.09   27.69
  -1  -7  -2  323.96   23.20
   1  -7  -2  365.43   57.41
  -1   7   2  316.84   18.84
   1  -7   2  374.64   23.92
  -1  -7   2  334.29   19.42
  -1   7  -2  307.41   19.86
   1   7   2  357.82   16.36
   1   7  -2  337.68   19.92
   1  -7  -2  452.27   57.08
   1  -7   2  332.57   48.51
  -1  -7  -2  273.63   21.46
  -1  -7   2  332.60   26.07
  -1  -7  -3  275.29   22.53
  -1   7  -3  289.62   27.77
   1   7  -3  246.32   23.53
  -1   7   3  228.16   20.02
   1  -7  -3  259.49   40.19
  -1   7   3  217.83   13.87
   1  -7   3  221.05   18.45
   1   7   3  211.76   10.23
  -1  -7   3  253.44   18.07
   1   7  -3  191.32   14.58
   1   7   3  233.13   11.51
   1  -7  -3  261.11   50.89
   1  -7   3  253.57   61.45
  -1  -7  -3  247.36   46.96
  -1  -7   3  304.16   23.90
  -1  -7  -4  199.17   37.95
  -1   7  -4  183.69   22.70
  -1   7   4  154.71   16.42
   1  -7  -4  185.71   46.75
  -1   7   4  139.20   12.73
   1   7   4  162.60   10.63
   1  -7   4  188.16   19.99
  -1  -7   4  147.81   15.69
   1   7   4  171.27   11.32
   1  -7  -4  208.76   35.12
   1  -7   4  189.32   34.61
  -1  -7  -4  201.82   34.41
  -1  -7   4  162.14   20.88
  -1  -7  -5   60.18   16.31
  -1   7  -5   47.87   14.19
   1   7  -5   58.33   15.30
   1  -7  -5   80.12   10.41
  -1   7   5   45.15    7.44
   1   7   5   58.63    5.95
   1  -7   5   31.12   12.04
  -1  -7   5   69.75   13.56
   1   7   5   57.45    6.65
   1  -7  -5   73.83   16.75
   1  -7   5   38.03   18.49
  -1  -7  -5   27.01    9.89
  -1  -7   5  103.51   18.20
   1  -7  -6  239.77   21.04
  -1  -7  -6  332.14   64.25
  -1   7  -6  262.89   29.86
   1   7  -6  352.44   32.22
   1   7   6  231.37   29.88
   1  -7   6  293.06   25.16
  -1  -7   6  269.67   23.88
   1   7   6  271.26   17.85
  -1   7   6  296.29   21.33
   1  -7  -6  281.82   50.48
   1  -7   6  276.97   44.52
  -1  -7  -6  259.21   50.13
  -1  -7   6  269.12   30.27
   1  -7  -7   93.77   24.92
  -1  -7  -7   70.86   18.00
  -1   7  -7   68.96   19.21
   1   7  -7   94.96   21.88
   1   7   7   59.92   15.79
   1  -7   7   72.56   20.13
  -1  -7   7   74.59   17.77
   1   7   7  105.70   10.06
  -1   7   7   80.20   15.16
   1  -7   7   79.80   18.67
  -1  -7  -7   76.46   19.53
  -1  -7   7  111.47   17.23
   1  -7  -8  281.21   41.24
  -1  -7  -8  270.78   41.44
   1   7  -8  243.35   24.41
   1   7   8  166.45   41.17
   1  -7   8  272.62   28.71
  -1  -7   8  252.64   25.70
   1   7   8  215.24   15.32
  -1   7   8  270.22   20.05
   1  -7   8  263.18   43.89
  -1  -7  -8  251.83   36.53
  -1  -7   8  284.89   45.90
   1   7   8  216.57   16.54
   1  -7  -9  109.40   33.21
  -1  -7  -9   65.43   20.18
   1   7  -9   98.59   27.44
   1   7   9   23.83    8.24
   1  -7   9   81.23   24.90
  -1  -7   9  120.74   29.66
   1   7   9   84.63   18.61
  -1   7   9   41.64   14.35
   1  -7   9   55.64   17.54
  -1  -7  -9   62.31   17.42
  -1  -7   9  110.92   28.75
  -1   7   9   31.81   10.21
   1   7   9   38.39   10.08
   1  -7 -10   71.67   22.03
  -1  -7 -10   71.24   19.86
  -1   7 -10   43.65   16.81
   1   7 -10   66.47   22.80
   1  -7  10   82.83   21.20
  -1  -7  10   57.20   21.02
   1   7  10   59.10   14.80
  -1   7  10  101.40   21.90
  -1  -7 -10   54.35   13.58
   1  -7  10  100.16   28.08
  -1  -7  10   41.98   15.87
  -1   7  10   73.36   15.20
   1   7  10   58.63   12.77
   1  -7 -11  177.25   28.61
  -1  -7 -11  196.44   39.17
  -1   7 -11  191.97   27.50
   1   7 -11  167.90   24.55
   1  -7  11  143.28   24.30
  -1  -7  11  179.14   24.26
   1   7  11   94.35   20.11
  -1   7  11  180.32   20.60
  -1  -7 -11  170.26   14.96
   1  -7  11  145.74   30.37
  -1  -7  11  194.31   46.04
   1  -7 -12  165.67   46.03
  -1  -7 -12  246.43   54.62
  -1   7 -12  209.33   32.85
   1   7 -12  213.91   28.83
   1  -7  12  209.76   29.96
  -1  -7  12  202.68   29.92
   1   7  12  214.19   23.18
  -1   7  12  225.47   23.66
   1  -7  12  234.59   52.35
  -1  -7  12  217.78   58.15
   1  -7 -13   64.15   15.89
  -1  -7 -13   42.07   13.78
  -1   7 -13   58.22   19.80
   1   7 -13  128.55   29.58
   1  -7  13   79.64   21.25
  -1  -7  13   49.08   18.74
   1   7  13   38.93   11.56
  -1   7  13   45.34   16.50
   1  -7  13   25.09   16.43
  -1  -7  13   96.54   25.67
   1  -7 -14  108.23   25.16
  -1  -7 -14  125.04   31.81
  -1   7 -14  115.83   29.63
   1   7 -14   63.19   18.54
   1  -7  14  142.89   35.19
  -1  -7  14  122.47   32.54
   1   7  14   91.08   21.13
  -1   7  14   69.89   20.99
   1  -7  14   80.53   28.09
  -1  -7  14   73.31   23.73
   1  -7 -15   56.12   18.61
  -1  -7 -15   74.01   23.22
  -1   7 -15  101.24   28.87
   1   7 -15   75.83   23.13
   1  -7  15   30.62   18.90
  -1  -7  15   62.54   21.85
   1   7  15   33.65   10.94
  -1   7  15   51.33   13.81
  -1  -7  15   43.64   14.68
   1  -7 -16   26.36   11.04
  -1  -7 -16   31.84   12.30
  -1   7 -16   55.00   20.63
   1   7 -16   22.30   18.41
  -1  -7  16  -13.67   16.09
   1   7  16   26.29   14.09
  -1   7  16   14.75   15.67
   1  -7 -17    9.07    7.18
  -1  -7 -17   21.57   12.34
  -1   7 -17   25.04   24.99
   1   7 -17   53.27   22.68
   1  -7  17   37.16   18.83
  -1  -7  17   22.19   16.61
  -1   7  17   14.79   11.23
  -1  -7 -18   22.78    8.22
  -1   7 -18   36.30   18.30
   1   7 -18   12.48   14.53
   1  -7  18   27.67   19.98
  -1  -7  18    9.88   16.15
  -1   7  18   27.59   13.36
  -1   8   0   42.18   13.47
   1   8   0   38.60   11.14
   1  -8   0   32.84   10.45
  -1  -8   0   41.08    7.06
  -1   8   0   29.06    7.42
   1   8   0   32.14    5.42
   1  -8   0   42.55   12.55
  -1  -8   0   39.66   13.59
  -1   8  -1  251.21   25.47
  -1   8   1  251.87   22.60
   1   8  -1  250.41   25.31
   1   8   1  239.22   25.48
   1  -8  -1  246.67   19.21
  -1  -8  -1  295.08   18.42
   1  -8   1  247.78   21.12
  -1  -8   1  276.12   20.09
  -1   8   1  257.30   19.01
   1   8   1  254.98   16.39
   1   8  -1  277.78   19.10
   1  -8  -1  278.84   53.54
   1  -8   1  353.94   59.02
  -1  -8  -1  249.40   39.47
  -1  -8   1  287.95   46.47
  -1   8  -2  366.07   31.67
   1   8  -2  379.03   32.54
  -1   8   2  304.93   26.89
   1   8   2  317.59   27.20
  -1  -8  -2  355.19   30.51
   1  -8  -2  361.21   52.52
   1  -8   2  333.07   24.86
  -1   8   2  274.50   19.55
  -1  -8   2  304.33   21.94
   1   8  -2  329.37   22.51
   1  -8  -2  377.84   59.40
   1  -8   2  358.86   64.79
  -1  -8  -2  317.45   44.79
  -1  -8   2  347.93   43.27
  -1   8  -3  415.99   35.74
   1   8  -3  339.03   28.27
  -1   8   3  448.37   33.63
   1   8   3  402.66   31.92
   1  -8  -3  445.41   29.47
  -1   8   3  371.22   24.25
   1  -8   3  382.03   27.82
  -1  -8   3  482.74   31.71
   1   8   3  404.08   23.02
   1   8   3  398.66   22.85
   1  -8  -3  431.98   72.91
   1  -8   3  457.95   80.69
  -1  -8  -3  522.97   78.56
  -1  -8   3  415.02   50.53
  -1  -8  -4  321.95   28.65
  -1   8  -4  337.02   33.04
   1   8  -4  198.17   22.44
  -1   8   4  244.82   22.39
   1  -8  -4  250.47   36.96
  -1   8   4  232.24   17.58
   1  -8   4  273.96   23.78
   1   8   4  257.75   15.36
  -1  -8   4  211.93   18.52
   1   8   4  257.92   15.59
   1  -8  -4  271.94   53.51
   1  -8   4  332.54   63.58
  -1  -8  -4  306.14   59.11
  -1  -8   4  312.29   42.86
  -1  -8  -5   76.11   18.24
  -1   8  -5   62.12   19.94
   1   8  -5   49.03   14.85
  -1   8   5   83.16   19.54
   1  -8  -5   44.79   11.93
  -1   8   5   65.58   12.66
   1   8   5   73.28   12.30
   1  -8   5   94.78   19.07
  -1  -8   5   53.08   14.18
   1   8   5   59.66   10.63
   1  -8  -5   56.54   17.81
   1  -8   5  105.32   24.35
  -1  -8  -5   68.32   15.14
  -1  -8   5   93.62   20.46
  -1  -8  -6   36.14   11.69
  -1   8  -6   26.68   12.72
   1   8  -6   23.52   13.99
  -1   8   6   10.07    9.63
   1   8   6   21.62    5.75
   1  -8   6   35.96   12.80
  -1  -8   6   -5.43    8.90
   1   8   6   12.41    5.42
  -1   8   6   16.33    7.08
   1  -8  -6   14.60   11.35
   1  -8   6   21.16   16.75
  -1  -8  -6   14.66    9.36
  -1  -8   6   16.23    7.98
   1  -8  -7  403.61   29.31
  -1  -8  -7  316.85   49.91
  -1   8  -7  327.28   28.05
   1   8  -7  381.01   31.79
   1   8   7  241.45   34.23
   1  -8   7  294.15   25.63
  -1  -8   7  356.24   27.74
   1   8   7  348.34   19.92
  -1   8   7  330.14   23.62
   1  -8  -7  403.15   56.22
   1  -8   7  337.78   41.91
  -1  -8  -7  358.67   52.24
  -1  -8   7  422.18   80.38
   1  -8  -8  440.47   70.02
  -1  -8  -8  430.67   64.79
  -1   8  -8  514.02   42.36
   1   8  -8  542.86   44.04
   1   8   8  364.75   44.02
   1  -8   8  515.39   40.28
  -1  -8   8  505.46   40.08
   1   8   8  489.58   31.84
  -1   8   8  497.26   36.03
   1  -8  -8  522.43   36.44
   1  -8   8  456.49   84.81
  -1  -8  -8  540.83   69.75
  -1  -8   8  525.38   48.62
   1  -8  -9   55.71   15.99
  -1  -8  -9   42.58   14.34
  -1   8  -9   26.45   14.10
   1   8  -9   48.53   22.68
   1   8   9   31.82    9.89
   1  -8   9   64.55   22.90
  -1  -8   9   36.38   14.81
   1   8   9   60.36   13.36
  -1   8   9   48.26   13.18
   1  -8   9   45.48   19.47
  -1  -8  -9   28.39   11.91
  -1  -8   9   94.30   27.77
   1  -8 -10  135.22   32.25
  -1  -8 -10  111.41   31.39
  -1   8 -10  138.31   23.48
   1   8 -10  210.02   29.93
   1  -8  10  181.39   27.40
  -1  -8  10  173.28   23.19
   1   8  10  151.89   15.28
  -1   8  10  145.20   18.52
  -1  -8 -10  100.73   21.77
   1  -8  10  131.01   44.95
  -1  -8  10  132.43   35.50
   1  -8 -11   90.69   25.51
  -1  -8 -11   55.02   20.51
  -1   8 -11  105.99   22.30
   1   8 -11   93.71   21.44
   1  -8  11   49.08   24.63
  -1  -8  11   99.39   19.10
   1   8  11   93.51   15.04
  -1   8  11   71.45   17.30
  -1  -8 -11   74.19   17.93
   1  -8  11   70.53   20.96
  -1  -8  11   66.45   17.03
   1  -8 -12   72.04   29.01
  -1  -8 -12  103.28   32.76
  -1   8 -12  104.56   27.74
   1   8 -12  148.52   37.14
   1  -8  12  109.48   27.83
  -1  -8  12   91.07   25.22
   1   8  12  140.99   26.33
  -1   8  12   82.45   20.16
   1  -8  12  100.32   23.89
  -1  -8  12   92.48   20.99
   1  -8 -13  145.04   38.53
  -1  -8 -13  172.82   58.08
  -1   8 -13  202.98   41.76
   1   8 -13  252.25   47.97
   1  -8  13  259.99   47.81
  -1  -8  13  216.07   39.38
   1   8  13  212.87   35.86
  -1   8  13  174.88   30.27
   1  -8  13  128.17   41.37
  -1  -8  13  165.21   57.77
   1  -8 -14   27.20   11.56
  -1  -8 -14   51.26   17.26
  -1   8 -14   71.07   20.00
   1   8 -14   70.11   20.88
   1  -8  14   71.31   24.22
  -1  -8  14   38.67   17.07
   1   8  14   67.34   17.46
   1  -8  14   36.77   25.46
  -1  -8  14   58.55   19.60
   1  -8 -15   23.22   12.39
  -1  -8 -15   19.50   13.88
  -1   8 -15   36.50   17.65
   1   8 -15   31.04   16.37
   1  -8  15   19.72   16.45
  -1  -8  15   23.99   16.85
  -1   8  15   43.80   19.27
   1  -8  15   13.73    6.77
  -1  -8  15   31.32    9.67
   1  -8 -16   66.76   27.25
  -1  -8 -16   75.62   22.10
  -1   8 -16  137.83   39.17
   1   8 -16   90.76   27.68
   1  -8  16  172.42   49.85
  -1  -8  16  166.91   47.94
  -1   8  16   69.30   24.83
  -1  -8 -17   16.75    8.78
  -1   8 -17    4.74   16.68
   1   8 -17   -0.18   13.98
   1  -8  17   12.38   16.89
  -1  -8  17   -7.90   16.70
  -1   8  17   31.64   21.65
  -1   9   0  122.80   18.11
   1   9   0  132.46   19.59
   1  -9   0  138.92   15.92
  -1  -9   0  108.70   10.57
   1   9   0  107.19    9.66
   1  -9   0  101.69   21.54
  -1  -9   0  122.14   31.68
  -1   9  -1  138.73   21.26
  -1   9   1   54.08   13.32
   1   9  -1  132.10   20.85
   1   9   1   45.97   13.65
  -1  -9  -1   84.93   17.12
   1  -9  -1  101.78   21.47
   1  -9   1   72.28   16.39
  -1  -9   1   98.64   14.82
  -1   9   1   69.11   13.85
   1   9   1   70.29   12.16
   1   9  -1   85.51   16.27
   1  -9  -1  112.20   28.77
   1  -9   1   57.62   14.33
  -1  -9  -1   97.63   23.32
  -1  -9   1   62.84   20.70
  -1   9  -2   11.30   12.35
   1   9  -2   37.54   19.39
  -1   9   2   35.76   17.66
   1   9   2   51.47   17.57
  -1  -9  -2   31.42    7.40
   1  -9  -2   26.80    7.83
   1  -9   2   28.45   14.62
  -1  -9   2   23.79    8.00
  -1   9   2   10.94    5.96
   1   9   2   16.87    5.25
   1   9  -2   50.38   11.72
   1  -9  -2   23.28    7.97
   1  -9   2   20.88    9.63
  -1  -9   2   34.95   11.49
  -1   9  -3  102.48   15.10
   1   9  -3  123.19   16.64
  -1   9   3  151.01   19.52
   1   9   3  116.01   15.49
   1  -9  -3  102.62   20.21
   1  -9   3  118.94   15.49
  -1   9   3   86.08   15.30
  -1  -9   3  116.58   13.19
   1   9   3  125.92    8.92
   1   9   3  110.33    8.01
   1  -9  -3  134.68   32.50
   1  -9   3  181.00   31.68
  -1  -9  -3  140.94   40.31
  -1  -9   3  100.97   22.94
  -1   9  -4  123.29   24.36
   1   9  -4   97.79   21.02
  -1   9   4   63.14   17.01
   1   9   4   71.99   20.32
   1  -9  -4   98.92   23.61
  -1   9   4   53.44    9.44
   1  -9   4   97.53   19.33
  -1  -9   4   99.39   18.88
   1   9   4   98.35   12.87
   1   9   4   73.02   10.01
   1  -9  -4  138.14   29.35
   1  -9   4  101.84   26.36
  -1  -9  -4   76.82   18.53
  -1  -9   4   69.91   19.03
  -1  -9  -5   51.66   19.89
  -1   9  -5   55.74   21.44
  -1   9   5   19.24   10.01
   1  -9  -5   11.30    7.06
  -1   9   5   31.36    8.64
   1  -9   5   18.26   10.80
   1   9   5   14.90    4.21
  -1  -9   5    5.88    9.77
   1   9   5    9.58    3.24
   1  -9  -5   21.44   14.35
   1  -9   5   41.95   15.69
  -1  -9  -5   21.59    8.03
  -1  -9   5    2.88    8.08
  -1  -9  -6  201.90   23.75
  -1   9  -6  232.64   26.92
  -1   9   6  235.18   25.05
   1   9   6  208.10   14.71
   1  -9   6  220.30   24.49
   1   9   6  231.83   16.11
  -1   9   6  228.00   19.27
   1  -9  -6  287.91   64.81
   1  -9   6  286.88   49.66
  -1  -9  -6  237.93   56.33
  -1  -9   6  263.19   46.18
  -1  -9  -7  511.28   83.48
  -1   9  -7  416.51   36.87
   1   9  -7  463.80   38.45
  -1   9   7  587.36   41.71
   1   9   7  474.69   29.14
   1  -9   7  538.20   41.00
  -1  -9   7  463.10   36.11
   1   9   7  490.23   30.30
  -1   9   7  459.38   31.54
   1  -9  -7  538.94   86.31
   1  -9   7  452.67   98.18
  -1  -9  -7  507.20   35.99
  -1  -9   7  549.86   81.57
   1  -9  -8   60.44   17.86
  -1  -9  -8   20.80    7.34
  -1   9  -8   87.75   25.83
   1   9  -8   28.01   15.48
   1  -9   8    3.09   12.44
  -1  -9   8   28.22   16.22
   1   9   8    8.45    5.14
  -1   9   8   28.43   10.44
   1  -9  -8   15.62   13.46
   1  -9   8   20.44   10.40
  -1  -9  -8   17.05    7.18
  -1  -9   8   27.07   12.58
   1  -9  -9   95.49   17.60
  -1  -9  -9   77.05   21.31
  -1   9  -9   80.54   24.82
   1   9  -9   92.94   25.92
   1  -9   9  108.15   19.06
  -1  -9   9  105.15   20.61
   1   9   9   90.29   16.60
  -1   9   9   86.57   17.59
   1  -9  -9   96.16   16.27
  -1  -9  -9   82.74   18.63
   1  -9   9   61.01   17.39
  -1  -9   9  104.66   30.20
   1  -9 -10   24.72   12.13
  -1  -9 -10   45.08   17.68
   1   9 -10   39.50   16.19
   1  -9  10   17.99   13.77
  -1  -9  10   17.66   13.89
   1   9  10   10.62    5.79
  -1   9  10   15.62   12.46
  -1  -9 -10    9.30    5.34
   1  -9  10    7.99    8.41
  -1  -9  10   -4.67   12.18
   1  -9 -11  105.25   23.65
  -1  -9 -11  193.87   42.11
  -1   9 -11  270.07   46.57
   1   9 -11  134.16   30.06
   1  -9  11  159.06   30.93
  -1  -9  11  120.43   27.74
   1   9  11  143.50   23.47
  -1   9  11  187.57   31.15
  -1  -9 -11  128.68   32.73
   1  -9  11  174.96   45.17
  -1  -9  11  150.85   35.34
   1  -9 -12   33.61   13.67
  -1  -9 -12   27.65   10.88
  -1   9 -12   22.82   21.08
   1   9 -12   15.26   14.52
   1  -9  12    7.09   12.67
  -1  -9  12   34.06   18.36
   1   9  12    8.84    6.49
  -1   9  12   22.33   14.60
   1  -9  12   -2.42    9.77
  -1  -9  12    8.89   10.28
   1  -9 -13  108.16   38.43
  -1  -9 -13  167.56   37.84
  -1   9 -13  102.57   22.77
   1   9 -13  108.48   23.92
   1  -9  13  103.46   27.60
  -1  -9  13  151.96   37.17
  -1   9  13  126.75   24.43
   1  -9  13   89.06   21.51
  -1  -9  13   73.38   25.55
   1  -9 -14   11.89    6.11
  -1  -9 -14    9.21    6.37
  -1   9 -14   23.53   15.30
   1   9 -14   22.14   14.85
   1  -9  14   16.86   15.89
  -1  -9  14   -6.94   16.70
  -1   9  14   28.77   12.57
   1  -9  14   20.88   20.70
  -1  -9  14    1.04    7.85
   1  -9 -15  132.53   52.97
  -1   9 -15  222.07   30.15
   1   9 -15  172.17   42.34
   1  -9  15  103.35   31.91
  -1  -9  15  193.66   44.94
  -1   9  15  159.83   33.58
   1  -9  15  130.45   53.55
  -1  -9  15  109.82   48.62
   1  -9 -16   39.50   17.08
  -1  -9 -16    1.30    5.35
  -1   9 -16   69.00   32.81
   1   9 -16   23.82   16.39
   1  -9  16    6.00   15.05
  -1  -9  16   17.17   18.11
  -1  10   0    0.43   13.01
   1  10   0    1.77   13.94
   1 -10   0    6.60    6.58
  -1 -10   0   13.35    6.57
   1  10   0   17.28    6.99
   1 -10   0   43.41   15.53
  -1 -10   0   21.96    9.26
  -1  10  -1   83.79   20.61
  -1  10   1   48.69   15.51
   1  10  -1   49.27   14.58
   1  10   1   80.42   22.72
  -1 -10  -1   72.74   16.12
   1 -10  -1   81.63   16.78
   1 -10   1  128.74   21.90
  -1 -10   1   85.31   13.53
   1  10   1   66.57   10.97
   1  10  -1   63.32   11.34
   1 -10  -1  111.78   30.02
   1 -10   1   39.53   15.09
  -1 -10  -1  100.92   33.74
  -1  10  -2   -3.33   14.44
   1  10  -2   47.34   22.13
  -1  10   2   58.23   21.24
   1  10   2   -9.94   14.23
  -1 -10  -2    8.49    4.85
   1 -10  -2    5.98    4.98
   1 -10   2    2.51    8.64
  -1 -10   2   17.41    7.91
   1  10   2    0.47    2.44
   1  10  -2   26.31    9.79
   1 -10  -2   27.20    9.19
   1 -10   2   54.32   15.24
  -1 -10  -2   31.78   12.11
  -1 -10   2    5.26   12.39
  -1  10  -3   10.58   15.70
   1  10  -3   31.59   15.56
  -1  10   3   47.16   16.27
   1  10   3   39.25   21.85
   1 -10  -3   14.61    7.26
   1 -10   3   20.94   10.66
  -1 -10   3   20.88   12.70
   1  10   3   21.10    5.22
   1  10   3   26.70    6.31
   1 -10  -3   44.66   14.61
   1 -10   3   25.61   13.65
  -1 -10  -3   61.36   26.91
  -1 -10   3   51.99   19.72
  -1  10  -4  255.83   30.18
   1  10  -4  184.17   24.07
  -1  10   4  208.68   23.51
   1  10   4  197.49   22.36
   1 -10  -4  214.62   45.28
   1 -10   4  283.16   26.79
  -1 -10   4  223.49   20.37
   1  10   4  220.51   14.11
   1  10   4  230.58   14.73
   1 -10  -4  279.91   55.72
   1 -10   4  291.19   55.24
  -1 -10  -4  194.79   31.00
  -1 -10   4  265.99   55.27
  -1  10  -5  157.91   24.01
   1  10  -5  246.71   27.51
  -1  10   5  229.29   26.67
   1  10   5  246.53   28.82
   1 -10  -5  253.06   20.84
   1 -10   5  184.31   19.66
  -1 -10   5  163.45   21.21
   1  10   5  211.00   13.17
   1  10   5  222.83   14.14
   1 -10  -5  215.42   32.77
   1 -10   5  241.40   45.48
  -1 -10  -5  252.33   46.85
  -1 -10   5  285.54   57.93
  -1 -10  -6  149.48   29.01
  -1  10  -6  135.91   29.85
   1  10  -6  277.07   33.12
  -1  10   6  190.26   23.18
   1 -10   6  185.94   22.93
  -1 -10   6  144.47   26.51
   1  10   6  154.28   11.10
  -1  10   6  163.68   15.47
   1 -10  -6  186.14   29.97
   1 -10   6  175.26   32.18
  -1 -10  -6  162.94   28.28
  -1 -10   6  213.29   28.84
  -1 -10  -7   88.67   20.46
  -1  10  -7   47.61   18.78
   1  10  -7   47.79   17.11
  -1  10   7   56.99   19.42
   1 -10   7   65.89   18.97
  -1 -10   7  122.36   22.77
   1  10   7   57.07    9.92
  -1  10   7   65.84   14.32
   1 -10  -7   95.57   24.71
   1 -10   7  111.61   21.87
  -1 -10  -7   84.70   19.36
  -1 -10   7  103.02   15.21
  -1 -10  -8  707.84   56.05
  -1  10  -8  752.06  149.73
   1  10  -8  622.40   54.28
  -1  10   8  668.60   52.62
   1 -10   8  595.91   50.94
  -1 -10   8  714.01   55.58
  -1  10   8  696.14   50.22
   1 -10  -8  673.13   51.14
   1 -10   8  577.28  111.16
  -1 -10  -8  564.23  102.22
  -1 -10   8  750.10  169.62
  -1 -10  -9  225.18   53.86
  -1  10  -9  183.63   31.92
   1  10  -9  147.35   29.08
  -1  10   9  132.33   22.20
   1 -10   9  197.05   29.84
  -1 -10   9  163.59   24.78
  -1  10   9  176.11   22.60
   1 -10  -9  162.09   24.49
  -1 -10  -9  173.84   44.23
   1 -10   9  166.32   40.22
  -1 -10   9  160.23   44.95
   1 -10 -10   18.66   10.74
  -1 -10 -10   49.93   17.10
  -1  10 -10    9.31   23.34
   1  10 -10   14.72   16.26
   1 -10  10   25.17   20.73
  -1 -10  10   28.65   14.17
  -1  10  10   18.83    9.02
  -1 -10 -10    9.33    6.61
   1 -10  10   29.28   12.58
  -1 -10  10   28.09   12.81
   1 -10 -11   35.73   16.85
  -1 -10 -11   45.85   15.98
  -1  10 -11   51.68   23.29
   1  10 -11   38.79   16.43
   1 -10  11   61.98   19.71
  -1 -10  11   38.28   14.59
  -1  10  11   48.31   13.17
  -1 -10 -11   23.99   10.46
   1 -10  11   35.56   11.91
  -1 -10  11   27.90   14.77
   1 -10 -12  129.34   30.14
  -1 -10 -12   98.20   31.36
  -1  10 -12  125.62   28.53
   1  10 -12   77.24   22.20
   1 -10  12   89.88   25.91
  -1 -10  12   81.98   23.56
  -1  10  12   46.32   13.11
   1 -10  12   85.06   32.67
   1 -10 -13   19.61   14.75
  -1 -10 -13    0.75    6.29
  -1  10 -13   38.10   17.24
   1  10 -13    7.76   17.12
   1 -10  13    4.35   16.38
  -1 -10  13   16.85   15.12
   1 -10  13   20.61    7.57
  -1 -10  13   15.94   11.22
   1 -10 -14   34.39    9.31
  -1 -10 -14   37.55   15.25
  -1  10 -14   68.79   24.69
   1  10 -14   76.59   26.74
   1 -10  14   88.64   28.34
  -1 -10  14   11.63   16.92
   1 -10  14   24.44   13.97
  -1 -10  14   26.19   11.07
   1 -10 -15    3.39    6.93
  -1 -10 -15   -5.58   12.97
  -1  10 -15   45.21   21.35
   1  10 -15   48.36   19.65
   1 -10  15  -10.47   18.18
  -1 -10  15    4.90   15.20
   1 -10  15   16.61   10.53
  -1 -10  15   -1.84   11.40
  -1  11   0  191.23   26.31
   1  11   0  168.70   25.43
   1 -11   0  133.47   25.54
  -1 -11   0  165.83   13.90
   1  11   0  105.12   19.51
   1 -11   0  185.64   35.12
  -1 -11   0  162.31   44.15
  -1  11  -1  164.50   27.39
  -1  11   1   82.74   24.32
   1  11  -1   59.63   18.51
   1  11   1  125.67   32.59
  -1 -11  -1   51.63   13.27
   1 -11  -1   57.13   18.05
   1 -11   1   41.84   12.12
  -1 -11   1   82.44   16.66
   1  11   1   85.58   16.18
   1  11  -1   47.02   11.73
   1 -11  -1  161.16   35.07
  -1 -11   1   76.01   19.81
  -1 -11  -1   57.65   24.21
  -1  11  -2  539.05   41.99
   1  11  -2  518.34   43.74
  -1  11   2  594.19   46.11
   1  11   2  619.36   48.75
  -1 -11  -2  438.23   32.21
   1 -11  -2  543.77   63.48
   1 -11   2  542.17   38.86
  -1 -11   2  509.06   34.39
   1 -11  -2  514.69   94.55
   1 -11   2  556.17   71.14
  -1 -11  -2  393.23   65.61
  -1 -11   2  536.86   96.20
  -1  11  -3   35.50   18.19
   1  11  -3   75.23   21.69
  -1  11   3   32.58   22.66
   1  11   3   79.39   22.13
   1 -11  -3   55.58   15.50
   1 -11   3   63.27   17.65
  -1 -11   3   50.66   14.66
   1  11   3   47.46    9.15
   1 -11  -3   87.40   22.37
   1 -11   3   52.23   23.84
  -1 -11  -3   45.97   12.91
  -1 -11   3   98.46   30.90
  -1  11  -4  231.26   29.96
   1  11  -4  313.26   32.16
  -1  11   4  234.48   28.21
   1  11   4  357.35   35.21
   1 -11  -4  243.76   56.95
   1 -11   4  387.36   33.64
  -1 -11   4  374.00   32.75
   1 -11  -4  323.14   65.61
   1 -11   4  249.83   54.54
  -1 -11  -4  368.96   71.06
  -1 -11   4  328.34   47.48
  -1  11  -5  173.51   26.77
   1  11  -5  108.53   22.83
  -1  11   5   83.15   18.94
   1  11   5  145.80   25.03
   1 -11  -5  136.49   16.55
   1 -11   5  146.36   22.16
  -1 -11   5  181.80   21.92
   1 -11  -5  183.34   42.50
   1 -11   5  166.37   34.98
  -1 -11  -5  127.02   29.96
  -1 -11   5  121.66   27.33
  -1  11  -6    3.43   15.56
  -1  11   6   28.65   18.64
   1  11   6    9.57   14.13
   1 -11   6   27.54   13.62
  -1 -11   6   17.54   10.86
  -1  11   6    9.70    6.10
   1 -11  -6   18.28   10.03
   1 -11   6   68.27   20.25
  -1 -11  -6   45.59   16.03
  -1 -11   6   35.14   11.35
  -1  11  -7  238.60   37.48
   1  11  -7  280.62   37.41
  -1  11   7  215.12   31.31
   1  11   7  275.26   37.48
   1 -11   7  295.85   37.82
  -1 -11   7  293.87   35.88
  -1  11   7  234.82   27.34
   1 -11  -7  191.12   59.50
   1 -11   7  300.66   45.82
  -1 -11  -7  206.48   39.52
  -1 -11   7  282.96   50.24
  -1 -11  -8  154.74   31.62
  -1  11  -8  131.63   30.16
   1  11  -8  187.03   38.26
  -1  11   8  147.50   24.24
   1 -11   8  143.16   25.89
  -1 -11   8  163.32   29.08
  -1  11   8  115.88   21.70
   1 -11  -8  115.59   27.03
   1 -11   8  157.64   40.23
  -1 -11  -8  100.59   24.65
  -1 -11   8  103.00   25.79
  -1 -11  -9   12.33   12.39
  -1  11  -9   60.22   24.85
   1  11  -9    0.17   16.34
  -1  11   9   31.21   12.43
   1 -11   9   -0.73   11.97
  -1 -11   9   18.31   18.98
  -1  11   9    4.88    5.85
   1 -11  -9   22.44   10.16
   1 -11   9   10.72    9.08
  -1 -11  -9    9.67    4.88
  -1 -11   9   58.91   22.27
  -1 -11 -10   50.39   20.95
  -1  11 -10   36.88   15.98
   1  11 -10   49.78   23.67
  -1  11  10   30.05   10.99
   1 -11  10   11.70   12.88
  -1 -11  10   25.84   13.44
  -1 -11 -10   13.32    8.41
   1 -11  10   23.07    6.88
  -1 -11  10    1.10    6.17
  -1 -11 -11   50.61   14.92
  -1  11 -11   26.06   25.28
   1  11 -11   67.16   23.05
  -1  11  11   39.91   17.09
   1 -11  11    5.23   13.91
  -1 -11  11   22.95   14.71
   1 -11  11   25.91   11.04
  -1 -11  11   40.19   11.75
   1 -11 -12   91.12   24.40
  -1 -11 -12   24.27   13.18
  -1  11 -12   20.63   16.93
   1  11 -12    0.24   17.87
   1 -11  12   20.72   14.51
  -1 -11  12   10.43   18.57
   1 -11  12   40.43   17.88
  -1 -11  12   82.04   29.82
   1 -11 -13   18.59   10.71
  -1 -11 -13   17.56   14.54
  -1  11 -13   33.80   19.75
   1  11 -13    7.33   15.47
   1 -11  13   40.96   19.35
  -1 -11  13   34.72   16.33
   1 -11  13   35.92   16.41
  -1 -11  13   49.48   16.38
   1 -11 -14   31.41   15.13
  -1 -11 -14   22.85   15.76
  -1  11 -14   18.71   19.39
   1  11 -14   28.15   17.96
   1 -11  14   17.40   15.53
  -1 -11  14   32.50   16.34
   1 -11  14   -4.58   10.19
  -1 -11  14   29.15   13.62
   1 -11 -15   16.11   10.86
  -1 -11 -15   14.11    9.29
  -1  11 -15   40.36   18.96
   1  11 -15   12.83   17.03
   1 -11  15   49.34   25.98
  -1 -11  15   54.65   23.45
   1 -11  15    1.98   11.03
  -1 -11  15   70.94   24.45
  -1  12   0   47.83   21.59
   1  12   0   37.76   23.50
   1 -12   0   22.36   11.89
  -1 -12   0    7.69    5.73
   1 -12   0   32.42   12.31
  -1 -12   0   23.85   12.19
  -1  12  -1  113.31   22.55
  -1  12   1   86.59   28.40
   1  12  -1  108.48   23.37
   1  12   1   75.23   21.45
  -1 -12  -1   46.09   12.03
   1 -12  -1   60.39   13.56
   1 -12   1   66.49   17.31
  -1 -12   1   50.79   11.77
   1 -12  -1   91.05   28.27
   1 -12   1   43.90   15.04
  -1 -12   1   60.02   18.29
  -1 -12  -1   74.01   31.78
  -1  12  -2  326.52   36.50
   1  12  -2  241.79   30.44
  -1  12   2  173.82   24.57
   1  12   2  210.33   27.51
   1 -12  -2  179.74   38.77
   1 -12   2  198.59   21.77
  -1 -12   2  215.56   20.33
   1 -12  -2  211.70   37.11
   1 -12   2  277.16   55.33
  -1 -12  -2  222.17   39.69
  -1 -12   2  225.53   40.06
  -1  12  -3  172.76   22.94
   1  12  -3  207.07   31.09
  -1  12   3  227.62   28.22
   1  12   3  253.01   30.76
   1 -12  -3  215.88   41.98
   1 -12   3  252.54   24.77
  -1 -12   3  244.81   22.66
   1 -12  -3  252.18   44.39
   1 -12   3  249.64   64.39
  -1 -12  -3  267.69   54.63
  -1 -12   3  229.22   44.21
  -1  12  -4   97.10   27.64
   1  12  -4   48.01   20.95
  -1  12   4   57.35   20.04
   1  12   4   89.51   26.05
   1 -12  -4   61.37   17.55
   1 -12   4   59.63   16.49
  -1 -12   4   99.65   17.06
   1 -12  -4   70.13   24.26
   1 -12   4   52.49   19.25
  -1 -12  -4   27.01   13.26
  -1 -12   4  118.59   27.51
  -1  12  -5  159.91   30.81
   1  12  -5  185.35   31.47
  -1  12   5  179.52   28.57
   1  12   5  126.97   25.39
   1 -12  -5  169.57   21.11
   1 -12   5  120.82   22.08
  -1 -12   5  170.55   23.28
   1 -12  -5  163.70   32.15
   1 -12   5  178.03   34.94
  -1 -12  -5  137.38   33.73
  -1 -12   5  190.47   41.75
  -1  12  -6   66.49   26.64
   1  12  -6   91.19   28.96
  -1  12   6   83.07   23.46
   1  12   6   71.39   27.97
   1 -12   6   97.21   21.71
  -1 -12   6   65.76   19.40
  -1  12   6   66.38   14.52
   1 -12  -6   91.03   30.25
   1 -12   6  108.88   33.98
  -1 -12  -6   51.19   15.72
  -1 -12   6   39.86   30.92
  -1  12  -7  121.42   33.73
   1  12  -7  140.24   31.85
  -1  12   7   95.26   22.81
   1  12   7  103.70   27.57
   1 -12   7  117.01   25.17
  -1 -12   7   81.01   19.18
   1 -12  -7  111.55   25.00
   1 -12   7   57.11   23.96
  -1 -12  -7   76.68   23.35
  -1 -12   7  150.25   31.22
  -1  12  -8   51.97   22.42
   1  12  -8   86.92   28.21
  -1  12   8   64.55   18.34
   1  12   8   36.85   20.74
   1 -12   8   32.51   15.05
  -1 -12   8   71.84   19.92
   1 -12  -8   71.63   19.86
  -1 -12  -8   71.58   15.21
   1 -12   8   16.60   17.50
  -1 -12   8   91.83   22.52
  -1  12  -9   14.31   21.58
   1  12  -9   37.05   17.70
  -1  12   9   24.05   12.74
   1  12   9   13.85   14.68
   1 -12   9    5.58   12.52
  -1 -12   9   36.06   13.70
   1 -12  -9   25.20    9.96
  -1 -12  -9   22.12    8.07
   1 -12   9   40.76   18.60
  -1 -12   9   -1.05   13.70
  -1 -12 -10   26.78   11.97
  -1  12 -10   16.27   17.36
   1  12 -10   23.17   19.75
  -1  12  10   17.25   11.82
   1 -12  10   14.93   13.20
  -1 -12  10   10.74   12.78
  -1 -12 -10   19.22    6.48
   1 -12  10   32.65   16.29
  -1 -12  10   34.82   11.74
  -1 -12 -11   14.97   13.02
   1  12 -11   40.56   23.78
  -1  12  11   21.03   12.08
   1 -12  11   40.72   19.23
  -1 -12  11   16.64   14.32
   1 -12  11   27.50   11.81
  -1 -12  11   27.36    7.88
  -1 -12 -12   45.15   14.99
  -1  12 -12   28.26   17.13
   1  12 -12  135.65   43.66
  -1  12  12   26.55   15.39
   1 -12  12  -13.97   13.60
  -1 -12  12   13.65   13.21
   1 -12  12   29.31   11.37
  -1 -12  12   13.10   10.63
  -1 -12 -13   51.19   18.10
   1  12 -13   75.59   33.35
  -1  12  13   33.48   11.50
   1 -12  13  112.53   34.53
  -1 -12  13   24.71   14.53
   1 -12  13   32.66   13.52
  -1 -12  13   45.80   18.13
  -1  13   0   27.52   17.07
   1  13   0   45.03   18.55
   1 -13   0   64.00   21.93
   1 -13   0   52.06   22.85
  -1 -13   0   52.48   21.23
  -1  13  -1   72.97   19.86
  -1  13   1   58.10   19.19
   1  13  -1   32.43   20.28
   1  13   1   98.83   28.06
   1 -13  -1   23.52   10.25
   1 -13   1   64.21   14.37
   1 -13  -1   43.85   22.01
   1 -13   1   43.26   17.29
  -1 -13   1   42.96   12.31
  -1 -13  -1   26.53   19.28
  -1  13  -2   62.91   20.69
   1  13  -2  134.55   33.85
  -1  13   2  216.03   41.91
   1  13   2   38.87   19.31
   1 -13  -2   80.63   17.52
   1 -13   2  103.19   20.50
  -1 -13   2  101.98   17.87
   1 -13  -2   49.97   24.28
   1 -13   2  141.38   33.69
  -1 -13  -2   68.30   25.66
  -1 -13   2  135.53   37.60
  -1  13  -3   27.57   22.91
   1  13  -3   16.53   16.58
  -1  13   3   26.89   15.22
   1  13   3   -6.86   17.54
   1 -13  -3   14.41    8.59
   1 -13   3   30.70   15.31
  -1 -13   3    4.09    6.67
   1 -13  -3   -1.00   14.04
   1 -13   3   18.60   10.02
  -1 -13  -3   21.71   11.28
  -1 -13   3   39.73   15.33
  -1  13  -4  129.93   32.50
   1  13  -4   52.07   25.25
  -1  13   4   50.88   20.73
   1  13   4   79.39   27.18
   1 -13   4   49.38   17.53
  -1 -13   4   38.92   14.47
   1 -13  -4   65.54   19.14
   1 -13   4   25.14   15.27
  -1 -13  -4   40.52   10.98
  -1 -13   4   69.18   22.15
  -1  13  -5   14.44   15.02
   1  13  -5    6.35   16.39
  -1  13   5   30.91   14.45
   1  13   5   42.22   23.40
   1 -13   5   18.52   11.22
  -1 -13   5   18.82   13.55
   1 -13  -5   23.59    7.47
   1 -13   5   38.68   24.38
  -1 -13  -5   13.74    7.92
  -1 -13   5   22.54   17.45
  -1  13  -6   75.70   27.47
   1  13  -6   20.97   17.03
  -1  13   6   31.85   13.96
   1  13   6   60.34   18.17
   1 -13   6   95.43   19.74
  -1 -13   6  114.88   24.71
   1 -13  -6   53.65   13.85
   1 -13   6  119.59   29.75
  -1 -13  -6   80.16   29.49
  -1 -13   6   86.00   37.35
  -1  13  -7  124.57   30.25
  -1  13   7  102.67   23.23
   1  13   7   98.40   24.79
   1 -13   7   66.17   20.14
  -1 -13   7   87.40   18.39
   1 -13  -7   74.14   33.03
   1 -13   7   83.66   21.95
  -1 -13  -7   43.17   13.20
  -1 -13   7   91.56   26.62
  -1  13  -8   35.59   18.36
   1  13  -8   44.67   20.30
  -1  13   8    8.93   14.95
   1  13   8   27.59   16.39
   1 -13   8   34.80   13.50
  -1 -13   8   34.03   12.60
   1 -13  -8   53.70   22.76
   1 -13   8    8.00    7.80
  -1 -13  -8   17.38    8.52
  -1 -13   8   32.71   17.94
  -1  13  -9   23.33   19.64
   1  13  -9   57.78   21.62
  -1  13   9   37.17   17.84
   1  13   9   24.80   14.75
   1 -13   9   27.41   12.82
  -1 -13   9   29.29   17.34
   1 -13  -9    9.01    9.84
  -1 -13  -9    7.29    7.29
   1 -13   9   39.55   17.56
  -1 -13   9   24.91   20.12
  -1  13 -10   83.02   27.90
   1  13 -10   70.54   25.90
  -1  13  10   43.19   14.58
   1  13  10   79.82   22.67
   1 -13  10   31.30   14.65
  -1 -13 -10   23.03   11.80
   1 -13  10   21.99   12.22
  -1 -13  10   63.76   23.92
  -1  13 -11   18.77   18.22
   1  13 -11   36.67   20.36
  -1  13  11   65.58   20.86
   1  13  11   91.19   31.66
  -1 -13  11   73.50   23.96
   1 -13  11   36.70   25.47
  -1 -13  11   76.50   29.58
  -1  13 -12   47.79   25.77
   1  13 -12    6.29   19.20
  -1  13  12   22.36   11.79
   1  13  12   54.95   18.48
   1 -13  12   30.30   14.78
  -1 -13  12   20.82   14.37
   1 -13  12   25.63   10.71
  -1 -13  12   33.78   12.31
  -1  14   0   23.78   14.71
   1  14   0   47.95   18.09
   1 -14   0   11.34    8.38
   1 -14   0   64.39   25.57
  -1 -14   0  -10.13   17.30
  -1  14  -1    9.91   15.00
  -1  14   1   37.05   14.88
   1  14  -1   10.31   15.37
   1  14   1   53.78   22.43
   1 -14   1   22.97   12.30
   1 -14  -1  -13.97   15.19
   1 -14   1   37.24   14.37
  -1 -14   1   54.98   22.80
  -1 -14  -1   35.72   11.77
  -1  14  -2  -15.44   13.94
   1  14  -2   41.38   18.81
  -1  14   2  -16.59   13.26
   1  14   2   20.08   15.39
   1 -14   2   23.93   10.15
   1 -14  -2   14.28    8.70
   1 -14   2   32.49   11.20
  -1 -14  -2   23.96   10.63
  -1  14  -3   61.82   18.42
   1  14  -3   29.01   17.20
  -1  14   3   58.86   18.16
   1  14   3   50.88   16.82
   1 -14   3   26.20   10.94
   1 -14  -3   62.70   25.48
   1 -14   3   28.63   13.16
  -1 -14   3   55.96   22.91
  -1  14  -4   18.69   16.79
   1  14  -4   10.13   16.14
  -1  14   4   10.77   15.11
   1  14   4   39.89   21.52
   1 -14   4   32.17   16.55
   1 -14  -4   67.79   20.38
   1 -14   4    3.52    8.01
  -1 -14  -4   14.70    7.71
  -1 -14   4   55.82   21.43
  -1  14  -5   18.48   16.05
   1  14  -5   43.91   23.60
  -1  14   5   95.79   26.13
   1  14   5   30.12   16.00
   1 -14   5   12.72   11.38
  -1 -14   5    1.89    8.41
   1 -14  -5   26.73   14.48
   1 -14   5   39.27   13.94
  -1 -14  -5   21.81   17.27
  -1 -14   5   33.48   13.88
  -1  14  -6   50.30   22.62
   1  14  -6   23.30   18.38
  -1  14   6   56.44   22.40
   1  14   6   24.01   14.80
   1 -14   6   41.06   18.11
  -1 -14   6   24.37   10.87
   1 -14  -6   56.56   17.52
   1 -14   6   71.21   26.01
  -1 -14  -6   -0.23   13.12
  -1 -14   6    9.48   10.55
  -1  14  -7   66.12   30.12
   1  14  -7   81.98   30.11
  -1  14   7   21.48   14.39
   1  14   7   67.30   25.76
   1 -14   7   38.77   12.83
  -1 -14   7  101.92   29.29
   1 -14  -7   20.84   14.31
   1 -14   7   26.12   14.86
  -1 -14  -7   40.81   14.78
  -1 -14   7    6.93   20.52
  -1  14  -8   48.61   19.10
   1  14  -8   82.66   25.49
  -1  14   8   11.98   13.76
   1  14   8   45.71   21.97
   1 -14   8   23.13   13.93
  -1 -14   8   23.02   18.00
   1 -14  -8   49.41   13.38
   1 -14   8   13.10   14.22
  -1 -14  -8   35.53   11.00
  -1  14  -9   33.64   19.54
   1  14  -9   29.80   24.60
  -1  14   9   17.00   12.58
   1  14   9   17.71   14.54
   1 -14   9   51.53   21.72
  -1 -14   9   10.03   11.78
   1 -14  -9   22.46   16.31
  -1 -14  -9   51.48   19.00
   1 -14   9   35.10   16.43
  -1 -14   9   27.49   19.89
  -1  14 -10   12.31   19.43
   1  14 -10   67.47   27.94
  -1  14  10    1.68   11.57
   1  14  10   -8.86   14.84
   1 -14  10   -1.60   12.01
  -1 -14  10   10.33   11.62
   1 -14  10   25.39   12.51
  -1 -14  10    5.66   10.06
  -1  14 -11   30.93   20.66
   1  14 -11   48.46   21.78
  -1  14  11   13.48   13.70
   1  14  11   60.69   25.04
   1 -14  11   42.01   15.67
  -1 -14  11   34.33   13.49
   1 -14  11   28.21   11.66
  -1 -14  11   33.41   12.82
  -1  15   0   36.08   16.39
   1  15   0   81.81   26.07
   1 -15   0  111.66   35.58
  -1 -15   0   44.87   14.19
  -1  15  -1   34.28   18.16
   1  15  -1    3.96   17.17
  -1  15   1    7.23   14.51
   1  15   1   35.27   24.35
   1 -15  -1   33.43   13.51
   1 -15   1   14.64   19.43
  -1 -15  -1   52.84   24.54
  -1 -15   1   45.11   24.90
  -1  15  -2   54.25   21.24
   1  15  -2   23.05   18.95
  -1  15   2   -4.47   15.15
   1  15   2   21.61   16.66
   1 -15  -2    9.05   17.06
  -1 -15  -2   42.07   18.13
  -1 -15   2   20.03   16.23
  -1  15  -3   15.89   16.15
   1  15  -3   89.55   32.44
  -1  15   3  105.29   30.57
   1  15   3   37.08   18.27
   1 -15  -3   27.99   12.53
   1 -15   3   25.95   11.16
  -1 -15  -3   44.08   19.60
  -1 -15   3   30.81   13.61
  -1  15  -4   57.97   20.78
   1  15  -4   57.06   30.08
  -1  15   4   12.92   15.13
   1  15   4   18.05   17.38
   1 -15  -4   -9.45   15.25
   1 -15   4   44.54   24.67
  -1 -15  -4   25.63   15.95
  -1 -15   4   30.69   15.86
  -1  15  -5   45.61   19.59
   1  15  -5   69.19   28.83
  -1  15   5   35.42   16.58
   1  15   5   17.36   15.76
   1 -15   5   30.72   11.31
   1 -15  -5    1.97   11.94
   1 -15   5   26.97   12.26
  -1 -15  -5   40.63   19.04
  -1 -15   5   29.25   21.36
  -1  15  -6   68.26   25.16
   1  15  -6   32.31   20.20
  -1  15   6   54.78   23.41
   1  15   6   34.21   20.95
   1 -15   6   31.22   17.05
   1 -15  -6   60.15   20.39
   1 -15   6   40.02   14.87
  -1 -15  -6   22.41   12.34
  -1 -15   6   52.81   25.98
  -1  15  -7   30.47   18.18
   1  15  -7   32.74   20.00
  -1  15   7   56.54   20.35
   1  15   7   65.36   22.70
   1 -15   7   33.90   13.64
   1 -15  -7   27.02   11.77
   1 -15   7   59.40   20.97
  -1 -15  -7    6.52   10.36
  -1 -15   7   58.95   19.31
  -1  15  -8   30.68   18.67
  -1  15   8   17.44   14.35
   1  15   8  -12.50   15.05
   1 -15   8   33.75   13.33
   1 -15  -8   37.63   19.33
   1 -15   8   41.38   14.06
  -1 -15  -8   11.34    7.62
  -1 -15   8   37.63   14.06
  -1  15  -9   20.99   20.19
   1  15  -9   17.87   18.35
  -1  15   9   18.44   14.08
   1  15   9   55.20   18.42
   1 -15   9    6.58   11.38
   1 -15  -9   11.79   11.02
  -1 -15  -9   17.44   11.70
   1 -15   9    7.36   10.55
  -1 -15   9   26.69   18.31
  -1  16   0   68.44   24.14
   1  16   0   51.78   22.67
   1 -16   0  142.83   48.58
  -1 -16   0   98.35   30.22
  -1  16  -1   11.78   17.08
  -1  16   1   76.09   29.35
   1  16  -1   34.67   18.99
   1  16   1   75.43   30.88
   1 -16  -1   69.97   26.62
   1 -16   1   52.88   25.01
  -1 -16  -1   21.08   12.00
  -1 -16   1   27.02   15.66
  -1  16  -2   48.66   22.04
   1  16  -2   31.88   17.32
  -1  16   2   39.35   19.32
   1  16   2   -0.16   15.06
   1 -16  -2   41.65   20.01
   1 -16   2   28.93   14.54
  -1 -16  -2   36.91   19.24
  -1 -16   2   22.04   14.33
  -1  16  -3  110.31   33.14
   1  16  -3   -5.98   15.97
  -1  16   3   42.14   17.72
   1  16   3  100.26   32.73
   1 -16  -3   26.84   13.09
   1 -16   3   41.98   19.62
  -1 -16  -3   38.47   11.71
  -1 -16   3   31.45   15.64
   1  16  -4   38.21   19.14
  -1  16   4   60.40   20.93
   1  16   4   80.64   29.36
   1 -16  -4    6.29   14.47
   1 -16   4    1.37   15.74
  -1 -16  -4   10.64    9.51
  -1 -16   4   51.81   23.06
  -1  16  -5   54.27   20.88
   1  16  -5   39.84   27.20
  -1  16   5   46.89   19.03
   1  16   5  -18.37   14.40
   1 -16  -5   21.71   10.79
   1 -16   5   19.79   10.92
  -1 -16  -5   21.32   12.97
  -1 -16   5   18.65   25.10
  -1  16  -6   27.61   17.42
   1  16  -6   63.59   31.86
  -1  16   6   17.45   14.13
   1  16   6   11.71   15.34
   1 -16  -6    0.98   12.50
   1 -16   6   39.69   13.94
  -1 -16  -6   10.57   12.56
  -1 -16   6   32.60   22.90
   2   0   0 3121.92   48.23
   2   0   0 3475.16   72.17
  -2   0   1  819.60   18.93
   2   0  -1  892.65   16.41
  -2   0  -1  911.90   22.00
   2   0  -1  907.23   24.13
   2   0   1  895.60   22.85
  -2   0  -1  868.81   21.83
  -2   0   1  884.80   24.69
   2   0  -1  880.36   22.84
  -2   0  -2 1866.67   37.36
   2   0   2 1731.30   33.89
   2   0  -2 1768.00   26.83
   2   0  -2 1907.07   38.19
  -2   0   2 1809.10   36.26
   2   0   2 1813.92   37.03
  -2   0   2 1721.08   35.28
   2   0  -2 1766.43   34.60
  -2   0  -3   23.97   10.07
   2   0  -3    2.29    2.73
  -2   0   3   16.80    3.72
   2   0   3  -18.49   11.31
  -2   0  -3   -4.92    9.26
  -2   0   3   10.12    8.53
   2   0  -3   -0.17    7.79
  -2   0  -4  190.13   15.97
   2   0  -4  182.33    8.05
  -2   0   4  191.62    8.74
  -2   0   4  165.87   13.09
   2   0   4  177.87   14.35
  -2   0  -4  176.37   12.39
  -2   0   4  214.91   18.36
  -2   0   4  168.85   10.96
   2   0  -4  174.65   10.22
  -2   0  -5   65.58   15.13
   2   0  -5   29.27    6.26
   2   0   5   45.39   10.42
  -2   0   5   40.30    6.41
  -2   0   5   34.37    7.33
   2   0   5   36.20    7.50
  -2   0  -5   32.69    9.19
  -2   0   5   45.55   18.33
  -2   0   5   42.69    6.78
   2   0  -5   52.82    7.96
   2   0  -6  473.52   19.81
  -2   0   6  506.11   20.46
  -2   0  -6  438.49   21.61
  -2   0   6  430.04   25.80
  -2   0  -6  423.45   17.43
  -2   0   6  480.63   20.09
   2   0  -6  457.28   19.71
  -2   0  -7   38.18   13.66
   2   0  -7   66.70    9.38
  -2   0   7   26.13    6.24
   2   0   7   12.87   10.67
  -2   0   7   42.47   17.26
  -2   0  -7   45.16    6.94
  -2   0   7   33.21    6.76
   2   0  -7   51.30    7.48
  -2   0  -7   46.90    7.26
   2   0  -8  265.56   17.17
  -2   0   8  268.36   16.65
   2   0   8  257.88   20.95
  -2   0   8  331.11   26.66
  -2   0  -8  213.13   29.87
  -2   0   8  245.96   15.61
  -2   0  -8  257.32   13.94
   2   0  -8  280.18   16.03
  -2   0  -9    4.37   11.24
   2   0  -9   27.09   11.51
  -2   0   9    9.57    5.80
   2   0   9    9.32   12.31
  -2   0   9    9.22   12.27
  -2   0  -9    2.10    2.24
  -2   0   9    6.21    6.63
  -2   0  -9   14.83    4.30
  -2   0 -10  341.66   29.77
   2   0 -10  283.10   22.53
   2   0  10  266.42   26.81
  -2   0  10  372.45   36.51
  -2   0  10  243.54   17.38
  -2   0 -10  256.43   15.79
  -2   0 -11   36.44   20.80
   2   0 -11   19.10   12.78
   2   0  11   16.48   13.10
  -2   0  11    6.64   13.50
  -2   0  11   -0.33    3.17
  -2   0 -11    9.72    2.98
  -2   0 -12  299.24   31.15
   2   0 -12  320.99   28.49
   2   0  12  305.47   31.45
  -2   0  12  282.17   28.66
  -2   0  12  267.83   18.81
  -2   0 -13  118.50   23.78
   2   0 -13  143.55   21.46
   2   0  13  130.45   23.97
  -2   0  13  151.80   27.34
  -2   0  13  101.90    9.52
  -2   0 -14  122.84   20.57
   2   0 -14  146.93   20.12
   2   0  14  191.08   32.16
  -2   0  14  184.10   28.18
  -2   0 -15  179.77   34.21
   2   0 -15  151.26   30.73
   2   0  15  196.62   36.29
  -2   0  15  235.54   43.73
   2   0 -16  325.35   36.40
  -2   0 -16  318.63   53.19
   2   0  16  396.24   45.50
  -2   0  16  239.73   44.56
   2   0 -17  173.69   29.62
  -2   0 -17  163.53   28.98
   2   0  17  207.68   35.92
  -2   0  17  179.72   34.28
   2   0 -18   23.70   11.93
  -2   0 -18   -8.53   14.91
   2   0  18   19.32   17.21
  -2   0  18   -9.02   14.83
  -2   0 -19   65.96   27.14
   2   0  19   50.79   24.88
  -2   0  19   22.74   17.75
  -2  -1   0 1582.95   40.55
   2  -1   0 1565.95   27.27
   2   1   0 1676.05   57.28
  -2  -1   0 1629.99   30.90
   2  -1   0 1611.98   34.59
   2   1   0 1538.76   32.29
   2   1  -1 1341.46   25.60
  -2  -1  -1 1354.71   30.98
   2   1   1 1234.88   26.86
  -2   1  -1 1378.96   28.23
  -2   1   1 1305.51   21.43
   2  -1   1 1279.04   26.44
   2  -1  -1 1286.44   20.84
   2   1  -1 1312.07   30.66
  -2   1   1 1225.57   27.69
   2   1   1 1312.74   26.25
   2  -1   1 1264.65   30.35
  -2  -1  -1 1325.90   25.74
  -2   1  -1 1330.29   28.76
  -2  -1   1 1325.01   30.95
   2   1   1 1298.70   28.02
   2   1  -2   81.70    6.72
  -2  -1  -2   59.99    8.78
  -2   1  -2   68.41    9.02
   2  -1   2   71.95   10.10
   2   1  -2   68.89    6.35
  -2  -1   2   70.30   11.09
   2  -1  -2   95.20   20.04
  -2   1   2   85.06   20.02
   2  -1   2   63.51    9.20
  -2  -1  -2   68.84    7.12
  -2   1  -2   56.82    9.06
  -2  -1   2   63.30   11.21
  -2  -1   2   77.20   11.86
   2   1  -2   55.64    7.32
   2   1   2   65.18    8.52
   2  -1  -3  807.07   14.45
  -2  -1  -3  820.62   26.11
   2   1   3  857.40   24.74
  -2   1  -3  756.51   23.51
  -2   1   3  821.14   13.20
   2   1  -3  820.47   19.34
  -2  -1   3  755.69   17.12
  -2  -1   3  784.95   21.78
  -2   1   3  701.39   67.52
   2  -1   3  810.57   25.30
   2   1   3  809.13   21.27
  -2  -1  -3  813.14   20.69
  -2  -1   3  809.99   24.11
  -2  -1   3  789.37   23.51
  -2  -1  -3  784.65   20.81
   2   1  -3  800.21   21.90
   2   1   3  798.94   19.50
   2  -1  -4  327.08    9.57
  -2  -1  -4  333.04   19.16
   2   1   4  323.50   15.86
  -2   1  -4  288.62   19.24
   2  -1   4  309.66   17.11
  -2   1   4  295.66    8.68
   2   1  -4  293.33   12.41
  -2  -1   4  329.28   11.73
  -2   1   4  301.00   51.19
   2  -1   4  280.25   17.64
   2   1   4  295.11   14.88
  -2   1  -4  259.36   16.11
  -2  -1  -4  299.62   15.54
  -2   1   4  272.13   20.04
   2   1  -4  283.08   15.08
  -2   1  -4  253.65   13.55
  -2  -1   4  328.84   15.63
   2   1  -4  309.28   13.90
  -2  -1  -4  303.26   12.17
  -2   1   4  301.65   16.21
   2  -1  -5  576.78   15.23
   2   1   5  536.52   20.98
  -2   1  -5  523.04   23.82
   2  -1   5  552.83   20.87
  -2   1   5  591.47   14.20
   2   1  -5  561.47   17.14
  -2  -1   5  555.38   16.36
  -2   1   5  540.16   20.18
   2  -1   5  536.35   22.88
   2   1   5  558.72   24.09
  -2  -1  -5  624.37   20.82
  -2  -1   5  544.84   24.81
  -2   1   5  555.87   23.59
   2   1  -5  584.43   24.20
  -2   1  -5  541.22   27.48
  -2  -1   5  573.22   20.55
  -2  -1  -5  589.48   16.55
   2   1  -5  579.91   19.09
  -2   1   5  553.83   17.99
  -2  -1  -6   50.87   18.73
   2  -1  -6   55.01    6.55
  -2   1   6   55.92    7.17
   2   1  -6   53.51    8.83
  -2  -1   6   83.35   10.86
   2  -1   6   71.27   17.74
   2   1   6   50.23   10.47
  -2  -1  -6   50.60    9.27
  -2  -1   6   66.29   15.64
  -2   1   6   36.90    9.25
  -2   1  -6   45.12    6.63
  -2  -1   6   77.49    9.00
  -2  -1  -6   52.72    6.74
  -2   1   6   81.39   10.27
   2   1  -6   72.89   10.79
   2  -1  -7  738.15   27.48
  -2   1  -7  741.96   34.96
   2   1  -7  805.56   30.14
  -2   1   7  848.56   29.84
  -2  -1   7  720.15   28.48
   2  -1   7  836.07   36.84
   2   1   7  784.67   32.78
  -2  -1  -7  770.73   32.18
  -2   1   7  843.54   38.41
  -2   1  -7  763.36   34.25
  -2  -1   7  785.96   29.77
  -2   1   7  748.61   27.88
  -2  -1  -7  765.15   25.26
   2   1  -7  810.68   30.59
  -2  -1  -8   35.78   16.92
   2  -1  -8   31.35    7.19
   2   1  -8   11.89   12.27
  -2   1   8   19.43    5.82
  -2  -1   8   11.60    6.03
   2  -1   8   43.70   19.69
   2   1   8    1.20    9.41
  -2  -1   8   22.89   14.34
  -2   1   8   64.52   19.96
  -2  -1  -8   10.92    4.35
  -2   1  -8    6.30    5.92
  -2  -1   8   26.83    8.35
  -2   1   8   30.56    7.20
  -2  -1  -8   12.66    3.60
   2   1  -8   21.13    8.28
  -2  -1  -9  259.36   25.18
   2  -1  -9  195.76   16.77
  -2   1  -9  315.03   28.46
   2   1  -9  250.78   21.79
  -2   1   9  233.18   17.32
   2  -1   9  269.09   29.73
   2   1   9  294.39   25.41
  -2  -1   9  310.59   28.42
  -2   1   9  301.39   27.24
  -2   1  -9  196.24   28.03
  -2  -1   9  297.69   21.85
  -2   1   9  233.59   16.38
  -2  -1  -9  232.38   14.06
   2   1  -9  232.44   17.41
  -2  -1 -10   11.68   13.16
   2  -1 -10   43.71   13.29
  -2   1 -10   20.07   18.22
   2   1 -10    9.46    9.30
   2  -1  10    4.01   12.82
   2   1  10   44.67   17.52
  -2  -1  10   55.23   18.76
  -2   1  10    8.45   10.64
  -2   1 -10   19.34    5.71
  -2  -1  10   19.99    7.50
  -2  -1 -10    7.17    1.92
  -2   1  10   22.25    7.28
   2   1 -10   24.43    9.47
  -2  -1 -11  290.41   26.17
   2  -1 -11  269.88   21.03
  -2   1 -11  284.41   28.46
   2   1 -11  279.11   21.97
   2  -1  11  280.16   27.47
   2   1  11  234.77   22.02
  -2  -1  11  300.52   30.68
  -2   1  11  372.00   30.58
  -2   1 -11  243.70   13.91
  -2  -1  11  253.40   17.38
  -2   1  11  290.81   16.65
   2   1 -11  244.05   15.92
  -2  -1 -12   60.91   18.97
   2  -1 -12   58.63   15.84
  -2   1 -12   60.88   20.52
   2   1 -12   51.60   16.94
   2  -1  12   93.74   28.25
   2   1  12  105.30   27.50
  -2  -1  12   65.66   23.82
  -2   1  12   38.22   17.52
  -2  -1  12   47.03   12.43
  -2   1  12   47.79    9.91
  -2   1 -12   54.64   10.75
  -2   1 -12   44.33    9.29
   2   1 -12   36.26    9.34
  -2  -1 -13  135.25   26.18
   2  -1 -13   90.22   20.67
  -2   1 -13   87.65   24.00
   2   1 -13   67.99   16.60
   2  -1  13  130.46   24.17
   2   1  13   92.15   25.93
  -2  -1  13   25.00   15.78
  -2   1  13   86.08   19.86
  -2   1  13   65.07   10.27
  -2  -1  13   47.61    9.91
  -2   1 -13   50.10    8.08
  -2  -1 -14   15.60   13.56
   2  -1 -14   29.12   10.65
  -2   1 -14   30.13   14.83
   2   1 -14   65.89   19.21
   2  -1  14   15.89   15.53
   2   1  14   31.10   15.88
  -2  -1  14   23.07   17.17
  -2   1  14    6.03   15.45
   2  -1 -15   89.13   19.51
  -2  -1 -15  101.98   25.14
  -2   1 -15   88.27   22.42
   2   1 -15   59.32   17.92
   2  -1  15   57.56   24.79
   2   1  15  123.98   27.63
  -2  -1  15  178.27   39.92
  -2   1  15  120.93   29.11
  -2  -1 -16    5.78   14.88
   2  -1 -16    8.01   10.14
  -2   1 -16   62.73   24.07
   2   1 -16    9.44   11.17
   2  -1  16   48.94   17.74
   2   1  16   26.09   13.71
  -2  -1  16   42.01   17.45
  -2   1  16   52.64   22.36
   2  -1 -17   80.87   19.26
  -2  -1 -17   48.81   18.90
  -2   1 -17   12.45   13.71
   2   1 -17   38.91   13.52
   2  -1  17   71.44   24.49
   2   1  17   28.70   17.55
  -2  -1  17   84.92   29.04
  -2   1  17   35.28   17.20
   2  -1 -18   26.94   11.90
  -2  -1 -18   13.98   16.40
   2   1 -18   66.63   22.75
  -2   1 -18   41.98   25.26
   2  -1  18   24.95   16.52
   2   1  18   81.63   30.12
  -2  -1  18   37.82   27.12
  -2   1  18   18.41   17.86
  -2  -1 -19   32.33   17.85
  -2   1 -19   79.22   25.90
   2   1 -19   40.22   17.98
   2   1  19   61.57   26.36
   2  -1  19   66.21   27.94
  -2  -1  19   78.67   32.53
  -2   1  19   90.35   31.42
  -2  -2   0 3517.30   70.67
   2  -2   0 3320.21   52.67
   2   2   0 3428.01   59.55
  -2  -2   0 3296.92   51.41
  -2   2   0 3277.84   56.29
  -2  -2   0 3569.98   63.01
   2   2   0 3352.01   57.43
  -2  -2   1 1357.10   28.77
   2   2  -1 1421.17   44.26
  -2  -2  -1 1446.95   33.20
   2   2   1 1409.70   35.30
  -2   2  -1 1417.03   29.99
   2  -2   1 1454.44   29.56
  -2   2   1 1504.59   26.56
   2  -2  -1 1440.46   25.16
  -2  -2   1 1471.23   56.22
   2  -2  -1 1456.71   32.84
   2   2   1 1479.65   27.15
  -2   2   1 1425.18   31.04
  -2  -2  -1 1462.17   25.76
  -2   2  -1 1392.44   31.23
  -2  -2   1 1464.10   28.98
  -2   2  -1 1405.69   33.34
  -2  -2   1 1430.91   33.63
  -2  -2  -1 1476.78   32.71
   2   2   1 1444.64   30.99
   2   2  -2   52.89    6.57
  -2   2   2   48.98    7.27
  -2  -2  -2   37.62   10.95
  -2   2  -2   52.44   10.02
  -2   2   2   40.75    4.17
  -2  -2   2   52.48    8.89
  -2   2   2   33.79    8.05
   2   2   2   51.12    7.22
   2  -2   2   28.10   13.03
  -2   2  -2   31.30   14.25
  -2  -2  -2   39.61    4.50
  -2  -2   2   67.35   10.33
  -2   2  -2   38.03    8.81
  -2  -2   2   64.87    9.97
  -2  -2  -2   45.92   10.94
   2   2   2   16.68    8.98
  -2  -2  -3  994.17   79.97
  -2   2   3  876.16   19.24
  -2   2  -3  897.24   28.15
   2  -2   3  860.97   24.72
   2   2  -3  936.68   23.53
  -2  -2   3  889.42   21.99
  -2   2   3  923.16   17.27
  -2   2   3  911.75   73.67
   2   2   3  839.70   19.48
   2  -2   3  893.28   28.20
  -2  -2  -3  838.05   19.01
  -2  -2   3  905.76   26.31
  -2   2  -3  847.80   38.23
  -2  -2   3  932.44   28.29
  -2  -2  -3  853.91   23.06
   2   2  -3  821.23   23.03
   2   2   3  887.17   21.89
   2  -2  -4  239.49   26.88
  -2  -2  -4  179.01   15.26
   2   2   4  193.99   13.90
  -2   2   4  202.46    8.58
  -2   2  -4  193.79   16.01
   2   2  -4  186.48   12.33
  -2  -2   4  205.56   11.41
   2  -2  -4  199.02   18.32
  -2   2   4  192.80   27.28
   2  -2   4  202.82   16.92
   2   2   4  175.51   12.32
  -2  -2  -4  206.53   10.40
   2   2  -4  177.42   12.95
  -2   2  -4  182.51   20.03
  -2  -2   4  219.74   14.23
  -2  -2  -4  197.49   11.27
   2   2  -4  206.88   15.36
   2   2   4  234.97   11.06
   2  -2  -5  148.73   19.16
   2   2   5  137.99   14.03
  -2   2   5  150.28    8.76
  -2   2  -5  145.39   15.57
   2   2  -5  176.52   15.27
  -2  -2   5  173.19   11.61
  -2   2   5  118.94   28.01
   2  -2   5  165.98   17.46
   2   2   5  135.80   15.64
  -2   2  -5  134.38   15.23
  -2  -2  -5  117.24   11.20
  -2  -2   5  158.54   17.59
   2   2  -5  115.01   10.80
  -2   2   5  135.59   15.76
  -2   2  -5  148.69   16.35
  -2  -2   5  158.66   13.34
  -2  -2  -5  143.01    9.96
   2   2  -5  124.49   11.94
   2   2   5  161.61   10.00
   2  -2  -6  610.93   23.75
  -2   2   6  593.39   21.83
  -2   2  -6  505.76   27.66
   2   2  -6  618.39   26.52
  -2  -2   6  575.92   23.40
   2  -2   6  590.49   30.05
   2   2   6  553.26   24.50
  -2  -2  -6  644.95   27.17
  -2  -2   6  623.75   30.80
  -2   2   6  581.74   27.91
  -2   2  -6  483.91   47.62
  -2  -2   6  623.71   25.94
  -2  -2  -6  632.72   23.24
   2   2  -6  605.53   25.05
  -2   2   6  588.86   23.12
   2  -2  -7  604.89   29.32
  -2   2  -7  547.21   34.93
  -2   2   7  562.49   26.99
   2   2  -7  540.79   29.29
  -2  -2   7  500.94   26.41
   2  -2   7  554.68   32.08
   2   2   7  679.86   35.28
  -2  -2  -7  657.77   34.26
  -2  -2   7  598.80   33.97
  -2   2   7  570.77   33.77
  -2   2  -7  517.53   30.85
  -2  -2   7  570.47   29.14
  -2  -2  -7  616.23   27.68
   2   2  -7  556.06   27.72
  -2   2   7  567.59   27.35
   2  -2  -8  149.56   13.64
  -2  -2  -8   99.79   16.63
  -2   2  -8  161.87   20.14
  -2   2   8  116.74    9.96
   2   2  -8  136.12   12.43
  -2  -2   8   94.46   10.47
   2  -2   8  117.59   20.35
   2   2   8  119.65   13.64
  -2  -2   8  106.52   18.95
  -2   2   8  131.88   19.07
  -2   2  -8   81.55   11.61
  -2  -2   8  132.87   13.76
  -2  -2  -8  117.02    8.04
   2   2  -8  130.61   12.17
  -2   2   8  128.55   10.34
   2  -2  -9   71.19   11.12
  -2  -2  -9   76.75   17.96
   2   2  -9   74.49   14.34
  -2   2   9   92.53   11.55
   2  -2   9   61.42   12.58
   2   2   9  112.35   16.12
  -2  -2   9   77.09   20.70
  -2   2   9   87.37   16.30
  -2   2  -9   42.86   10.49
  -2  -2  -9   62.33    5.25
  -2  -2   9   66.39   10.75
  -2   2   9   81.55    9.66
   2   2  -9   69.31   10.43
   2  -2 -10  224.31   20.12
  -2  -2 -10  247.69   25.15
  -2   2 -10  243.93   24.91
   2   2 -10  219.00   19.83
   2  -2  10  270.16   28.10
   2   2  10  206.18   19.86
  -2  -2  10  219.76   23.78
  -2   2  10  157.35   21.45
  -2   2  10  217.21   14.43
  -2   2 -10  220.61   16.82
  -2  -2  10  288.34   22.74
  -2   2  10  248.32   16.53
   2   2 -10  188.71   16.19
   2  -2 -11   44.85   12.40
  -2  -2 -11   26.51   12.75
  -2   2 -11   47.61   14.98
   2   2 -11   58.09   15.68
   2  -2  11   55.56   17.51
   2   2  11   53.96   16.53
  -2  -2  11   41.70   14.93
  -2   2  11   51.47   14.04
  -2   2  11   34.68    6.67
  -2   2 -11   62.51   11.15
  -2  -2  11   40.87    9.53
  -2   2  11   59.75   10.29
   2   2 -11   26.45    8.22
   2  -2 -12  108.99   22.91
  -2  -2 -12  122.61   29.55
  -2   2 -12  111.54   27.42
   2   2 -12   93.18   23.73
   2  -2  12  115.03   31.50
   2   2  12  147.04   21.49
  -2  -2  12  115.31   28.93
  -2   2  12  109.83   25.33
  -2   2  12   61.63   14.00
  -2  -2  12   90.38   18.38
  -2   2 -12   78.19   15.35
  -2   2  12   99.77   18.18
   2   2 -12   95.79   19.43
   2  -2 -13  163.14   19.79
  -2  -2 -13  238.89   31.26
  -2   2 -13  139.72   23.83
   2   2 -13  168.48   20.05
   2  -2  13  219.81   25.75
   2   2  13  166.34   22.87
  -2  -2  13  259.68   34.98
  -2   2  13  268.74   31.49
   2  -2 -14   34.52   14.74
  -2  -2 -14   31.01   15.57
  -2   2 -14    6.02   15.23
   2   2 -14   25.18   12.46
   2  -2  14   19.23   21.49
   2   2  14   30.25   14.65
  -2  -2  14   33.96   18.27
  -2   2  14   36.97   16.30
  -2  -2  14   11.08    5.20
   2  -2 -15   36.41   15.14
  -2  -2 -15   60.35   23.42
  -2   2 -15   11.56   13.06
   2   2 -15   11.87   11.74
   2  -2  15   23.62   23.18
   2   2  15    2.00   13.93
  -2  -2  15   30.85   18.49
  -2   2  15   50.07   24.96
   2  -2 -16  301.59   22.90
  -2  -2 -16  227.46   40.63
  -2   2 -16  288.56   44.87
   2   2 -16  329.96   26.36
   2  -2  16  309.04   31.15
   2   2  16  237.32   37.10
  -2  -2  16  309.12   28.49
  -2   2  16  335.01   34.38
   2  -2 -17  189.29   25.58
  -2  -2 -17  218.24   30.26
  -2   2 -17  138.27   34.94
   2   2 -17  198.33   26.56
   2  -2  17  114.76   32.74
   2   2  17  225.94   28.45
  -2  -2  17  176.02   44.22
  -2   2  17  251.84   36.63
   2  -2 -18   27.19   15.65
  -2  -2 -18   52.70   23.45
  -2   2 -18   47.66   20.54
   2   2 -18   13.43   12.84
   2  -2  18   39.67   19.20
   2   2  18   16.18   14.68
  -2  -2  18   47.39   27.36
  -2   2  18   27.09   16.30
  -2  -2 -19   86.01   27.61
  -2   2 -19   26.25   19.80
   2   2 -19   38.41   17.59
   2  -2  19   30.38   27.75
   2   2  19   63.74   25.41
  -2  -2  19   21.57   18.07
  -2   2  19   80.16   27.87
  -2  -3   0 2398.00   51.12
  -2   3   0 2411.20   43.59
   2  -3   0 2282.06   40.91
  -2  -3   0 2525.29   64.94
   2  -3   0 2338.47   45.45
  -2   3   0 2262.06   43.92
  -2  -3   0 2325.33   37.67
  -2   3   0 2326.14   47.35
  -2  -3   0 2265.77   45.38
   2   3   0 2398.21   46.61
   2   3  -1  958.11   24.59
  -2  -3  -1 1014.20   29.00
   2  -3   1 1029.60   25.61
  -2   3   1  994.32   22.28
   2  -3  -1  978.97   21.56
  -2  -3   1  994.71   21.87
   2   3   1 1006.40   19.09
   2  -3  -1  982.57   29.57
  -2   3   1 1029.00   26.37
  -2  -3  -1  988.29   17.37
  -2   3  -1  946.09   25.63
  -2  -3   1 1002.06   22.40
  -2   3   1  979.60   26.05
  -2  -3  -1 1032.03   29.29
   2   3   1  969.95   25.91
   2   3  -2  447.86   16.35
  -2   3   2  438.32   13.66
  -2  -3  -2  619.82   55.79
   2   3   2  468.88   33.90
  -2   3  -2  460.47   20.10
   2  -3   2  445.77   17.71
  -2   3   2  447.91   13.18
   2   3  -2  487.31   18.79
  -2   3   2  449.13   17.50
   2   3   2  452.87   11.10
   2  -3   2  458.28   23.98
  -2   3  -2  469.08   18.57
  -2  -3  -2  478.77   10.64
  -2  -3   2  403.02   15.01
   2   3  -2  454.45   16.40
   2  -3   2  433.45   21.82
  -2   3  -2  411.60   58.65
  -2  -3   2  443.85   20.73
  -2  -3  -2  455.92   18.12
   2   3   2  416.18   15.81
  -2   3   3  172.97   16.04
  -2  -3  -3  205.25   42.72
   2   3   3  139.68   12.35
  -2   3  -3  177.77   16.63
   2   3  -3  178.56   13.32
  -2   3   3  146.46    8.62
  -2  -3   3  165.92   11.09
   2   3   3  156.65    7.35
   2  -3   3  166.73   15.84
  -2   3  -3  178.87   13.98
  -2  -3  -3  168.02    7.27
  -2  -3   3  146.33   13.07
   2   3  -3  146.56   10.73
   2  -3   3  181.79   16.55
  -2   3   3  196.81   11.68
  -2   3  -3  153.69   20.00
  -2  -3   3  141.70   15.52
  -2  -3  -3  149.18   12.86
   2   3   3  163.38   10.26
   2  -3  -4 1137.97   36.04
  -2   3   4 1157.33   36.45
   2   3   4 1104.38   39.95
  -2   3  -4 1169.22   44.45
   2   3  -4 1213.71   42.24
  -2  -3   4 1182.02   40.40
   2  -3  -4 1242.50   43.75
  -2   3   4 1167.65   40.71
   2   3   4 1176.91   37.90
  -2   3  -4 1210.76   43.49
  -2  -3  -4 1194.66   37.29
  -2  -3   4 1172.46   42.67
   2   3  -4 1138.77   40.11
   2  -3   4 1156.49   41.26
  -2   3   4 1179.84   39.74
  -2   3  -4 1200.70   77.32
  -2  -3  -4 1211.78   40.14
   2   3  -4 1169.76   41.60
   2   3   4 1131.87   37.46
   2  -3  -5 1404.83   50.62
  -2  -3  -5 1476.61   52.94
  -2   3   5 1415.38   43.83
  -2   3  -5 1571.55   56.32
   2   3  -5 1417.96   48.44
  -2  -3   5 1368.11   46.06
  -2   3   5 1439.54   49.08
   2  -3   5 1532.98   55.49
   2   3   5 1444.08   46.00
  -2  -3  -5 1460.68   45.66
  -2  -3   5 1455.32   51.82
   2   3  -5 1423.23   49.06
   2  -3   5 1529.50   51.53
  -2   3   5 1432.56   45.89
  -2   3  -5 1420.72   84.60
  -2  -3   5 1459.15   50.31
  -2  -3  -5 1437.13   46.10
   2   3  -5 1422.04   48.33
   2   3   5 1453.55   45.65
   2  -3  -6 1456.79   46.66
  -2   3   6 1378.22   43.63
  -2   3  -6 1409.79   53.44
   2   3  -6 1426.59   51.08
  -2  -3   6 1344.24   46.46
   2  -3   6 1299.41   49.39
   2   3   6 1493.27   49.39
  -2  -3   6 1444.32   52.56
  -2  -3  -6 1366.02   45.01
  -2   3   6 1470.69   52.50
   2  -3   6 1489.03   50.35
  -2   3   6 1364.41   43.92
  -2   3  -6 1299.11   73.66
  -2  -3   6 1387.46   49.30
  -2  -3  -6 1374.08   43.81
   2   3  -6 1338.41   46.70
   2   3   6 1371.62   42.86
   2  -3  -7  118.00   24.66
  -2  -3  -7  106.61   15.79
  -2   3   7  100.39    9.28
  -2   3  -7  106.53   18.28
   2   3  -7   75.97   12.40
  -2  -3   7   89.58   12.18
   2  -3   7  131.00   16.48
   2   3   7  145.97   19.08
  -2  -3   7   85.63   16.47
  -2  -3  -7   97.81   10.71
  -2   3   7  119.22   16.80
   2  -3   7  118.77   12.52
  -2   3   7   82.75   15.65
  -2   3  -7   70.79   11.46
  -2  -3   7  108.78   16.39
  -2  -3  -7  132.49   10.09
   2   3  -7   93.79   12.56
   2   3   7  100.96    8.83
   2  -3  -8   72.61   14.80
  -2  -3  -8   82.24   19.15
  -2   3  -8   78.71   17.87
   2   3  -8   77.72   12.96
   2  -3   8   70.68   15.90
   2   3   8   54.03    9.92
  -2  -3   8   59.08   17.54
  -2  -3  -8   44.73    9.49
  -2   3   8   46.39   13.28
  -2   3   8   52.07   10.45
  -2   3  -8   45.92    9.73
  -2  -3  -8   71.11    8.03
  -2  -3   8   57.37    9.77
   2   3  -8   65.93    9.01
  -2   3   8   60.07    8.41
   2  -3  -9   38.45   10.94
  -2  -3  -9   31.47   13.72
  -2   3   9   27.32    7.44
  -2   3  -9   36.71   13.92
   2   3  -9    5.78    9.56
   2  -3   9   40.74   17.16
   2   3   9   46.74   12.81
  -2  -3   9   13.06   14.03
  -2   3   9   38.63   13.94
  -2   3   9   21.83    7.36
  -2   3  -9   26.82    7.23
  -2  -3  -9   15.85    4.22
  -2  -3   9   22.39   10.15
  -2   3   9   41.57    8.81
   2  -3 -10  259.41   32.90
  -2  -3 -10  174.87   21.65
  -2   3 -10  291.13   32.10
   2   3 -10  258.13   22.58
   2  -3  10  274.33   29.30
   2   3  10  234.15   22.23
  -2   3  10  223.97   26.48
  -2   3  10  161.58   17.28
  -2   3 -10  187.34   16.18
  -2  -3  10  238.19   20.00
  -2   3  10  224.50   16.00
   2  -3 -11  200.25   18.44
  -2  -3 -11  257.46   27.60
  -2   3 -11  263.82   28.32
   2   3 -11  263.73   25.75
   2  -3  11  262.84   28.35
   2   3  11  285.44   28.92
  -2  -3  11  287.07   30.44
  -2   3  11  249.03   31.35
  -2   3  11  188.15   19.13
  -2  -3  11  214.16   18.97
  -2   3 -11  188.60   16.68
  -2   3  11  238.17   16.63
   2  -3 -12  138.98   25.65
  -2  -3 -12   82.82   22.12
  -2   3 -12  124.83   27.95
   2   3 -12   93.85   21.91
   2  -3  12  160.01   30.48
   2   3  12  116.63   25.89
  -2  -3  12  127.80   30.45
  -2   3  12  118.75   28.78
  -2   3  12   62.84   15.67
  -2  -3  12   88.54   18.79
  -2   3 -12   68.42   14.38
  -2   3  12  102.24   17.71
   2  -3 -13  124.33   16.34
  -2  -3 -13  140.80   18.80
  -2   3 -13  128.13   23.32
   2   3 -13  157.41   21.56
   2  -3  13  173.56   25.03
   2   3  13  139.44   22.81
  -2  -3  13  161.81   27.08
  -2   3  13  100.60   21.89
  -2  -3  13  139.24   17.14
   2  -3 -14  196.69   27.89
  -2  -3 -14  202.14   30.13
  -2   3 -14  235.46   35.37
   2   3 -14  254.87   32.95
   2  -3  14  129.06   25.42
   2   3  14  221.95   30.68
  -2  -3  14  183.97   35.25
  -2   3  14  287.42   39.70
  -2  -3  14  131.73   30.83
   2  -3 -15   91.05   19.72
  -2  -3 -15   21.47   14.82
  -2   3 -15   37.79   17.05
   2   3 -15   41.03   13.20
   2  -3  15   53.66   23.64
   2   3  15   39.36   14.21
  -2  -3  15   70.38   21.94
  -2   3  15   28.83   16.41
   2  -3 -16   83.91   23.54
  -2  -3 -16   30.08   15.47
  -2   3 -16  113.22   26.34
   2   3 -16   95.74   20.93
   2  -3  16   58.27   25.89
   2   3  16   94.10   21.94
  -2  -3  16  103.78   26.41
  -2   3  16   43.54   16.67
   2  -3 -17   77.02   23.09
  -2  -3 -17  142.82   32.95
  -2   3 -17  112.29   31.59
   2   3 -17   67.62   20.01
   2  -3  17  185.40   44.55
   2   3  17  193.68   27.06
  -2  -3  17  112.81   36.17
  -2   3  17  154.67   36.41
  -2  -3 -18  171.72   48.03
  -2   3 -18  121.00   37.41
   2   3 -18  116.10   37.43
   2  -3  18  159.82   45.91
   2   3  18  143.93   38.10
  -2  -3  18   96.92   37.90
  -2   3  18   36.23   18.00
  -2  -3 -19   49.02   18.23
  -2   3 -19   40.01   20.62
   2   3 -19   31.96   13.97
   2  -3  19  112.31   31.22
   2   3  19   91.92   27.36
  -2  -3  19   46.23   21.58
  -2   3  19  118.40   32.85
  -2  -4   0  407.36   20.25
   2   4   0  367.36   37.88
  -2   4   0  380.36   17.05
   2  -4   0  399.05   15.62
  -2  -4   0  406.27   26.37
   2  -4   0  435.74   19.74
  -2  -4   0  380.52   10.72
   2  -4   0  388.20   20.12
  -2   4   0  316.31   50.54
   2   4   0  347.82   18.04
  -2  -4  -1  676.20   24.07
   2  -4   1  643.01   22.95
   2  -4  -1  608.00   18.17
   2  -4  -1  665.35   41.87
  -2   4   1  641.41   20.71
  -2  -4  -1  640.25   11.16
  -2  -4   1  656.82   17.16
   2   4  -1  648.68   16.13
   2  -4  -1  692.47   24.99
   2  -4   1  770.05   87.92
  -2   4   1  644.47   21.71
  -2  -4   1  673.41   26.00
   2   4  -1  676.26   23.95
   2   4   1  582.26   20.47
   2   4  -2  163.91   12.50
  -2   4   2  152.35    9.82
  -2  -4  -2  218.70   44.14
  -2   4  -2  163.89   15.31
   2  -4   2  123.15   11.16
  -2   4   2  164.34    9.62
   2   4  -2  149.47   13.63
   2  -4  -2  191.93   39.40
  -2   4   2  153.07   11.15
   2  -4   2  155.43   14.38
  -2   4  -2  170.56   12.94
  -2  -4   2  142.55   12.12
   2   4  -2  132.39    9.17
   2  -4   2  207.16   39.65
  -2   4   2  145.84   31.43
  -2  -4  -2  130.83   12.02
  -2  -4   2  160.19   17.34
   2   4  -2  185.63   15.33
   2   4   2  152.62   12.26
  -2   4   3  105.89   20.15
  -2  -4  -3   95.16   18.20
   2   4   3   56.97   11.36
  -2   4  -3  122.42   16.73
   2  -4   3   60.67   10.60
   2   4  -3   90.81   12.35
  -2   4   3   77.12    8.76
  -2  -4   3   61.53    8.21
   2  -4  -3   86.78   15.11
  -2   4   3   84.60   14.47
   2   4   3   88.48    5.38
   2  -4   3   86.93   14.70
  -2   4  -3   95.37   11.43
  -2  -4   3   95.85   10.15
   2   4  -3   98.94    9.73
   2  -4   3  105.28   17.61
  -2   4   3  104.16   22.18
  -2   4  -3   79.65   15.80
  -2  -4   3   53.94   13.92
  -2  -4  -3  102.94   14.87
   2   4  -3   99.23   12.80
   2   4   3   99.83   10.46
  -2   4   4 1781.05   60.23
  -2   4  -4 1865.61   63.64
   2   4  -4 1921.08   63.67
  -2  -4   4 1793.39   58.35
  -2   4   4 1894.81   58.20
   2  -4  -4 1879.19   64.74
  -2   4   4 1799.41   58.20
   2   4   4 1849.26   54.40
  -2  -4   4 1849.83   60.87
  -2  -4  -4 1837.30   53.85
   2   4  -4 1836.16   59.12
  -2   4   4 1751.69   55.57
  -2   4  -4 1896.13   62.27
  -2  -4   4 1821.50   61.98
  -2  -4  -4 1898.31   60.98
   2   4   4 1863.74   58.77
   2  -4  -5  108.28   18.59
  -2  -4  -5  136.85   27.15
  -2   4  -5  165.54   17.50
   2   4  -5  122.15   13.86
  -2  -4   5  119.16   13.15
   2  -4  -5   90.90   12.34
  -2   4   5   85.12   22.02
   2  -4   5  119.61   15.79
   2   4   5  127.78   10.49
  -2  -4   5  136.76   15.14
  -2  -4  -5  115.12    8.19
   2  -4   5  117.79   20.51
  -2   4   5   87.39   20.22
  -2   4  -5  125.89   22.24
  -2  -4  -5  101.51   11.31
  -2  -4   5   87.11   13.51
   2   4   5  135.92   10.21
   2  -4  -6   16.78    6.67
  -2   4   6   32.32    8.94
  -2   4  -6   29.84   13.67
   2   4  -6   -3.48    9.89
   2  -4   6   25.01   12.80
   2   4   6    7.39    6.36
  -2  -4   6    8.89   11.70
  -2  -4  -6    7.02    4.72
  -2   4   6   32.65   10.58
   2  -4   6    3.56    5.55
  -2   4   6    4.55    4.05
  -2   4  -6   -2.30    7.16
  -2  -4  -6   24.47    9.69
  -2  -4   6   23.00   10.09
   2   4   6    5.12    5.91
   2  -4  -7  299.22   45.82
  -2  -4  -7  273.45   51.30
  -2   4   7  277.45   16.37
  -2   4  -7  205.64   22.93
   2   4  -7  284.87   20.76
   2  -4   7  277.00   26.18
   2   4   7  325.88   19.11
  -2  -4   7  282.14   25.89
  -2  -4  -7  306.29   17.85
  -2   4   7  331.16   23.59
   2  -4   7  317.00   45.02
  -2   4   7  246.17   31.14
  -2  -4  -7  285.88   17.01
  -2  -4   7  318.44   22.65
   2   4   7  267.27   15.11
   2  -4  -8  508.96   65.06
  -2  -4  -8  484.88   91.50
  -2   4   8  469.80   30.18
  -2   4  -8  539.84   40.00
   2   4  -8  575.82   39.21
   2  -4   8  514.35   39.35
   2   4   8  474.46   31.86
  -2  -4   8  430.33   33.45
  -2  -4  -8  429.92   28.42
  -2   4   8  457.22   34.05
   2  -4   8  499.17   32.93
  -2   4   8  460.22   39.85
  -2  -4  -8  518.23   31.37
  -2  -4   8  447.35   31.09
   2   4   8  505.51   29.82
   2  -4  -9   91.93   16.40
  -2  -4  -9  125.56   28.27
  -2   4   9   83.42   15.07
  -2   4  -9   83.79   21.99
   2   4  -9   89.08   20.43
   2  -4   9  125.68   19.56
   2   4   9  138.51   14.70
  -2  -4   9  100.93   20.08
  -2   4   9  180.31   20.91
   2  -4   9   88.19   17.67
  -2   4   9   71.90   19.88
  -2  -4  -9  126.11   10.04
  -2  -4   9  133.16   15.27
   2   4   9   89.77   14.73
  -2   4   9  102.97   10.97
   2  -4 -10  339.28   39.65
  -2  -4 -10  428.45   79.77
   2   4 -10  379.13   30.72
   2  -4  10  350.21   31.94
   2   4  10  393.26   28.05
  -2  -4  10  358.78   29.30
  -2   4  10  339.38   26.73
   2  -4  10  373.57   24.88
  -2   4  10  341.88   26.84
  -2  -4 -10  361.04   22.05
  -2  -4  10  380.99   27.14
  -2   4  10  313.75   18.04
   2  -4 -11  467.67   77.58
  -2  -4 -11  585.91   46.63
  -2   4 -11  488.37   39.90
   2   4 -11  628.96   46.64
   2  -4  11  516.59   43.61
   2   4  11  537.49   39.59
  -2  -4  11  551.75   46.00
  -2   4  11  458.11   37.53
  -2  -4  11  426.70   31.50
  -2   4  11  508.95   32.12
   2  -4 -12   50.35   12.95
  -2  -4 -12   75.49   21.14
  -2   4 -12   30.25   14.75
   2   4 -12   31.16   14.39
   2  -4  12   39.29   18.59
   2   4  12   38.21   16.80
  -2  -4  12   56.51   16.87
  -2   4  12   37.07   15.55
  -2  -4  12   28.47   10.96
  -2   4  12   33.62    7.59
   2  -4 -13  176.25   31.95
  -2  -4 -13  171.02   23.42
  -2   4 -13  173.70   25.50
   2   4 -13  115.38   19.28
   2  -4  13  189.21   30.59
   2   4  13  264.53   30.50
  -2   4  13  203.03   25.84
  -2  -4  13  172.12   37.60
   2  -4 -14   21.01    8.90
  -2  -4 -14   45.96   16.83
  -2   4 -14   54.14   25.24
   2   4 -14   18.38   12.55
   2  -4  14   21.55   23.41
   2   4  14    8.46   11.09
  -2  -4  14   27.14   17.41
  -2   4  14   41.98   22.18
  -2  -4  14    9.26    8.40
   2  -4 -15   56.39   19.25
  -2  -4 -15   99.64   24.99
  -2   4 -15   37.68   22.04
   2   4 -15  115.30   27.43
   2  -4  15   38.23   19.68
   2   4  15   98.71   21.59
  -2   4  15   60.50   21.73
   2  -4 -16   72.31   16.79
  -2  -4 -16   99.59   25.03
  -2   4 -16  108.07   33.24
   2   4 -16   37.83   17.88
   2  -4  16   86.30   27.28
   2   4  16   55.51   20.02
  -2  -4  16   45.61   18.27
  -2   4  16   53.99   18.15
   2  -4 -17   15.89    5.10
  -2  -4 -17    8.46   16.82
  -2   4 -17   58.78   25.53
   2   4 -17   19.36   13.47
   2  -4  17   41.75   19.08
   2   4  17    5.00   11.57
  -2  -4  17   30.75   17.32
  -2   4  17   24.62   16.07
  -2  -4 -18   27.94   11.05
  -2   4 -18   41.42   18.97
   2   4 -18    8.59   12.22
   2  -4  18   20.71   19.17
   2   4  18   54.52   24.62
  -2  -4  18   31.44   18.67
  -2   4  18   63.78   23.46
  -2  -4 -19   12.48   12.86
  -2   4 -19   -4.71   18.18
   2   4 -19   24.05   13.88
   2  -4  19   59.15   23.71
   2   4  19   18.98   14.79
  -2  -4  19   29.37   21.69
  -2   4  19    8.05   16.33
  -2   5   0  108.27   12.58
   2  -5   0   98.56   12.05
  -2  -5   0   86.12    5.78
   2  -5   0  141.15   20.12
  -2   5   0   91.17   10.56
  -2  -5   0   87.15    6.08
   2  -5   0   91.68   19.15
  -2  -5   0   85.04   14.28
  -2  -5  -1  929.74   36.95
  -2   5  -1  892.84   35.66
  -2   5   1  928.19   34.52
   2   5  -1  817.64   35.03
   2  -5  -1  804.83   30.26
   2  -5  -1  833.82   33.06
   2  -5   1  770.02   32.07
  -2   5   1  816.53   30.95
  -2   5  -1  778.23   31.06
  -2  -5   1  919.92   30.69
   2   5  -1  860.73   28.69
   2  -5  -1  914.26   37.28
  -2   5   2  203.18   12.00
  -2  -5  -2  308.09   37.62
   2  -5   2  165.96   13.64
  -2   5   2  199.52   13.27
   2  -5  -2  235.95   41.99
  -2   5   2  248.94   15.51
   2  -5   2  247.21   18.72
  -2   5  -2  204.59   14.91
  -2  -5   2  221.28   14.20
   2   5  -2  234.29   12.82
   2  -5  -2  174.98   13.87
   2  -5   2  258.88   33.51
  -2   5   2  163.03   24.11
  -2  -5  -2  230.11   17.04
  -2  -5   2  201.09   18.46
   2   5   2  186.20   13.83
  -2   5   3   37.38    9.57
  -2   5  -3   32.25    9.86
   2   5  -3   50.75   13.26
  -2   5   3   72.40    8.71
   2  -5  -3   66.97   13.32
  -2   5   3   43.19    9.26
   2  -5   3   22.44   12.75
  -2  -5   3   60.64   11.12
   2   5  -3   33.55    6.69
   2  -5  -3   80.12   14.95
   2  -5   3   61.19   13.29
  -2   5   3   27.68    6.98
  -2  -5  -3   57.34   12.61
   2   5   3   42.27    6.42
  -2  -5  -4 2230.62   97.83
  -2   5   4 2140.98   70.04
  -2   5  -4 2278.37   99.36
   2   5  -4 2257.58   97.54
  -2   5   4 2217.63   92.18
   2   5   4 2176.95   62.58
   2  -5  -4 2267.40   96.01
  -2   5   4 2184.74   69.28
   2   5   4 2242.17   89.42
  -2  -5   4 2174.47   69.93
   2   5  -4 2184.90   69.24
  -2   5   4 2006.99   63.61
  -2  -5  -4 2298.52   97.49
  -2  -5   4 2189.27   73.09
   2   5   4 2184.12   68.79
   2  -5  -5 1553.50   66.72
  -2   5   5 1431.43   61.43
  -2   5  -5 1434.32   68.05
   2   5  -5 1509.68   69.65
   2  -5  -5 1544.77   68.85
   2  -5   5 1514.36   70.11
   2   5   5 1502.19   61.89
  -2  -5   5 1540.08   70.01
  -2  -5  -5 1540.36   63.12
   2  -5   5 1715.91   83.83
  -2   5   5 1461.75   63.56
  -2  -5  -5 1590.95   69.31
  -2  -5   5 1447.07   66.72
   2   5   5 1452.83   63.31
   2  -5  -6  128.64   25.68
  -2  -5  -6  146.76   30.83
  -2   5  -6  125.26   15.71
   2   5  -6  138.07   18.51
   2  -5   6   98.02   16.70
   2   5   6  116.79   11.11
  -2  -5   6  107.24   15.92
  -2  -5  -6   98.56    8.05
  -2   5   6  123.03   13.14
   2  -5   6  164.92   25.03
  -2   5   6   88.08   23.00
  -2  -5  -6  112.09   12.33
  -2  -5   6  139.42   18.49
   2   5   6   90.28    9.85
   2  -5  -7  102.68   17.33
  -2  -5  -7   84.19   18.02
  -2   5   7   67.83    8.75
  -2   5  -7   87.96   19.89
   2   5  -7   91.03   15.44
   2   5   7   59.17    8.15
  -2  -5   7   57.91   13.65
  -2  -5  -7   58.52    7.82
  -2   5   7  102.37   14.70
   2  -5   7   94.93   17.68
  -2   5   7   46.96    9.16
  -2  -5  -7   67.18    9.91
  -2  -5   7   69.75   14.36
   2   5   7   85.09    8.96
   2  -5  -8  175.10   32.27
  -2  -5  -8  143.26   31.96
  -2   5   8  109.76   11.45
  -2   5  -8  169.70   23.02
   2   5  -8  154.37   17.98
   2  -5   8   77.47   18.43
   2   5   8  164.56   15.42
  -2  -5   8  139.95   20.83
  -2   5   8  119.82   17.35
  -2  -5  -8  154.26   13.90
   2  -5   8  146.20   26.50
  -2   5   8  101.95   20.87
  -2  -5  -8  139.79   12.93
  -2  -5   8  158.36   21.73
   2   5   8  136.61   11.79
   2  -5  -9  135.46   26.53
  -2  -5  -9  157.38   34.18
  -2   5  -9  200.29   24.88
   2   5  -9  207.20   24.33
   2  -5   9  172.38   19.15
   2   5   9  203.73   18.21
  -2  -5   9  150.98   25.84
  -2   5   9  144.93   23.03
   2  -5   9  150.15   29.65
  -2   5   9   93.61   23.69
  -2  -5  -9  189.88   20.47
  -2  -5   9  183.43   20.77
   2   5   9  138.58   18.51
   2  -5 -10  241.99   38.35
  -2  -5 -10  242.12   43.37
  -2   5 -10  334.57   35.32
   2   5 -10  283.33   27.47
   2  -5  10  324.27   30.99
   2   5  10  305.02   24.79
  -2  -5  10  263.78   30.06
  -2   5  10  364.92   31.65
   2  -5  10  253.32   21.94
  -2  -5 -10  234.81   28.13
  -2   5  10  202.85   27.60
  -2  -5  10  258.93   24.11
   2   5  10  251.31   17.19
   2  -5 -11  277.19   44.35
  -2  -5 -11  264.82   43.17
  -2   5 -11  254.15   27.32
   2   5 -11  299.38   27.86
   2  -5  11  320.95   34.14
   2   5  11  230.55   21.50
  -2  -5  11  288.88   30.56
  -2   5  11  295.38   31.70
   2  -5  11  222.06   21.53
  -2  -5 -11  197.14   16.81
  -2   5  11  141.32   32.27
  -2  -5  11  199.81   19.47
  -2   5  11  237.00   17.04
   2  -5 -12   30.64    9.09
  -2  -5 -12   64.88   14.99
  -2   5 -12   11.87   13.40
   2   5 -12   34.17   20.25
   2  -5  12   69.49   27.05
   2   5  12   13.93    9.59
  -2  -5  12   16.78   15.39
  -2   5  12   47.20   19.51
  -2  -5  12   29.53   12.86
  -2   5  12    7.27    3.96
   2  -5 -13   15.31    6.40
  -2  -5 -13   38.90   16.00
  -2   5 -13   -1.49   14.66
   2   5 -13   12.35   11.27
   2  -5  13   29.26   18.12
   2   5  13   40.45   13.70
  -2  -5  13   25.57   20.44
  -2   5  13   67.98   22.47
  -2  -5  13   12.15    6.86
   2  -5 -14   28.98   10.55
  -2  -5 -14   -7.97   12.90
  -2   5 -14   22.59   18.52
   2   5 -14   34.63   14.03
   2  -5  14   14.83   17.41
   2   5  14   41.00   12.63
  -2  -5  14   52.66   24.28
  -2   5  14   26.59   18.78
  -2  -5  14   24.53   17.35
   2  -5 -15   34.68   12.07
  -2  -5 -15    5.51    8.91
  -2   5 -15   25.17   22.94
   2   5 -15   61.39   18.86
   2  -5  15   36.54   16.59
   2   5  15   17.42   14.93
  -2  -5  15   69.28   27.31
  -2   5  15   32.02   18.75
   2  -5 -16   97.27   18.59
  -2  -5 -16   96.27   21.88
  -2   5 -16   52.78   19.24
   2   5 -16   55.33   16.49
   2  -5  16   89.38   25.11
   2   5  16  121.76   30.75
  -2  -5  16  157.28   36.09
  -2   5  16   58.15   17.60
   2  -5 -17    0.68    7.10
  -2  -5 -17   11.55   12.21
  -2   5 -17   75.41   26.00
   2   5 -17   31.10   13.63
   2  -5  17   55.06   22.73
   2   5  17   23.12   12.31
  -2   5  17   64.04   24.76
  -2  -5 -18   -9.15   12.75
  -2   5 -18   27.19   19.62
   2   5 -18    2.24   12.19
   2  -5  18    9.76   15.90
   2   5  18    6.26   12.72
  -2  -5  18   -7.98   17.54
  -2   5  18   -5.39   13.82
  -2   6   0 1190.13   43.87
   2   6   0 1031.07   41.38
   2  -6   0 1200.91   44.12
  -2   6   0 1055.53   38.86
  -2  -6   0 1166.30   35.46
   2   6   0 1165.34   35.23
  -2   6  -1  100.12   13.03
  -2   6   1  133.22   14.39
   2  -6  -1  126.28   12.60
   2  -6  -1   84.39   11.81
   2  -6   1  127.35   14.13
  -2   6   1  113.72   12.29
  -2  -6   1  101.53    8.95
   2   6  -1   96.94    8.46
   2  -6  -1  135.33   20.66
   2  -6   1  142.59   29.22
  -2  -6  -1  110.77   16.19
  -2  -6   1   91.27   13.62
  -2  -6  -2  168.16   32.18
  -2   6   2  114.85   11.38
   2   6  -2  100.97   16.55
   2  -6  -2  156.31   24.97
  -2   6   2  122.87   11.95
   2  -6   2   89.34   16.35
  -2  -6   2  127.40   13.02
   2   6  -2  116.38   10.36
   2  -6  -2  125.31   28.28
   2  -6   2  142.52   19.07
  -2  -6  -2  141.60   17.70
  -2  -6   2   91.45   15.79
  -2  -6  -3  499.16   87.77
  -2   6   3  377.77   50.67
  -2   6  -3  468.17   30.47
   2   6  -3  400.38   26.39
  -2   6   3  445.13   25.81
   2  -6  -3  537.03   79.69
  -2   6   3  442.17   24.13
   2  -6   3  476.15   29.72
  -2  -6   3  528.46   27.53
   2   6  -3  475.63   25.04
   2  -6  -3  548.05   34.52
   2  -6   3  531.80   50.02
  -2  -6  -3  469.30   28.47
  -2  -6   3  433.68   28.55
  -2  -6  -4 1383.75   70.62
  -2   6   4 1301.52   57.19
  -2   6  -4 1296.73   62.76
   2   6  -4 1357.10   63.04
  -2   6   4 1459.91   63.79
   2  -6  -4 1373.36   61.67
   2  -6   4 1448.83   68.55
  -2  -6   4 1353.73   61.04
   2   6  -4 1302.64   58.51
   2  -6  -4 1365.30   62.01
   2  -6   4 1481.07   93.37
  -2  -6  -4 1495.73   68.15
  -2  -6   4 1394.85   66.21
  -2   6   5  992.83   57.14
  -2   6  -5 1098.16   68.20
   2   6  -5 1098.73   67.39
  -2   6   5 1015.26   58.96
   2  -6  -5 1044.97   61.93
   2   6   5  978.39   53.87
   2  -6   5 1118.44   68.11
   2   6   5 1039.42   56.46
  -2  -6   5 1048.04   62.75
   2  -6   5  993.52   62.57
  -2  -6  -5  988.42   58.67
  -2  -6   5 1111.77   68.65
   2  -6  -6  100.46   13.59
  -2  -6  -6   81.73   18.07
  -2   6   6   50.34   14.02
  -2   6  -6   54.71   16.51
   2   6  -6   86.74   15.81
   2  -6  -6   51.74   10.33
   2   6   6   59.50    9.79
   2  -6   6  102.10   17.86
   2   6   6   63.83    6.97
  -2  -6   6   45.69   13.98
   2  -6   6  112.58   25.87
  -2  -6  -6   82.03   11.66
  -2  -6   6   67.94   15.96
   2   6   6   88.84   11.02
   2  -6  -7   97.57   22.07
  -2  -6  -7   93.39   26.74
  -2   6  -7   54.17   16.21
   2   6  -7   88.87   20.57
   2   6   7   60.42   11.35
   2  -6   7  111.70   21.95
   2   6   7   85.08   15.34
  -2  -6   7   82.70   20.01
  -2   6   7   53.76   14.25
   2  -6   7  110.03   25.47
  -2  -6  -7   91.85   15.72
  -2  -6   7  115.59   18.44
   2   6   7   85.95   15.76
   2  -6  -8  778.73   48.68
  -2  -6  -8  885.77  118.35
  -2   6  -8  679.15   47.30
   2   6  -8  725.80   50.42
   2  -6   8  791.18  100.37
   2   6   8  750.67   44.43
  -2  -6   8  800.22  100.79
  -2   6   8  861.74  107.46
   2  -6   8  824.86  131.75
  -2  -6  -8  775.79   46.27
  -2  -6   8  742.83   49.71
   2   6   8  755.75   44.55
   2  -6  -9  117.01   24.63
  -2  -6  -9  167.06   25.49
  -2   6  -9  107.24   24.01
   2   6  -9  175.53   23.22
   2  -6   9  192.64   23.22
   2   6   9  127.90   19.34
  -2  -6   9  130.15   23.71
  -2   6   9  147.44   25.97
  -2  -6  -9   89.52   14.96
   2  -6   9  135.58   26.66
  -2  -6  -9  137.67   26.40
  -2  -6   9  134.52   23.79
   2   6   9  130.57   18.31
   2  -6 -10   54.60   13.39
  -2  -6 -10   38.49   14.74
  -2   6 -10   45.70   16.16
   2   6 -10   48.91   15.76
  -2  -6  10   49.24   17.24
  -2   6  10   39.61   17.27
   2  -6  10   28.91   13.19
  -2  -6 -10   40.06   10.43
  -2   6  10   19.80    5.89
  -2  -6  10   34.84   11.96
   2  -6 -11  173.30   28.90
  -2  -6 -11  170.75   37.18
   2   6 -11  137.49   21.89
   2  -6  11  163.48   27.30
   2   6  11  167.77   19.30
  -2  -6  11  105.05   23.97
  -2   6  11  208.56   22.98
   2  -6  11  165.27   19.12
  -2  -6 -11  115.05   23.86
  -2  -6  11  184.60   20.94
   2  -6 -12   16.22    8.67
  -2  -6 -12   23.96    7.79
  -2   6 -12   27.81   19.81
   2   6 -12   31.99   14.19
   2  -6  12   47.10   19.13
   2   6  12   25.14   13.25
  -2  -6  12   33.26   16.09
  -2   6  12   36.45   15.36
   2  -6  12    9.22    8.17
  -2  -6  12   10.89   11.76
  -2   6  12   16.65    6.14
  -2  -6 -13   36.54   13.31
  -2   6 -13   13.65   14.30
   2   6 -13   57.86   18.05
   2  -6  13   52.82   27.47
   2   6  13   12.39   10.67
  -2  -6  13   18.52   17.18
  -2   6  13   44.59   15.46
   2  -6  13   66.28   15.17
  -2  -6  13   20.05    6.96
   2  -6 -14   16.17   11.10
  -2  -6 -14   55.67   25.47
  -2   6 -14   38.51   17.54
   2   6 -14   33.64   14.64
   2  -6  14   19.49   15.65
   2   6  14   32.27   15.75
  -2  -6  14   36.99   23.82
  -2   6  14   45.76   16.92
  -2  -6  14   22.36   13.80
   2  -6 -15   71.07   17.12
  -2  -6 -15  111.91   39.64
  -2   6 -15  105.54   25.47
   2   6 -15   81.95   19.11
   2  -6  15  145.02   33.49
   2   6  15  111.58   21.50
  -2  -6  15  161.99   37.57
  -2   6  15  126.29   27.92
  -2  -6  15   47.02   30.15
   2  -6 -16   23.05    9.67
  -2  -6 -16   28.46   13.99
  -2   6 -16   33.06   16.97
   2   6 -16   18.24   12.93
   2  -6  16   15.75   17.91
   2   6  16   39.33   15.48
  -2  -6  16   49.94   20.21
  -2   6  16   24.60   14.41
  -2  -6 -17   68.57   32.19
  -2   6 -17  144.59   41.99
   2   6 -17   38.30   15.25
   2  -6  17   72.23   35.21
   2   6  17   93.77   29.97
  -2  -6  17  130.40   41.22
  -2   6  17  178.75   50.21
  -2  -6 -18   20.47   13.67
  -2   6 -18   39.61   26.38
   2   6 -18   15.96   13.18
   2  -6  18   21.47   20.33
  -2  -6  18   79.62   23.85
  -2   6  18   31.39   14.55
  -2   7   0   36.69   15.61
   2   7   0   23.21   13.11
   2  -7   0   11.64    9.17
  -2  -7   0    5.97    2.91
   2   7   0   12.56    5.10
  -2  -7   0   10.88   14.62
  -2   7  -1    6.42   11.88
  -2   7   1   30.21    9.84
   2   7  -1   15.08   12.24
   2   7   1   39.29   20.12
   2  -7  -1   28.30   13.07
   2  -7   1   19.45    9.57
  -2  -7   1   27.31    7.40
   2   7  -1    4.46    3.67
   2  -7   1   21.79   10.88
   2  -7  -1   26.33   14.98
  -2  -7  -1   18.77   12.16
  -2  -7   1   13.86   11.31
  -2  -7  -2  134.97   19.83
  -2   7  -2  145.67   20.37
  -2   7   2  109.89   12.47
   2   7  -2  142.80   18.96
   2  -7  -2  136.99   25.05
   2  -7   2  158.95   16.61
  -2  -7   2  152.98   12.81
   2   7  -2  118.78   10.31
   2  -7  -2  161.35   28.61
   2  -7   2  180.92   41.68
  -2  -7  -2  156.33   20.92
  -2  -7   2  110.99   17.52
  -2  -7  -3  166.36   49.89
  -2   7  -3  161.90   20.65
   2   7  -3  205.95   22.47
  -2   7   3  136.27   16.26
   2  -7  -3  183.51   32.67
   2  -7   3  167.97   19.45
  -2  -7   3  152.17   14.42
   2   7  -3  154.70   14.06
   2  -7  -3  211.10   43.95
   2  -7   3  210.63   35.36
  -2  -7  -3  180.51   19.08
  -2  -7   3  148.15   19.90
  -2   7  -4    7.22   11.79
   2   7  -4   51.89   15.67
  -2   7   4   46.68   10.77
   2  -7  -4   42.33   10.81
   2  -7   4   34.11   13.47
  -2  -7   4   50.44   10.93
   2   7  -4   41.92    8.01
   2  -7  -4   21.36   10.49
   2  -7   4   57.72   12.37
  -2  -7  -4   31.56   14.43
  -2  -7   4   34.43   13.47
  -2  -7  -5  283.37   50.14
  -2   7  -5  278.84   27.11
   2   7  -5  260.83   25.30
  -2   7   5  283.48   21.85
   2  -7  -5  266.88   50.22
   2  -7   5  247.47   25.34
  -2  -7   5  269.44   22.36
   2  -7  -5  268.75   22.33
   2  -7   5  373.89   76.80
  -2  -7  -5  271.02   23.62
  -2  -7   5  277.06   26.95
  -2  -7  -6  841.46  146.15
  -2   7  -6  723.39   48.99
   2   7  -6  824.93  103.50
  -2   7   6  778.77   47.81
   2  -7  -6  792.13   97.99
   2   7   6  789.04   96.10
   2  -7   6  771.31   51.51
   2   7   6  757.67   41.77
  -2  -7   6  674.47   43.57
   2  -7   6  704.76   56.12
  -2  -7  -6  751.34   47.70
  -2  -7   6  834.60  105.12
   2  -7  -7   33.44   12.30
  -2  -7  -7   13.68    9.16
  -2   7  -7   42.79   14.72
   2   7  -7   23.65   11.91
   2   7   7    2.82    1.81
   2  -7   7   15.96   13.46
   2   7   7   17.81    4.81
  -2  -7   7    7.23   10.42
  -2   7   7   32.09   12.81
   2  -7   7   31.57   10.62
  -2  -7  -7   47.52   13.77
  -2  -7   7   10.47   11.03
   2  -7  -8  464.81   29.32
  -2  -7  -8  404.52   93.74
  -2   7  -8  510.24   39.05
   2   7  -8  451.71   34.13
   2  -7   8  456.27   38.05
   2   7   8  415.34   22.75
  -2  -7   8  431.35   36.03
  -2   7   8  506.04   32.81
   2  -7   8  393.31   41.57
  -2  -7  -8  389.98   65.00
  -2  -7   8  386.46   28.83
   2  -7  -9   65.74   17.87
  -2  -7  -9   55.31   22.22
  -2   7  -9   49.67   17.74
   2   7  -9  133.97   28.69
   2   7   9   53.68   17.10
   2  -7   9  128.33   29.35
   2   7   9  104.22   21.20
  -2  -7   9   67.64   17.36
  -2   7   9  145.60   20.10
   2  -7   9  115.11   31.82
  -2  -7  -9   76.14   22.61
  -2  -7   9  126.51   28.85
   2   7   9   70.85   15.47
   2  -7 -10  331.56   52.43
  -2  -7 -10  287.74   51.73
  -2   7 -10  355.39   35.38
   2   7 -10  388.32   36.75
   2  -7  10  268.86   31.37
   2   7  10  385.20   29.95
  -2  -7  10  311.29   32.03
  -2   7  10  387.82   35.98
   2  -7  10  358.90   52.42
  -2  -7 -10  311.91   38.18
  -2  -7  10  301.20   26.98
   2  -7 -11   90.74   17.74
  -2  -7 -11   79.45   24.07
  -2   7 -11   90.87   22.65
   2   7 -11   28.62   14.69
   2  -7  11   72.52   24.15
   2   7  11   58.14   14.19
  -2  -7  11   26.52   19.17
  -2   7  11   86.05   22.88
   2  -7  11   64.06   18.08
  -2  -7 -11   35.44    9.02
  -2  -7  11   13.20   10.72
   2  -7 -12   78.46   21.05
  -2  -7 -12   66.52   13.21
  -2   7 -12   86.56   22.63
   2   7 -12   69.01   21.52
   2  -7  12  105.66   24.35
   2   7  12   66.75   14.54
  -2  -7  12   60.14   22.01
  -2   7  12   83.59   15.72
   2  -7  12   95.54   19.39
  -2  -7  12   42.62   19.57
   2  -7 -13   28.49    8.59
  -2  -7 -13   13.79   11.05
  -2   7 -13   22.15   15.15
   2   7 -13   48.80   14.62
   2  -7  13   20.31   16.38
   2   7  13    4.98    9.85
  -2  -7  13   -0.13   13.23
  -2   7  13   79.76   19.06
   2  -7  13    8.35    8.90
  -2  -7  13   26.06    7.41
   2  -7 -14  140.85   28.42
  -2  -7 -14  130.16   45.12
  -2   7 -14  132.28   30.64
   2   7 -14  130.09   27.34
   2   7  14  188.55   30.13
  -2  -7  14  200.98   39.08
  -2   7  14  241.73   37.62
   2  -7  14  191.25   31.45
  -2  -7  14  148.39   38.26
   2  -7 -15   27.06   10.87
  -2  -7 -15   51.01   13.59
  -2   7 -15   29.63   15.70
   2   7 -15   25.63   17.47
   2  -7  15    9.82   15.20
   2   7  15   39.88   16.81
  -2  -7  15   48.08   18.71
  -2   7  15   20.69   13.54
  -2  -7  15   31.91   10.31
  -2  -7 -16   70.19   28.27
  -2   7 -16   83.18   27.94
   2   7 -16  146.35   35.34
   2  -7  16  123.29   30.55
  -2  -7  16  141.98   34.12
  -2   7  16  111.70   28.92
  -2  -7 -17   44.00   18.93
  -2   7 -17   48.81   23.15
   2   7 -17   32.48   13.73
   2  -7  17  165.04   36.35
  -2  -7  17  102.61   33.79
  -2   7  17   93.89   28.88
  -2   8   0  151.44   18.88
   2   8   0  132.59   20.12
   2  -8   0  180.72   17.41
  -2  -8   0  154.34   10.92
   2   8   0  162.21   11.01
  -2  -8   0  138.49   19.82
  -2   8  -1   16.93   11.41
  -2   8   1   33.87   10.65
   2   8  -1   32.07   14.81
   2   8   1   49.66   19.03
  -2  -8  -1   20.17    3.26
   2  -8  -1   32.75   11.28
   2  -8   1   13.65   13.14
  -2  -8   1   37.15    7.79
   2   8  -1   31.60    5.68
   2  -8  -1   34.64   10.20
   2  -8   1   33.04   13.41
  -2  -8   1   39.32   13.25
  -2  -8  -1   74.83   17.51
  -2   8  -2   34.11   13.31
  -2   8   2   59.70   14.84
   2   8   2   22.54   12.32
   2  -8  -2   13.74    8.38
   2  -8   2   20.57   10.24
  -2  -8   2   16.08    7.72
   2   8  -2    4.06    4.13
   2  -8  -2  -17.14   10.51
   2  -8   2   17.26    8.63
  -2  -8  -2   -4.35    9.24
  -2  -8   2   36.43   14.17
  -2  -8  -3  229.49   26.08
  -2   8  -3  275.49   29.61
   2   8  -3  265.54   28.83
  -2   8   3  228.62   22.35
   2  -8  -3  249.26   53.00
   2  -8   3  275.80   25.04
  -2  -8   3  252.31   19.71
   2   8  -3  186.09   15.38
   2  -8  -3  283.81   36.29
   2  -8   3  267.60   64.42
  -2  -8  -3  227.85   22.27
  -2  -8   3  210.28   21.61
  -2   8  -4  494.92   37.60
   2   8  -4  477.08   38.05
  -2   8   4  445.42   32.62
   2  -8  -4  548.27   73.71
   2  -8   4  437.73   33.04
   2  -8  -4  465.88   88.70
   2  -8   4  496.90   79.21
  -2  -8  -4  488.09   35.77
  -2  -8   4  424.27   34.02
  -2  -8  -5   27.10    8.67
  -2   8  -5   38.38   14.79
   2   8  -5   46.31   21.99
  -2   8   5   19.63    9.15
   2  -8  -5   43.85   10.82
   2  -8   5   52.24   19.33
  -2  -8   5   40.64   14.79
   2  -8  -5   28.15   11.26
   2  -8   5   64.23   20.98
  -2  -8  -5   35.82   12.07
  -2  -8   5   48.68   15.57
  -2  -8  -6  286.49   57.39
  -2   8  -6  184.24   23.37
   2   8  -6  290.09   26.66
  -2   8   6  242.20   19.82
   2  -8  -6  264.08   22.13
   2  -8   6  352.78   28.47
  -2  -8   6  255.16   25.04
   2  -8  -6  200.23   20.25
   2  -8   6  254.04   46.93
  -2  -8  -6  288.39   41.55
  -2  -8   6  268.18   25.71
  -2  -8  -7  613.37   62.22
  -2   8  -7  616.30   49.01
   2   8  -7  560.99   44.07
  -2   8   7  573.64   39.97
   2   8   7  488.15   39.02
   2  -8   7  517.09   40.75
   2   8   7  572.63   34.64
  -2  -8   7  693.74   52.00
  -2   8   7  592.25   40.68
   2  -8   7  547.17   71.65
  -2  -8  -7  565.24   71.13
  -2  -8   7  488.47   39.82
  -2  -8  -8  112.04   28.81
  -2   8  -8  157.38   27.17
   2   8  -8  127.17   25.99
   2   8   8   91.25   24.32
   2  -8   8  165.00   23.70
   2   8   8  166.12   13.45
  -2  -8   8  139.87   26.36
  -2   8   8  199.06   20.18
   2  -8   8  125.16   27.79
  -2  -8  -8  191.39   39.07
  -2  -8   8  174.40   22.30
   2  -8  -9  287.45   25.68
  -2  -8  -9  207.08   34.74
  -2   8  -9  257.71   31.46
   2   8  -9  400.88   39.09
   2  -8   9  259.79   31.33
   2   8   9  244.42   19.57
  -2  -8   9  249.51   29.66
  -2   8   9  345.42   30.16
   2  -8   9  305.53   54.84
  -2  -8  -9  216.53   43.55
  -2  -8   9  280.85   30.17
   2  -8 -10   31.69   18.01
  -2  -8 -10   55.62   19.56
  -2   8 -10   44.04   19.88
   2   8 -10   38.88   14.91
   2  -8  10   49.02   18.16
   2   8  10   53.76   12.69
  -2   8  10   59.50   16.26
  -2  -8 -10   43.49   12.51
  -2  -8  10   60.22   18.92
   2  -8 -11   51.86   14.16
  -2  -8 -11   74.45   17.83
  -2   8 -11   41.28   22.22
   2   8 -11  104.34   23.84
   2  -8  11   37.08   18.46
   2   8  11   70.89   12.77
  -2  -8  11   47.35   16.65
  -2   8  11   84.22   16.30
   2  -8  11   41.96   16.71
  -2  -8 -11   73.09   19.07
  -2  -8  11   52.58   25.88
   2  -8 -12   58.64   27.64
  -2  -8 -12   31.78   17.10
  -2   8 -12   67.10   24.21
   2   8 -12   47.09   20.12
   2  -8  12   56.34   25.74
   2   8  12   33.95   10.91
  -2  -8  12   66.15   23.89
   2  -8  12   58.36   20.04
  -2  -8  12   85.34   17.91
   2  -8 -13   68.03   25.41
  -2  -8 -13  103.67   33.59
  -2   8 -13  142.12   33.98
   2   8 -13  100.64   24.45
   2  -8  13   52.47   24.17
  -2  -8  13   87.17   22.29
  -2   8  13   88.46   20.53
   2  -8  13   49.17   13.12
  -2  -8  13   62.27   16.93
   2  -8 -14   53.05   14.92
  -2  -8 -14   69.98   17.64
  -2   8 -14   74.97   21.11
   2   8 -14   62.59   24.82
   2  -8  14   77.56   22.49
  -2  -8  14   83.52   29.02
  -2   8  14  116.14   24.75
   2  -8  14   37.44   10.65
  -2  -8  14   89.43   22.90
   2  -8 -15   97.11   46.74
  -2  -8 -15  151.12   50.45
  -2   8 -15  272.60   31.27
   2   8 -15  268.13   30.43
   2  -8  15  201.53   47.06
  -2  -8  15  165.73   42.29
  -2  -8  15  133.43   43.38
  -2  -8 -16   44.03   18.95
  -2   8 -16   20.55   18.67
   2   8 -16   30.41   14.08
   2  -8  16   28.72   16.58
  -2  -8  16   11.91   15.49
  -2   8  16   -5.32   11.21
  -2  -8 -17   50.86   29.68
  -2   8 -17   74.30   28.53
   2   8 -17   36.08   20.04
   2  -8  17   60.76   23.35
  -2  -8  17   19.44   15.95
  -2   8  17   34.90   16.66
  -2   9   0  102.51   17.45
   2   9   0   61.21   18.69
   2  -9   0   52.78   14.79
  -2  -9   0   69.69   11.93
   2   9   0   57.09   10.14
   2  -9   0   87.68   24.30
  -2  -9   0   70.82   16.95
  -2   9  -1  259.64   25.45
  -2   9   1  231.11   24.36
   2   9  -1  239.95   25.91
   2   9   1  251.99   27.26
  -2  -9  -1  227.43   14.58
   2  -9  -1  307.82   49.98
   2  -9   1  271.07   24.64
  -2  -9   1  252.35   17.24
   2   9  -1  215.80   15.29
   2  -9  -1  310.07   60.95
   2  -9   1  307.41   64.53
  -2  -9  -1  314.69   29.97
  -2   9  -2  305.76   26.75
  -2   9   2  273.60   22.76
   2   9  -2  220.68   24.36
   2   9   2  266.51   24.67
   2  -9  -2  274.93   55.90
   2  -9   2  288.30   24.06
  -2  -9   2  236.60   16.20
   2   9  -2  217.11   15.09
   2  -9  -2  272.34   32.48
   2  -9   2  218.19   47.99
  -2  -9   2  265.57   24.21
  -2  -9  -2  245.73   23.80
  -2   9  -3  363.78   32.14
   2   9  -3  394.58   29.30
  -2   9   3  354.05   26.55
   2   9   3  412.54   33.49
   2  -9  -3  395.86   61.12
   2  -9   3  394.90   29.11
  -2  -9   3  388.94   24.85
   2  -9  -3  421.80   71.50
   2  -9   3  395.94   54.90
  -2  -9  -3  310.85   25.31
  -2  -9   3  391.45   34.73
  -2  -9  -4  142.41   26.45
  -2   9  -4  109.87   23.57
   2   9  -4  125.25   26.16
  -2   9   4  129.51   21.61
   2  -9  -4  154.52   37.16
   2  -9   4  173.92   19.11
  -2  -9   4  164.54   15.80
   2  -9  -4  138.69   40.01
   2  -9   4  149.95   33.03
  -2  -9  -4  121.21   22.57
  -2  -9   4  161.14   35.38
  -2  -9  -5  591.36   44.78
  -2   9  -5  684.35   52.26
   2   9  -5  642.32   49.35
  -2   9   5  651.51   45.14
   2  -9  -5  606.76   78.84
   2  -9   5  641.19   47.93
  -2  -9   5  691.99   47.11
   2  -9  -5  675.81   50.07
   2  -9   5  706.83  124.45
  -2  -9  -5  536.30   39.48
  -2  -9   5  757.57   55.77
  -2  -9  -6  199.49   43.37
  -2   9  -6  257.25   30.64
   2   9  -6  269.81   32.69
  -2   9   6  252.23   23.03
   2  -9  -6  228.34   22.72
   2  -9   6  318.49   30.30
  -2  -9   6  217.86   22.28
   2  -9  -6  234.16   23.27
   2  -9   6  212.76   43.03
  -2  -9  -6  221.43   36.30
  -2  -9   6  249.98   29.87
  -2  -9  -7  123.09   29.77
  -2   9  -7  116.37   31.15
   2   9  -7   85.78   25.91
  -2   9   7   55.55   15.31
   2  -9   7   72.97   19.18
  -2  -9   7   59.06   16.61
  -2   9   7   86.32   19.06
   2  -9   7  104.00   27.46
  -2  -9  -7  103.85   27.95
  -2  -9   7  151.17   31.92
  -2  -9  -8  115.91   29.26
  -2   9  -8  114.05   22.66
   2   9  -8  139.46   24.37
  -2   9   8  145.79   16.96
   2  -9   8   95.30   20.59
   2   9   8  104.46    9.42
  -2  -9   8   97.69   18.96
  -2   9   8  163.41   18.76
   2  -9   8  110.75   24.92
  -2  -9  -8  140.96   34.90
  -2  -9   8  109.27   19.52
  -2  -9  -9  187.08   44.13
  -2   9  -9  340.58   37.67
   2   9  -9  284.53   37.29
  -2   9   9  248.00   23.33
   2  -9   9  208.17   27.94
  -2  -9   9  262.55   30.78
  -2   9   9  176.42   18.43
   2  -9   9  302.21   51.32
  -2  -9  -9  177.43   49.91
  -2  -9   9  263.59   50.25
   2  -9 -10  132.45   20.96
  -2  -9 -10  149.01   32.52
  -2   9 -10  171.92   31.55
   2   9 -10  148.09   25.17
   2  -9  10  117.30   24.06
  -2  -9  10  119.30   22.88
  -2   9  10  127.47   19.66
   2  -9  10   87.35   37.95
  -2  -9 -10  148.37   21.83
  -2  -9  10  140.00   27.77
   2  -9 -11   27.84   10.04
  -2  -9 -11   19.34    7.57
  -2   9 -11   27.85   16.65
   2   9 -11   17.19   14.33
   2  -9  11   73.72   23.75
  -2  -9  11   38.83   15.19
  -2   9  11   11.44   12.50
   2  -9  11   49.31   19.21
  -2  -9 -11   13.17    6.94
  -2  -9  11   57.57   15.54
   2  -9 -12   57.85   15.49
  -2  -9 -12    6.54   17.41
  -2   9 -12   62.00   19.25
   2   9 -12   43.83   23.91
   2  -9  12   68.41   20.95
  -2  -9  12   41.36   17.03
  -2   9  12   36.68   11.08
   2  -9  12   27.71   12.67
  -2  -9  12   19.12    8.43
   2  -9 -13   19.22    8.46
  -2  -9 -13   26.05   14.61
  -2   9 -13   -0.77   16.57
   2   9 -13   58.82   22.13
   2  -9  13   77.82   23.86
  -2  -9  13   33.84   14.83
   2  -9  13   86.36   24.74
  -2  -9  13   18.10   15.05
   2  -9 -14   10.26    6.10
  -2  -9 -14   35.11   18.15
  -2   9 -14   38.49   17.59
   2   9 -14   14.11   14.28
   2  -9  14   16.29   15.61
  -2  -9  14    4.42   15.28
  -2   9  14   -0.15   11.07
   2  -9  14   23.98   16.49
  -2  -9  14   18.44    9.06
  -2  -9 -15   53.94   21.64
  -2   9 -15   78.32   31.27
   2   9 -15   53.50   24.31
   2  -9  15   83.17   33.21
  -2  -9  15  101.67   34.36
  -2   9  15   89.33   28.32
   2  -9  15   50.35   17.72
  -2  -9  15   12.31    7.03
  -2   9 -16   79.87   28.68
   2   9 -16   36.33   19.71
   2  -9  16   64.98   19.74
  -2  -9  16   36.50   23.99
  -2   9  16   20.06   13.07
  -2  10   0   43.65   15.69
   2  10   0   44.09   16.17
   2 -10   0   56.27   16.27
  -2 -10   0   12.69    3.65
   2  10   0   22.55    6.07
   2 -10   0   42.38   14.62
  -2 -10   0   31.99   19.15
  -2  10  -1  538.62   43.33
  -2  10   1  528.06   41.46
   2  10  -1  515.08   41.05
   2  10   1  528.09   43.05
  -2 -10  -1  416.22   24.39
   2 -10  -1  524.99   66.19
   2 -10   1  408.14   32.09
  -2 -10   1  482.51   31.42
   2  10  -1  412.45   26.95
   2 -10  -1  489.84   75.35
   2 -10   1  542.56   93.96
  -2 -10  -1  584.15   46.40
  -2  10  -2  208.44   29.42
  -2  10   2  181.13   22.30
   2  10  -2  223.79   27.31
   2  10   2  195.52   24.89
   2 -10  -2  171.95   37.01
   2 -10   2  174.34   20.26
  -2 -10   2  191.56   16.62
   2  10  -2  121.89   23.21
   2 -10  -2  175.63   36.33
   2 -10   2  221.18   43.61
  -2 -10  -2  180.72   26.13
  -2 -10   2  185.05   22.98
  -2  10  -3  270.43   28.54
  -2  10   3  245.04   24.88
   2  10   3  306.07   28.36
   2 -10  -3  259.84   53.05
   2 -10   3  303.69   26.95
  -2 -10   3  302.50   23.84
   2 -10  -3  317.42   62.00
   2 -10   3  284.84   44.77
  -2 -10  -3  319.92   62.57
  -2 -10   3  273.66   29.95
  -2  10  -4   26.80   15.57
   2  10  -4   14.19   15.17
  -2  10   4   17.75   11.52
   2  10   4    6.68   13.67
   2 -10  -4   16.11    7.87
   2 -10   4   29.40   13.59
  -2 -10   4    6.45    7.26
   2 -10  -4   32.88   10.95
   2 -10   4   38.74   18.56
  -2 -10  -4   21.42   13.96
  -2 -10   4    9.41   13.93
  -2 -10  -5  212.35   25.97
  -2  10  -5  158.86   27.68
   2  10  -5  195.21   27.80
  -2  10   5  159.35   20.49
   2 -10  -5  223.83   43.48
   2 -10   5  192.52   21.92
  -2 -10   5  209.62   22.81
   2 -10  -5  154.72   38.10
   2 -10   5  198.33   46.22
  -2 -10  -5  188.64   44.60
  -2 -10   5  220.80   30.39
  -2 -10  -6  543.87   46.54
  -2  10  -6  458.41   43.16
   2  10  -6  575.89   48.12
  -2  10   6  489.10   40.26
   2 -10  -6  539.62   41.68
   2 -10   6  598.82  100.35
  -2 -10   6  543.44   43.14
   2 -10  -6  573.61   45.89
   2 -10   6  573.38   84.56
  -2 -10  -6  501.66   70.54
  -2 -10   6  649.52  118.29
  -2 -10  -7  152.63   28.96
  -2  10  -7  199.50   30.91
   2  10  -7  197.37   31.80
  -2  10   7  166.23   19.52
   2 -10   7  111.44   18.62
  -2 -10   7  152.78   19.04
  -2  10   7  170.87   20.09
   2 -10  -7  160.87   20.33
   2 -10   7  178.28   30.22
  -2 -10  -7  153.02   42.87
  -2 -10   7  177.07   28.87
  -2 -10  -8   31.09   11.45
  -2  10  -8   14.72   14.71
   2  10  -8   25.15   19.98
  -2  10   8   29.38   13.68
   2 -10   8   20.26   14.90
  -2 -10   8   39.66   14.84
  -2  10   8    8.66    7.59
   2 -10   8   55.75   20.98
  -2 -10  -8   29.58   11.08
  -2 -10   8   32.47   19.15
  -2 -10  -9   34.07   13.59
  -2  10  -9   40.84   18.56
   2  10  -9   42.22   17.20
   2 -10   9  101.57   19.50
  -2 -10   9   35.96   19.28
  -2  10   9   52.92   15.98
   2 -10   9   46.58   23.03
  -2 -10  -9   40.01   16.92
  -2 -10   9   19.93   14.71
  -2 -10 -10   34.89    9.00
  -2  10 -10   44.13   23.75
   2  10 -10   45.47   15.27
  -2  10  10    1.04    8.66
   2 -10  10   29.11   14.89
  -2 -10  10   -3.82   14.23
  -2  10  10   38.21   14.07
   2 -10  10   11.41   11.93
  -2 -10 -10   22.51    8.20
  -2 -10  10   65.51   20.75
  -2 -10 -11   19.84   10.67
  -2  10 -11   44.82   17.18
   2  10 -11   25.27   16.78
  -2  10  11   66.34   17.24
   2 -10  11   14.69   12.58
  -2 -10  11   12.82   13.74
  -2  10  11   15.02   10.51
   2 -10  11   11.90   18.13
  -2 -10  11   24.55    7.40
  -2 -10 -12   66.63   21.19
  -2  10 -12  167.69   33.72
   2  10 -12  101.05   25.98
   2 -10  12  171.11   32.55
  -2 -10  12  140.46   30.72
  -2  10  12  136.67   22.56
   2 -10  12   85.63   23.97
  -2 -10  12  146.80   44.19
   2 -10 -13   38.22   10.92
  -2 -10 -13   28.80   18.74
   2  10 -13   55.96   20.50
   2 -10  13   52.24   21.21
  -2 -10  13   92.39   28.46
  -2  10  13   33.43    8.99
   2 -10  13   43.62   17.38
  -2 -10  13   47.87   28.46
   2 -10 -14   38.96   14.18
  -2 -10 -14    9.29   11.90
  -2  10 -14   26.97   17.65
   2  10 -14   50.01   19.56
   2 -10  14   91.95   28.57
  -2 -10  14   52.52   21.03
  -2  10  14   11.55    9.62
   2 -10  14   44.29   19.67
  -2 -10  14   68.95   19.20
  -2 -10 -15   31.18   12.92
   2  10 -15   22.28   15.81
   2 -10  15   -6.42   17.81
  -2 -10  15   40.89   24.74
   2 -10  15   21.83   11.86
  -2 -10  15   28.74   11.98
  -2  11   0   54.81   19.54
   2  11   0   48.59   19.48
   2 -11   0   34.40   15.81
  -2 -11   0   39.94    8.35
   2 -11   0   59.14   24.32
  -2 -11   0   53.48   15.85
  -2  11  -1   -3.47   14.31
  -2  11   1   48.86   20.81
   2  11  -1   35.92   17.11
   2  11   1   43.98   17.42
   2 -11  -1   25.55   10.84
   2 -11   1   14.04    9.36
  -2 -11   1   18.97    6.33
   2 -11  -1   32.55   11.73
  -2 -11  -1   15.70   13.73
  -2 -11   1   24.11    9.96
  -2  11  -2  136.99   27.15
  -2  11   2   95.98   20.74
   2  11  -2  125.23   22.86
   2  11   2  113.61   25.71
   2 -11  -2  108.61   20.44
   2 -11   2   81.42   18.63
  -2 -11   2  117.26   12.66
   2 -11  -2   82.87   28.40
   2 -11   2   94.14   26.08
  -2 -11  -2  124.69   29.41
  -2 -11   2  133.25   17.92
  -2  11  -3   25.54   15.11
   2  11  -3   25.28   14.27
  -2  11   3   44.85   14.63
   2  11   3   25.77   16.33
   2 -11  -3   10.23    5.65
   2 -11   3   31.19   13.05
  -2 -11   3   16.53    7.47
   2 -11  -3    8.80    8.69
   2 -11   3   22.06   20.50
  -2 -11  -3   16.72   11.81
  -2 -11   3   38.76   14.43
  -2  11  -4   26.33   20.14
  -2  11   4   47.06   15.78
   2  11   4   49.17   17.75
   2 -11  -4   30.69    9.35
   2 -11   4   49.06   15.98
  -2 -11   4   41.43   12.30
   2 -11  -4   21.38   13.00
   2 -11   4   67.32   22.17
  -2 -11  -4   30.25   13.55
  -2 -11   4  101.88   22.30
  -2  11  -5  283.52   31.75
   2  11  -5  429.05   41.34
  -2  11   5  379.42   35.98
   2  11   5  429.24   41.15
   2 -11  -5  254.73   72.04
   2 -11   5  451.06   40.55
  -2 -11   5  407.79   34.49
   2 -11  -5  348.75   58.80
   2 -11   5  421.53   74.65
  -2 -11  -5  293.30   54.66
  -2 -11   5  390.79   69.02
  -2  11  -6  101.15   27.96
   2  11  -6  129.84   22.24
  -2  11   6  168.95   20.66
   2  11   6  151.04   26.68
   2 -11  -6  120.88   17.59
   2 -11   6  113.42   18.46
  -2 -11   6   97.30   15.25
   2 -11  -6  103.93   17.94
   2 -11   6  159.52   29.93
  -2 -11  -6  127.30   20.09
  -2 -11   6  111.47   28.08
  -2 -11  -7   57.62   22.22
  -2  11  -7  188.73   40.32
   2  11  -7  123.42   29.81
  -2  11   7   69.60   16.29
   2 -11   7  134.03   26.97
  -2 -11   7   97.59   23.91
  -2  11   7  111.89   18.93
   2 -11  -7   43.53   15.38
   2 -11   7   78.39   22.18
  -2 -11   7   78.55   19.84
  -2 -11  -8   31.92   17.72
  -2  11  -8   48.57   17.28
   2  11  -8   29.90   16.30
  -2  11   8   12.85    9.68
   2 -11   8   22.57   12.81
  -2 -11   8   19.55   12.49
  -2  11   8    5.84    8.89
   2 -11   8   30.16   10.91
  -2 -11  -8   40.56   18.87
  -2 -11   8   52.25   21.79
  -2 -11  -9   43.08   11.84
  -2  11  -9   35.97   16.42
   2  11  -9   45.37   21.85
  -2  11   9   14.05    9.25
   2 -11   9   26.84   15.29
  -2 -11   9   33.19   18.40
  -2  11   9    9.10    7.75
   2 -11   9   38.22   14.15
  -2 -11  -9    3.96    9.50
  -2 -11   9   32.57   13.45
  -2 -11 -10   73.16   24.93
  -2  11 -10   60.47   18.29
   2  11 -10   51.34   17.30
  -2  11  10   96.17   20.58
   2 -11  10   59.87   18.59
  -2 -11  10   65.62   20.53
  -2  11  10   84.31   17.13
  -2 -11 -10   57.67   17.13
  -2 -11  10   77.89   18.30
  -2 -11 -11   41.83   10.39
  -2  11 -11   98.59   27.94
   2  11 -11   51.94   25.63
  -2  11  11   78.70   17.15
   2 -11  11   37.71   13.77
  -2 -11  11   84.28   26.43
  -2  11  11   53.86   14.69
   2 -11  11   52.08   22.11
  -2 -11  11   61.33   27.53
  -2 -11 -12   57.64   25.30
  -2  11 -12   59.18   22.02
   2  11 -12   55.45   25.06
  -2  11  12   36.84   14.96
   2 -11  12   11.99   17.17
  -2 -11  12   52.91   19.01
   2 -11  12   24.18    8.77
  -2 -11  12   56.92   21.06
  -2 -11 -13   36.06   13.30
   2  11 -13   44.72   23.76
  -2  11  13   27.01    9.83
   2 -11  13    4.89   16.58
  -2 -11  13   -0.63   13.99
   2 -11  13   31.99   13.24
  -2 -11  13   26.50   13.24
  -2 -11 -14   35.83   11.43
  -2  11 -14   14.62   16.40
   2  11 -14   66.83   28.25
   2 -11  14   67.68   24.07
  -2 -11  14   37.92   15.89
   2 -11  14   29.84   12.21
  -2 -11  14   44.89   17.51
  -2  12   0   36.28   16.61
   2  12   0   31.44   23.32
   2 -12   0   -5.84    9.69
   2 -12   0   16.16    9.82
  -2 -12   0   34.58   14.62
  -2  12  -1  175.36   25.77
  -2  12   1  173.13   26.75
   2  12  -1  245.52   29.49
   2  12   1  200.69   30.11
   2 -12  -1  193.81   52.04
   2 -12   1  208.73   22.95
  -2 -12   1  192.96   16.79
   2 -12  -1  210.15   45.83
  -2 -12  -1  192.29   33.37
  -2 -12   1  189.11   50.10
  -2  12  -2   41.11   17.47
  -2  12   2   98.58   23.13
   2  12  -2   57.11   21.62
   2  12   2   68.90   23.87
   2 -12  -2   38.17   10.56
   2 -12   2   46.15   15.19
  -2 -12   2   51.03   11.63
   2 -12  -2   73.56   23.22
   2 -12   2   55.52   24.00
  -2 -12  -2   56.04   20.43
  -2 -12   2   54.03   20.39
  -2  12  -3   25.99   16.29
   2  12  -3   62.79   24.20
  -2  12   3   43.14   17.34
   2  12   3   41.86   19.35
   2 -12  -3   42.94   26.13
   2 -12   3   39.37   15.00
  -2 -12   3   26.19   10.53
   2 -12  -3   14.01    9.47
   2 -12   3   77.62   28.88
  -2 -12  -3   26.46   10.92
  -2 -12   3   56.11   22.16
  -2  12  -4   16.56   15.16
  -2  12   4   25.14   20.05
   2  12   4   25.33   16.64
   2 -12  -4   30.09   13.15
   2 -12   4   67.08   19.25
  -2 -12   4   26.04   13.08
   2 -12  -4   42.12   15.12
   2 -12   4   42.38   23.27
  -2 -12  -4   28.00   14.14
  -2 -12   4   42.31   22.43
  -2  12  -5  155.98   34.34
   2  12  -5  130.65   30.89
  -2  12   5  100.09   23.12
   2  12   5  206.16   39.74
   2 -12  -5  264.47   46.08
   2 -12   5  148.56   27.08
  -2 -12   5  167.89   28.52
   2 -12  -5  182.15   43.63
   2 -12   5  140.50   44.45
  -2 -12  -5  157.17   37.23
  -2 -12   5  208.80   53.82
  -2  12  -6   74.73   27.86
   2  12  -6    2.56   14.28
  -2  12   6   36.15   12.00
   2  12   6   15.00   17.76
   2 -12  -6   17.55    9.59
   2 -12   6   23.54   14.09
  -2 -12   6   54.64   15.41
   2 -12  -6   36.41   19.81
   2 -12   6    3.10   14.77
  -2 -12  -6   27.63   10.94
  -2 -12   6   24.48   14.96
  -2  12  -7  102.43   23.79
   2  12  -7  241.96   49.90
  -2  12   7  234.20   38.83
   2  12   7  174.20   34.84
   2 -12   7  177.89   34.08
  -2 -12   7  149.23   26.66
  -2  12   7  136.40   24.70
   2 -12  -7  184.88   33.80
   2 -12   7  144.31   48.26
  -2 -12  -7  155.61   41.14
  -2 -12   7  174.20   48.63
  -2  12  -8   28.12   16.90
   2  12  -8   38.77   16.82
  -2  12   8   12.58   11.19
   2 -12   8   44.52   20.91
  -2 -12   8   47.05   17.90
  -2  12   8   41.34   10.61
   2 -12   8   19.68   13.70
  -2 -12  -8   35.35   17.07
  -2 -12   8   54.27   24.61
  -2 -12  -9   15.11   15.47
  -2  12  -9   35.87   24.87
   2  12  -9    7.10   16.11
  -2  12   9   22.64   11.58
   2 -12   9   17.70   14.38
  -2 -12   9   59.55   19.48
   2 -12   9   34.38   18.24
  -2 -12  -9   12.96    7.29
  -2 -12   9   19.61    8.98
  -2 -12 -10   94.03   26.93
  -2  12 -10   33.24   25.21
   2  12 -10   39.08   20.36
  -2  12  10   29.04   11.00
   2 -12  10   80.56   25.93
  -2 -12  10   31.25   17.96
   2 -12  10   31.89   19.19
  -2 -12 -10   19.18    7.87
  -2 -12  10   37.55   12.79
  -2 -12 -11   32.58   21.26
  -2  12 -11   19.77   18.14
   2  12 -11   19.96   16.11
  -2  12  11    4.78    9.27
   2 -12  11   18.21   15.74
  -2 -12  11   20.21   13.78
   2 -12  11   14.17   12.95
  -2 -12  11   24.50   11.87
  -2 -12 -12   72.61   25.30
  -2  12 -12   80.38   28.39
   2  12 -12  183.82   50.47
  -2  12  12  142.81   37.91
   2 -12  12  125.52   37.56
  -2 -12  12   51.90   24.01
   2 -12  12   55.16   24.56
  -2 -12 -13   33.24   21.55
  -2  12 -13   31.51   20.11
   2  12 -13   48.08   20.16
   2 -12  13   76.43   28.67
  -2 -12  13   50.09   22.61
   2 -12  13   36.12   10.66
  -2 -12  13   43.44   21.00
  -2  13   0   93.12   26.67
   2  13   0  113.82   27.03
   2 -13   0   22.66    8.88
   2 -13   0  103.15   24.56
  -2 -13   0   65.05   23.27
  -2  13  -1    5.03   15.10
  -2  13   1   35.86   15.80
   2  13  -1   84.25   26.44
   2  13   1   53.23   24.89
   2 -13  -1   41.43    8.54
   2 -13   1   27.01   11.06
   2 -13  -1   47.41   21.41
   2 -13   1    6.60   12.93
  -2 -13  -1   70.74   21.22
  -2 -13   1   37.85   18.91
  -2  13  -2   45.18   17.68
  -2  13   2   63.78   21.43
   2  13  -2   22.39   17.10
   2  13   2   18.96   17.36
   2 -13  -2   42.05   12.26
   2 -13   2   25.52   11.61
   2 -13  -2   31.44   13.65
   2 -13   2   73.67   26.11
  -2 -13  -2   31.68   10.66
  -2 -13   2   28.33   20.82
  -2  13  -3   74.49   19.87
   2  13  -3   38.70   16.84
  -2  13   3  142.33   29.27
   2  13   3   82.22   21.63
   2 -13  -3   69.70   22.28
   2 -13   3   63.36   16.87
   2 -13  -3   77.47   21.80
   2 -13   3   98.07   38.17
  -2 -13  -3   71.75   19.48
  -2 -13   3   82.38   26.06
  -2  13  -4  358.82   42.16
   2  13  -4  275.39   49.06
  -2  13   4  245.47   41.01
   2  13   4  232.30   40.79
   2 -13  -4  198.60   41.76
   2 -13   4  302.82   47.86
  -2 -13   4  222.62   34.41
   2 -13  -4  267.21   56.78
   2 -13   4  241.84   46.65
  -2 -13  -4  206.58   68.13
  -2 -13   4  297.43   60.86
  -2  13  -5   43.83   17.98
   2  13  -5   26.83   18.19
  -2  13   5   47.73   18.98
   2  13   5   58.09   20.31
   2 -13  -5   13.24    7.70
   2 -13   5   63.64   20.99
  -2 -13   5   12.06    8.69
   2 -13  -5   24.35    9.64
   2 -13   5   67.57   18.51
  -2 -13  -5   56.41   13.67
  -2 -13   5   32.90   14.28
  -2  13  -6   35.73   17.21
  -2  13   6   32.25   12.85
   2  13   6   15.54   13.97
   2 -13   6   28.97   13.61
  -2 -13   6    8.89    9.50
   2 -13  -6   18.29   13.48
   2 -13   6   97.46   27.53
  -2 -13  -6   33.68   13.82
  -2 -13   6   39.15   11.91
  -2  13  -7   51.30   16.73
   2  13  -7   64.71   25.52
  -2  13   7   53.42   20.28
   2  13   7   30.85   16.88
   2 -13   7   17.03   14.60
  -2 -13   7   31.84   11.26
   2 -13  -7   27.21   12.77
   2 -13   7   37.00   13.73
  -2 -13  -7    8.80   13.57
  -2 -13   7   64.47   23.04
  -2  13  -8  247.40   35.36
   2  13  -8   87.64   27.78
  -2  13   8  149.42   33.28
   2  13   8  240.51   35.16
   2 -13   8   71.66   26.15
  -2 -13   8  111.96   28.14
   2 -13   8  136.75   47.83
  -2 -13  -8  139.41   50.24
  -2 -13   8  147.01   43.86
  -2  13  -9   21.91   18.37
   2  13  -9   29.70   16.88
  -2  13   9   16.46   10.67
   2  13   9   32.17   15.77
   2 -13   9   28.57   15.20
  -2 -13   9   20.39   16.35
   2 -13   9   18.21    7.82
  -2 -13  -9   35.96   14.12
  -2 -13   9    4.24    8.46
  -2  13 -10    4.00   16.75
   2  13 -10   61.40   23.27
  -2  13  10   11.43   10.34
   2  13  10   26.33   16.91
   2 -13  10   17.95   13.88
  -2 -13  10   41.13   14.36
   2 -13  10   20.09   12.88
  -2 -13  10   34.24   17.67
  -2 -13 -11   11.49   13.17
  -2  13 -11   40.80   27.74
   2  13 -11   21.44   19.78
  -2  13  11    0.53   10.74
   2 -13  11   37.51   21.45
  -2 -13  11   33.41   13.74
   2 -13  11   21.33   12.50
  -2 -13  11   11.62   10.79
  -2 -13 -12   28.36   14.36
  -2  13 -12   28.77   21.04
   2  13 -12   37.25   18.59
   2 -13  12   18.30   15.12
  -2 -13  12   -7.05   13.38
   2 -13  12   -2.08    8.54
  -2 -13  12   30.20   14.36
  -2  14   0  101.37   25.56
   2  14   0  151.22   33.35
   2 -14   0   29.73   10.04
   2 -14   0   83.48   28.52
  -2 -14   0   88.08   31.10
  -2  14  -1   63.11   23.62
  -2  14   1    8.82   12.41
   2  14  -1   65.93   24.87
   2  14   1   25.83   15.29
   2 -14   1   27.89   11.41
   2 -14  -1   19.82   14.82
   2 -14   1    7.76   22.27
  -2 -14  -1   21.36   22.07
  -2 -14   1   23.17   13.30
  -2  14  -2   80.16   22.86
  -2  14   2  153.57   32.49
   2  14  -2  191.36   37.85
   2  14   2  124.13   30.81
   2 -14  -2   81.33   25.02
   2 -14   2   91.39   20.38
   2 -14  -2   82.50   25.84
   2 -14   2  105.22   26.88
  -2 -14  -2  161.87   44.69
  -2 -14   2  141.66   33.30
  -2  14  -3   42.65   17.28
   2  14  -3   63.67   23.15
  -2  14   3   11.76   14.80
   2  14   3   51.44   22.79
   2 -14   3   11.01   10.49
   2 -14  -3   66.56   20.33
   2 -14   3   56.69   41.24
  -2 -14  -3   44.50   17.50
  -2 -14   3   63.98   29.49
   2  14  -4   77.80   22.06
  -2  14   4   88.43   25.09
   2  14   4   72.23   27.01
   2 -14   4   23.70   12.14
   2 -14  -4   49.31   16.11
   2 -14   4   90.36   29.42
  -2 -14  -4   30.10   16.07
  -2 -14   4   43.99   31.45
  -2  14  -5  128.53   34.52
  -2  14   5   67.57   23.39
   2  14   5   64.91   21.65
   2 -14   5   55.77   19.74
   2 -14  -5   45.38   17.89
   2 -14   5  115.87   39.18
  -2 -14  -5   59.73   22.72
  -2 -14   5   63.02   29.10
  -2  14  -6  217.82   37.80
   2  14  -6  111.66   31.65
  -2  14   6  155.52   34.54
   2  14   6  136.24   31.84
   2 -14   6  199.38   25.94
   2 -14  -6  175.38   41.80
   2 -14   6  140.75   57.07
  -2 -14  -6  109.52   37.22
  -2 -14   6  192.93   46.99
  -2  14  -7   40.23   26.31
   2  14  -7   82.71   30.21
  -2  14   7    9.15   13.63
   2  14   7   27.87   16.94
   2 -14   7   31.12   20.01
   2 -14  -7   18.54   13.26
   2 -14   7   27.85   14.89
  -2 -14  -7    3.06   10.14
  -2 -14   7   31.39   18.34
  -2  14  -8   45.83   25.90
   2  14  -8   36.63   20.88
  -2  14   8   43.15   19.09
   2  14   8    7.03   15.23
   2 -14   8   13.92   12.32
   2 -14   8   17.12   20.91
  -2 -14  -8   25.48    6.38
  -2 -14   8   31.42   14.59
  -2  14  -9   16.13   16.76
   2  14  -9   43.76   27.70
  -2  14   9   77.31   23.62
   2  14   9   41.50   19.08
   2 -14   9   30.76   14.23
  -2 -14   9   20.56   11.33
  -2 -14  -9   32.67    9.57
  -2 -14   9   30.46   19.14
  -2  14 -10   72.02   27.62
   2  14 -10    6.10   18.76
  -2  14  10   27.28   15.63
   2  14  10   29.15   17.46
   2 -14  10   42.19   20.56
  -2 -14  10    7.47   11.99
   2 -14  10   14.39    8.82
  -2 -14  10   46.59   19.41
  -2  15   0   53.49   19.62
   2  15   0   83.33   25.64
   2 -15   0   40.90   31.06
  -2 -15   0  120.54   34.04
  -2  15  -1   27.37   15.76
  -2  15   1   55.25   23.60
   2  15  -1   50.20   22.08
   2  15   1   46.19   20.19
   2 -15  -1   30.20   13.71
   2 -15   1   15.06   12.78
  -2 -15   1   50.34   20.73
  -2 -15  -1   47.82   36.41
  -2  15  -2    0.36   13.66
  -2  15   2    9.19   15.29
   2  15  -2   44.84   21.13
   2  15   2   70.51   29.06
   2 -15   2   18.00   14.57
   2 -15  -2   33.80   16.91
  -2 -15   2   29.06   10.37
  -2 -15  -2    4.79   23.49
  -2  15  -3   54.07   19.79
   2  15  -3   19.91   18.77
  -2  15   3   24.20   19.69
   2  15   3   33.99   18.18
   2 -15   3   15.30   11.47
   2 -15  -3    9.50    9.34
   2 -15   3   20.51   19.91
  -2 -15  -3   46.45   25.72
  -2 -15   3   28.34    8.37
  -2  15  -4   29.04   16.48
   2  15  -4   66.99   23.77
  -2  15   4   34.20   20.55
   2  15   4   -5.07   14.74
   2 -15   4   16.13   12.18
   2 -15  -4   40.14   13.60
   2 -15   4   57.58   29.46
  -2 -15  -4   43.76   18.59
  -2 -15   4  -13.70   15.57
  -2  15  -5  168.92   48.87
  -2  15   5  123.99   36.08
   2  15   5  116.27   38.75
   2 -15  -5  143.38   41.20
   2 -15   5   32.97   26.84
  -2 -15  -5   36.86   15.88
  -2 -15   5   68.25   30.02
  -2  15  -6   38.34   20.08
   2  15  -6   85.62   32.67
  -2  15   6   24.94   13.16
   2  15   6   55.53   23.28
   2 -15   6   48.30   20.65
   2 -15  -6   34.29   20.61
   2 -15   6   80.79   37.44
  -2 -15  -6   72.09   31.03
  -2 -15   6   33.09   13.49
  -2  15  -7   85.84   27.47
   2  15  -7   37.64   24.19
  -2  15   7   39.73   14.63
   2  15   7   81.90   28.45
   2 -15   7   37.64   13.20
   2 -15  -7   55.18   23.71
   2 -15   7   36.27   19.53
  -2 -15  -7   27.39   10.89
  -2 -15   7   27.56   19.06
  -2  15  -8   53.62   26.21
   2  15  -8   35.08   17.81
  -2  15   8   24.99   14.45
   2  15   8   56.19   18.43
   2 -15   8   23.23   13.82
   2 -15   8   62.11   23.36
  -2 -15  -8   -0.03   12.51
  -2 -15   8   36.69   20.80
  -2  16   0   24.08   15.94
   2  16   0   13.26   15.87
   2 -16   0   71.47   27.20
  -2 -16   0   21.75   10.48
  -2  16  -1   18.14   16.83
  -2  16   1   69.61   24.06
   2  16  -1   27.07   17.59
   2  16   1   40.31   22.83
   2 -16   1   31.28   19.03
   2 -16  -1   14.47   15.19
  -2 -16   1   32.19   15.17
  -2 -16  -1    4.69   16.60
  -2  16  -2   15.06   15.50
  -2  16   2   26.13   16.21
   2  16  -2   43.49   29.45
   2  16   2   40.96   18.84
   2 -16  -2   30.46   12.64
   2 -16   2   80.76   28.65
  -2 -16  -2   48.72   22.06
  -2 -16   2    1.25    9.78
  -2  16  -3   35.16   15.85
  -2  16   3   73.99   26.27
   2  16  -3   15.79   18.05
   2  16   3   28.54   18.18
   2 -16  -3   58.98   19.93
   2 -16   3   29.01   16.61
  -2 -16  -3   14.54    9.96
  -2 -16   3   27.50   14.53
  -2  16  -4   15.32   18.67
   2  16  -4   31.08   21.34
  -2  16   4   56.60   23.50
   2  16   4   39.07   23.86
   2 -16  -4   28.97   23.91
   2 -16   4   34.35   17.95
  -2 -16  -4   40.18   15.54
  -2 -16   4   61.87   25.25
  -2  16  -5   26.72   16.57
   2  16  -5   27.24   20.09
  -2  16   5   69.00   20.65
   2  16   5   21.31   16.23
   2 -16  -5   13.68   14.34
   2 -16   5   21.88   16.05
  -2 -16  -5   17.36   12.46
  -2 -16   5   20.82   17.80
  -3   0   0    1.79    6.23
   3   0   0    7.81    5.71
   3   0   0   12.89    8.40
  -3   0   1   18.40    4.30
  -3   0  -1   19.82    8.90
   3   0  -1   19.99    5.86
   3   0   1   22.35   10.70
   3   0  -1    4.09    9.38
  -3   0   1   14.82    9.61
   3   0   1   20.09   11.51
  -3   0  -1    9.24    9.21
  -3   0   1   45.06   12.98
  -3   0   2  125.55   15.76
   3   0  -2  135.71    6.15
   3   0   2  119.19    9.63
   3   0  -2  148.85   27.74
  -3   0   2   84.44   15.25
   3   0   2  143.69   13.93
  -3   0  -2  137.62   11.37
  -3   0   2  135.54   13.94
  -3   0  -3   93.38   13.45
   3   0   3   86.96   10.85
   3   0  -3   78.29    4.85
   3   0  -3  102.75   20.27
  -3   0  -3   89.32   10.86
  -3   0   3   93.90   12.38
  -3   0  -3   83.67   11.56
   3   0  -3   93.21   10.66
  -3   0  -4  452.23   24.03
   3   0  -4  470.14   15.65
  -3   0   4  411.30   70.04
   3   0   4  466.26   23.47
  -3   0  -4  484.09   22.53
  -3   0   4  453.45   25.83
  -3   0   4  470.26   26.66
  -3   0  -4  438.99   21.44
   3   0  -4  430.02   20.53
  -3   0  -5  148.26   17.52
   3   0  -5  147.31    8.25
  -3   0   5  136.18    7.42
   3   0   5  167.62   17.34
  -3   0   5  122.81   12.31
  -3   0  -5  165.78   14.84
   3   0  -5  127.93   12.73
  -3   0  -6  250.11   19.89
   3   0  -6  273.14   13.21
  -3   0   6  256.40   11.81
   3   0   6  279.90   22.40
  -3   0   6  286.64   16.76
  -3   0  -6  252.99   14.65
   3   0  -6  238.13   14.10
  -3   0  -7   22.88   14.33
   3   0  -7   17.45    5.74
  -3   0   7   11.75    6.54
   3   0   7    2.66    9.94
  -3   0   7    7.27   12.96
  -3   0   7   13.59    7.45
  -3   0  -7   -3.43    6.65
  -3   0  -8  204.63   28.39
   3   0  -8  125.34   11.59
  -3   0   8   92.94    9.49
   3   0   8   54.27   14.82
  -3   0   8  150.04   21.11
  -3   0  -8  107.83   10.42
  -3   0   8   90.17   12.13
  -3   0  -8  105.22   11.28
  -3   0  -9  524.30   38.79
   3   0  -9  485.97   30.92
  -3   0   9  443.79   27.95
   3   0   9  549.60   38.99
  -3   0   9  463.48   36.87
  -3   0  -9  428.96   38.22
  -3   0   9  470.13   32.20
  -3   0  -9  466.31   28.87
  -3   0 -10  183.28   24.38
   3   0 -10  143.71   18.87
  -3   0  10   90.41   15.07
   3   0  10  133.39   20.92
  -3   0  10  184.26   26.46
  -3   0 -10   80.71   17.35
  -3   0  10  128.59   14.02
  -3   0 -10  120.25   10.62
  -3   0 -11  420.94   36.49
   3   0 -11  457.06   33.02
   3   0  11  338.58   31.17
  -3   0  11  481.41   42.26
  -3   0  11  396.59   27.78
  -3   0 -11  447.08   28.58
  -3   0 -12  480.28   40.09
   3   0 -12  435.10   30.96
   3   0  12  609.67   49.62
  -3   0  12  394.36   35.90
  -3   0  12  442.98   29.15
  -3   0 -12  485.54   29.38
  -3   0 -13   35.60   20.05
   3   0 -13   18.82   10.81
   3   0  13   10.58   17.85
  -3   0  13   19.74   16.59
  -3   0  13   27.94   10.14
   3   0 -14   86.18   20.45
  -3   0 -14  119.32   30.12
   3   0  14  116.93   27.24
  -3   0  14   77.08   26.04
  -3   0 -15  323.77   52.89
   3   0 -15  309.84   46.51
   3   0  15  334.07   52.72
  -3   0  15  373.10   60.97
  -3   0 -16   44.68   16.66
   3   0 -16   15.20   10.49
   3   0  16   48.35   17.59
  -3   0  16   23.50   15.47
  -3   0 -17  268.91   41.36
   3   0 -17  140.01   32.17
   3   0  17  117.50   31.09
  -3   0  17  134.64   36.37
  -3   0 -18  247.67   63.42
   3   0  18  212.46   55.62
  -3   0  18  148.43   44.45
  -3   0 -19   38.75   27.69
   3   0  19    8.08   14.65
  -3   0  19    8.12   17.82
  -3  -1   0   22.38    8.90
   3   1   0   33.76    9.77
  -3   1   0    3.93    5.92
   3  -1   0   11.98    7.39
   3  -1   0   16.40    7.49
  -3  -1   0    6.21    7.73
   3   1   0   25.18    6.09
  -3  -1   1  590.85   24.62
   3   1  -1  561.96   20.30
   3   1   1  517.01   17.32
  -3   1   1  604.00   14.49
  -3   1  -1  608.97   19.79
   3  -1   1  544.90   16.66
   3  -1  -1  546.40   13.09
   3   1  -1  598.20   33.85
   3  -1  -1  633.25   26.41
  -3  -1   1  512.39   36.49
   3   1   1  549.13   19.36
  -3   1   1  505.25   18.91
   3  -1   1  552.03   23.23
  -3  -1  -1  558.90   17.85
  -3   1  -1  573.93   20.54
  -3  -1   1  552.88   22.10
  -3  -1  -1  518.03   21.23
   3   1   1  536.78   19.35
   3   1  -2  549.60   18.51
  -3   1   2  555.88   11.07
  -3  -1  -2  547.88   20.91
   3   1   2  527.95   19.07
   3  -1   2  566.82   19.06
   3   1  -2  516.58   14.67
   3   1  -2  521.64   22.21
   3  -1  -2  528.78   41.26
  -3  -1   2  595.85   39.57
   3   1   2  541.51   18.52
   3  -1   2  603.88   23.30
  -3   1  -2  518.12   19.31
  -3  -1  -2  584.47   18.18
  -3  -1   2  549.22   21.19
  -3  -1  -2  583.69   21.93
   3   1  -2  570.45   20.92
  -3   1   2  544.43   20.74
   3   1  -3  282.74   23.15
  -3  -1  -3  288.50   17.19
  -3   1  -3  284.11   17.13
   3  -1   3  268.39   16.80
   3   1  -3  266.78   10.56
   3   1  -3  270.16   18.09
   3  -1  -3  315.90   49.39
  -3  -1   3  231.63   46.88
  -3   1   3  255.77   39.79
   3   1   3  272.27   14.85
   3  -1   3  211.35   19.56
  -3  -1  -3  238.16   12.67
  -3  -1   3  249.31   18.59
  -3  -1  -3  274.30   15.28
   3   1  -3  284.34   15.36
  -3   1   3  258.39   15.66
  -3  -1  -4  174.67   18.48
   3   1   4  136.92   14.13
  -3   1  -4  185.60   20.84
   3   1  -4  170.83    9.93
  -3  -1   4  142.41    9.10
   3  -1  -4  181.05   19.78
  -3   1   4  126.26   19.01
   3   1   4  181.95   14.13
   3  -1   4  179.68   19.94
  -3   1  -4  159.84   14.08
  -3  -1  -4  181.89   13.15
  -3  -1   4  119.10   15.07
  -3  -1   4  164.66   14.49
  -3  -1  -4  176.96   14.49
   3   1  -4  187.77   14.15
  -3   1   4  140.93   13.28
   3  -1  -5  771.40   23.36
  -3  -1  -5  872.40   36.47
  -3   1  -5  820.06   35.72
   3   1  -5  805.09   27.41
  -3   1   5  776.38   23.43
  -3  -1   5  790.63   26.91
   3  -1   5  843.66   35.61
   3   1   5  731.72   29.71
  -3  -1  -5  789.35   30.35
  -3  -1   5  879.33   38.52
  -3   1   5  844.56   36.09
  -3  -1   5  840.63   33.93
  -3  -1  -5  819.12   30.41
  -3   1   5  745.42   29.82
   3   1  -5  792.41   31.23
   3  -1  -6   36.40    5.42
  -3  -1  -6   23.27   12.57
  -3   1  -6   12.27   12.82
   3   1  -6   58.97    7.96
  -3   1   6   55.17    5.56
  -3  -1   6   42.08    6.59
   3  -1   6   51.90   15.85
   3   1   6   67.94   14.72
  -3  -1  -6   39.86    8.40
  -3   1   6   72.54   15.71
  -3   1  -6   36.67    7.72
  -3  -1  -6   25.25   10.23
  -3   1   6   24.71    8.39
   3   1  -6   32.45    6.72
  -3  -1  -7  135.85   22.08
   3  -1  -7  100.96    8.19
  -3   1  -7  129.73   18.26
   3   1  -7  127.11   10.63
  -3   1   7  112.58    8.71
  -3  -1   7   98.26    9.05
   3  -1   7   81.88   16.39
   3   1   7   98.40   13.20
  -3  -1   7  114.49   17.80
  -3   1   7   93.32   17.07
  -3   1  -7   83.94   15.37
  -3  -1   7  116.26   14.70
  -3   1   7   96.87   13.11
  -3  -1  -7   86.97   10.23
   3   1  -7  100.26   10.93
  -3  -1  -8  747.94   51.00
   3  -1  -8  694.59   40.96
  -3   1  -8  738.65   50.72
   3   1  -8  742.97   43.99
  -3   1   8  693.82   40.39
  -3  -1   8  652.46   38.98
   3  -1   8  657.68   44.64
   3   1   8  679.76   44.38
  -3  -1   8  803.74   52.91
  -3   1   8  660.27   45.21
  -3   1  -8  603.55   52.63
  -3  -1   8  640.57   40.42
  -3   1   8  707.42   43.03
  -3  -1  -8  735.94   42.80
   3   1  -8  645.24   39.39
   3  -1  -9  168.04   14.49
  -3  -1  -9  155.01   21.75
  -3   1  -9  189.58   24.33
   3   1  -9  207.52   18.09
  -3   1   9  147.97   12.11
  -3  -1   9  131.42   11.86
   3  -1   9  198.12   23.37
   3   1   9  135.47   18.32
  -3  -1   9  196.20   25.06
  -3   1   9  138.44   19.27
  -3  -1  -9  162.18   12.52
  -3   1  -9  107.01   24.95
  -3  -1   9  166.78   16.62
  -3   1   9  162.16   14.97
  -3  -1  -9  171.59   13.89
   3   1  -9  123.12   12.12
   3  -1 -10   88.64   15.64
  -3   1 -10   95.93   22.63
   3   1 -10   61.14   13.39
  -3   1  10   83.92   13.47
   3  -1  10   58.11   16.35
   3   1  10   72.82   20.46
  -3  -1  10   92.88   21.05
  -3   1  10  136.66   26.79
  -3  -1 -10   43.69    8.64
  -3   1 -10   41.84   11.31
  -3  -1  10  109.13   18.67
  -3   1  10   76.51   14.03
  -3  -1 -10   68.28   10.65
   3   1 -10   61.97   11.81
  -3  -1 -11  133.65   28.60
   3  -1 -11   95.74   20.66
   3   1 -11   97.15   21.83
   3  -1  11  153.57   24.32
   3   1  11  187.04   22.57
  -3  -1  11  115.47   27.73
  -3   1  11  110.98   27.16
  -3  -1 -11   77.27   17.47
  -3   1 -11   63.11   16.98
  -3  -1  11  136.64   26.06
  -3   1  11  110.35   21.36
  -3  -1 -11  121.95   22.11
   3   1 -11  101.60   21.11
  -3   1 -11  102.42   20.01
  -3  -1 -12  156.31   25.92
   3  -1 -12  196.40   18.89
  -3   1 -12  155.66   23.25
   3   1 -12  139.55   25.25
   3  -1  12  183.65   26.92
   3   1  12  141.40   28.10
  -3  -1  12  203.86   29.44
  -3   1  12  117.96   29.98
  -3   1 -12  101.14   18.19
  -3  -1  12  156.83   16.43
  -3   1  12  157.95   14.04
  -3  -1 -12  156.69   10.21
  -3   1 -12  148.88   23.17
   3  -1 -13   69.15   15.45
  -3  -1 -13   95.07   21.05
  -3   1 -13   81.48   19.49
   3   1 -13  103.98   14.52
   3  -1  13  125.27   24.82
   3   1  13   81.81   25.78
  -3  -1  13  109.68   25.51
  -3   1  13   70.79   22.80
  -3  -1  13   94.28   18.71
  -3   1  13   62.88   11.67
  -3   1 -13   81.67   14.29
   3  -1 -14  183.40   24.90
  -3  -1 -14  291.70   39.68
  -3   1 -14  219.28   34.32
   3   1 -14  242.07   30.45
   3  -1  14  236.04   35.83
   3   1  14  245.87   33.92
  -3  -1  14  265.92   39.48
  -3   1  14  162.76   29.22
  -3  -1  14  220.44   24.86
   3  -1 -15   16.49    9.63
  -3  -1 -15   41.39   21.73
  -3   1 -15   37.45   17.96
   3   1 -15   11.76    9.73
   3  -1  15   26.27   18.17
   3   1  15   23.07   20.92
  -3  -1  15   11.55   17.10
  -3   1  15   -0.20   17.22
   3  -1 -16  118.94   21.66
  -3  -1 -16   74.03   23.57
  -3   1 -16  148.55   35.11
   3   1 -16   74.88   18.79
   3  -1  16  167.75   32.04
   3   1  16  118.34   30.43
  -3  -1  16  188.26   38.13
  -3   1  16  147.39   33.56
  -3  -1 -17   85.81   25.29
   3   1 -17   20.00   14.27
  -3   1 -17   69.18   22.81
   3   1  17   42.52   22.90
   3  -1  17   58.40   27.43
  -3  -1  17   36.93   20.26
  -3   1  17   63.18   27.41
  -3  -1 -18   81.01   30.08
  -3   1 -18  177.55   48.88
   3   1  18  156.17   46.05
   3  -1  18   97.59   35.37
  -3  -1  18  112.46   38.37
  -3   1  18  115.33   36.54
  -3  -1 -19   16.90   18.52
  -3   1 -19   92.92   30.89
   3  -1  19   25.95   17.74
   3   1  19    7.19   15.15
  -3  -1  19   10.14   17.01
  -3   1  19   18.07   16.84
  -3  -2   0  391.96   26.27
   3   2   0  321.82   39.27
  -3   2   0  300.65   12.13
   3  -2   0  347.31   12.66
   3   2   0  404.21   45.21
  -3  -2   0  320.88   19.85
   3  -2   0  305.74   18.87
  -3   2   0  295.38   15.48
  -3  -2   0  342.25   18.72
   3   2   0  335.23   16.54
  -3  -2   1 1227.82   27.60
   3   2  -1 1149.20   25.65
   3   2   1 1271.75   30.48
  -3   2  -1 1224.77   28.04
  -3   2   1 1188.64   23.07
   3  -2   1 1249.10   27.45
   3  -2  -1 1277.10   23.84
   3   2  -1 1236.16   28.29
  -3  -2   1 1252.25   57.55
   3  -2  -1 1295.08   54.48
   3   2   1 1221.04   29.28
  -3   2   1 1201.81   30.30
   3  -2   1 1301.39   34.28
  -3  -2  -1 1243.90   26.64
  -3  -2   1 1234.42   33.46
  -3  -2  -1 1210.90   33.12
   3   2  -1 1249.61   31.67
   3   2   1 1279.95   31.14
   3   2  -2  256.60   16.79
  -3  -2  -2  267.04   38.64
   3   2   2  193.97   13.43
  -3   2  -2  216.58   14.21
  -3   2   2  233.23    7.92
   3  -2   2  246.54   13.79
   3  -2  -2  235.82    6.77
   3   2  -2  247.10   12.11
  -3  -2   2  217.92   34.90
  -3   2   2  231.58   23.36
   3   2   2  242.03   12.08
   3  -2   2  202.77   16.96
  -3  -2  -2  254.27   11.72
  -3   2  -2  196.33   14.15
  -3  -2   2  233.58   18.48
  -3  -2  -2  252.10   16.09
   3   2   2  206.82   13.45
   3   2  -3  658.13   50.82
  -3  -2  -3  691.64   29.82
   3  -2   3  651.56   22.88
   3   2  -3  668.02   19.88
  -3  -2   3  578.08   38.45
   3  -2  -3  667.82   48.77
  -3   2   3  650.00   60.95
   3   2   3  668.13   20.05
   3  -2   3  674.57   27.44
  -3  -2  -3  696.85   19.01
  -3  -2   3  642.61   22.63
  -3  -2   3  725.62   27.08
  -3  -2  -3  626.34   21.24
   3   2   3  613.37   20.44
  -3  -2  -4  489.84   24.66
  -3   2  -4  491.41   28.19
   3  -2   4  521.81   24.38
   3   2  -4  485.89   20.09
  -3  -2   4  543.82   21.39
  -3  -2   4  479.25   22.41
   3   2   4  486.50   21.04
   3  -2   4  508.00   26.72
  -3  -2  -4  571.95   23.41
  -3  -2   4  481.99   24.67
  -3   2  -4  519.52   23.87
  -3  -2  -4  495.06   21.96
   3   2  -4  610.36   27.06
   3   2   4  526.92   22.20
   3  -2  -5 1154.63   35.06
  -3  -2  -5 1289.53   47.95
  -3   2  -5 1193.09   46.14
  -3   2   5 1190.81   34.68
   3   2  -5 1140.25   39.65
  -3  -2   5 1176.84   38.83
   3   2   5 1148.15   39.73
   3  -2   5 1210.32   46.12
  -3  -2  -5 1225.69   41.84
  -3  -2   5 1191.21   45.28
  -3   2  -5 1114.95   56.51
  -3  -2   5 1204.04   43.51
  -3  -2  -5 1288.03   43.33
   3   2  -5 1172.79   41.83
   3   2   5 1188.68   39.77
  -3   2   5 1302.58   45.14
   3  -2  -6  233.59   20.40
  -3  -2  -6  222.39   21.42
  -3   2  -6  270.47   22.98
  -3   2   6  227.93   11.59
   3   2  -6  220.85   16.93
  -3  -2   6  224.87   14.69
   3  -2   6  219.98   22.10
   3   2   6  233.97   17.33
  -3  -2  -6  252.51   18.43
  -3   2   6  285.27   23.41
  -3   2  -6  197.52   29.56
  -3  -2   6  248.93   19.01
  -3  -2  -6  235.22   16.03
   3   2  -6  233.51   17.31
  -3   2   6  230.50   16.72
   3  -2  -7  207.46   27.22
  -3  -2  -7  174.93   20.21
  -3   2  -7  174.61   21.13
  -3   2   7  236.50   12.79
   3   2  -7  222.86   16.13
  -3  -2   7  237.21   15.13
   3  -2   7  174.10   21.44
   3   2   7  184.23   15.59
  -3  -2  -7  169.85   14.05
  -3  -2   7  153.40   18.32
  -3   2   7  207.78   21.98
  -3   2  -7  136.34   22.13
  -3  -2   7  199.16   17.74
  -3  -2  -7  243.03   16.11
  -3   2   7  251.22   18.76
   3  -2  -8  496.97   30.56
  -3  -2  -8  522.86   40.67
  -3   2  -8  556.14   41.30
   3   2  -8  562.25   36.02
  -3   2   8  517.37   30.80
  -3  -2   8  541.52   34.11
   3  -2   8  544.46   39.16
   3   2   8  566.96   37.73
  -3   2   8  499.41   37.08
  -3   2  -8  377.65   51.01
  -3  -2   8  486.73   33.47
  -3  -2  -8  589.89   35.14
  -3   2   8  476.23   30.71
   3  -2  -9  396.36   25.09
  -3   2  -9  499.45   38.08
   3   2  -9  447.86   31.70
  -3   2   9  356.64   22.76
   3  -2   9  467.38   36.78
   3   2   9  437.92   32.45
  -3   2   9  442.09   33.94
  -3   2  -9  311.08   43.39
  -3  -2   9  435.10   30.06
  -3  -2  -9  425.80   26.05
  -3   2   9  410.89   27.35
   3  -2 -10   76.38   13.11
  -3  -2 -10   82.29   20.51
  -3   2 -10   50.42   16.99
   3   2 -10   80.25   16.90
   3  -2  10   65.39   16.69
   3   2  10   77.98   17.21
  -3  -2  10   80.73   19.66
  -3   2  10   82.85   23.55
  -3  -2 -10   75.23   11.14
  -3   2 -10   39.49   12.14
  -3  -2  10   70.83   13.66
  -3  -2 -10   73.93   11.48
  -3   2  10   72.66   13.86
   3  -2 -11   50.46   12.55
  -3  -2 -11   74.07   21.37
  -3   2 -11   39.65   15.19
   3   2 -11   61.68   14.66
  -3   2  11   56.45   13.02
   3  -2  11   70.73   20.83
   3   2  11   75.63   22.11
  -3  -2  11   43.80   15.32
  -3   2  11   49.61   18.37
  -3   2 -11   26.38    7.29
  -3  -2  11   28.64    9.91
  -3  -2 -11   51.39   10.26
  -3   2  11   50.23   12.33
   3  -2 -12   30.63    8.43
  -3  -2 -12   11.59   13.33
  -3   2 -12   85.56   23.80
   3   2 -12   85.89   19.93
   3  -2  12   88.25   25.54
   3   2  12   55.65   16.03
  -3  -2  12  114.77   26.56
  -3   2  12   58.81   19.03
  -3   2 -12   63.35   13.69
  -3  -2  12   82.45   16.66
   3  -2 -13   79.05   18.88
  -3  -2 -13  137.75   29.19
  -3   2 -13   40.14   17.15
   3   2 -13   52.00   16.75
   3  -2  13   26.56   15.55
   3   2  13  102.78   22.20
  -3  -2  13   84.93   31.64
  -3   2  13   37.06   17.47
  -3  -2  13   45.40   11.72
  -3   2  13   50.49   10.94
   3  -2 -14  184.03   24.57
  -3  -2 -14  309.58   42.38
  -3   2 -14  296.30   41.44
   3   2 -14  207.57   27.30
   3  -2  14  299.72   41.64
   3   2  14  263.52   38.17
  -3  -2  14  261.98   39.08
  -3   2  14  247.50   36.30
  -3  -2  14  235.65   27.14
   3  -2 -15   14.31   11.80
  -3  -2 -15   64.92   22.88
  -3   2 -15   16.75   17.66
   3   2 -15   11.50   14.64
   3  -2  15   46.57   23.15
   3   2  15   25.61   14.02
  -3  -2  15   35.97   17.58
  -3   2  15   33.89   17.00
   3  -2 -16   57.23   14.04
  -3  -2 -16   54.62   17.78
  -3   2 -16  106.20   28.26
   3   2 -16  114.87   22.06
   3  -2  16  123.30   28.63
   3   2  16   83.60   24.19
  -3  -2  16   85.47   22.66
  -3   2  16  134.29   26.45
  -3  -2 -17  158.42   38.52
  -3   2 -17   71.54   26.53
   3   2 -17   93.11   24.47
   3  -2  17  162.12   40.57
   3   2  17  139.76   38.25
  -3  -2  17  143.05   39.79
  -3   2  17  150.91   39.92
  -3  -2 -18   20.44   21.72
  -3   2 -18   46.95   28.48
   3  -2  18   73.71   29.13
   3   2  18    8.33   14.89
  -3  -2  18   26.21   25.66
  -3   2  18    8.37   17.06
  -3  -2 -19   33.15   17.34
  -3   2 -19   31.28   25.75
   3  -2  19   10.19   15.92
   3   2  19   32.31   22.19
  -3  -2  19   31.07   19.68
  -3   2  19   23.23   16.75
   3   3   0  136.15   15.29
  -3   3   0  144.25   13.25
   3  -3   0  147.82   10.78
   3   3   0  137.32   14.60
  -3  -3   0  121.27   13.78
   3  -3   0   99.54   15.80
  -3   3   0  119.69   10.79
  -3   3   0  157.23   15.04
  -3  -3   0  138.96   16.36
   3   3   0  120.83   13.07
  -3  -3   1   83.00   11.10
  -3  -3  -1  106.47   14.11
   3   3  -1   70.49   12.90
   3   3   1   86.12   14.24
  -3   3  -1   57.96   10.45
  -3   3   1   61.76    6.93
   3  -3   1   64.82    9.45
   3  -3  -1   65.91    6.32
  -3  -3   1   60.39    8.71
   3   3   1   63.24   11.89
  -3   3   1   51.14    7.48
   3  -3   1   68.90   11.56
  -3  -3  -1   67.74    6.46
  -3   3  -1   62.07   10.57
  -3  -3   1   73.78    8.44
  -3   3  -1   74.75    9.30
  -3  -3   1   73.77   14.17
  -3  -3  -1   85.46   16.07
   3   3   1   39.13   10.05
   3   3  -2 1676.37   53.55
  -3  -3  -2 1653.37   80.95
  -3   3  -2 1733.91   57.24
   3  -3   2 1658.77   53.60
  -3   3   2 1668.87   49.88
   3  -3  -2 1619.04   48.05
   3   3  -2 1682.78   54.92
  -3  -3   2 1590.57   51.29
   3  -3  -2 1630.44   55.61
   3   3   2 1730.16   60.56
  -3   3   2 1559.66   52.03
  -3  -3  -2 1635.62   49.48
  -3   3  -2 1621.89   54.81
  -3  -3   2 1703.35   54.68
  -3   3  -2 1565.31   52.68
  -3  -3   2 1555.40   54.61
  -3  -3  -2 1687.61   56.88
   3   3  -2 1506.93   51.47
   3   3   2 1642.69   54.44
   3   3  -3 1127.79   38.44
  -3   3   3 1150.37   35.93
  -3  -3  -3 1210.25   45.90
   3  -3   3 1178.87   41.65
  -3   3   3 1138.70   34.49
   3   3  -3 1167.56   40.74
  -3  -3   3 1178.53   41.06
   3  -3  -3 1211.93   44.98
  -3   3   3 1205.00   43.37
   3   3   3 1134.58   36.44
   3  -3   3 1031.02   41.24
  -3  -3  -3 1177.64   37.48
  -3  -3   3 1086.55   39.96
  -3   3  -3 1004.30   62.78
  -3  -3   3 1099.66   43.07
  -3  -3  -3 1178.62   42.62
   3   3   3 1153.25   40.35
  -3  -3  -4    8.27    8.73
  -3   3   4   23.27    4.26
  -3   3  -4   41.24   15.30
   3   3  -4   51.40   10.53
  -3   3   4   35.38    5.67
  -3  -3   4   16.64    6.95
  -3  -3   4   31.36   10.39
   3  -3  -4   38.86   13.66
   3   3   4   41.66   10.98
   3  -3   4   63.11   16.04
  -3  -3  -4   26.81    6.88
  -3  -3   4   47.37   15.97
  -3   3  -4   22.83    8.39
  -3  -3   4   26.26   11.20
  -3  -3  -4   30.37   10.12
   3   3   4   26.95    6.97
  -3  -3  -5   96.53   22.51
  -3   3   5   91.16    6.68
  -3   3  -5  114.59   18.89
   3   3  -5   66.97    9.54
  -3   3   5   90.50    6.57
   3  -3   5   74.09   18.47
   3   3   5  104.09   10.91
  -3  -3  -5   59.75    7.75
  -3  -3   5   65.72   13.10
  -3   3  -5   74.66   14.62
  -3  -3   5   51.66   11.18
  -3  -3  -5  106.68   10.36
   3   3   5   81.36    8.47
   3  -3  -6  746.12   32.37
  -3  -3  -6  604.61   34.91
  -3   3   6  723.36   31.85
  -3   3  -6  704.72   41.82
   3   3  -6  768.14   37.49
  -3  -3   6  684.88   33.35
   3  -3   6  676.80   38.96
   3   3   6  766.83   36.44
  -3  -3  -6  697.89   33.31
  -3  -3   6  623.70   34.47
  -3   3   6  768.17   41.77
  -3  -3   6  658.93   35.88
  -3  -3  -6  760.93   37.04
   3   3   6  688.82   32.54
   3  -3  -7  866.47   48.98
  -3  -3  -7  987.77   62.70
  -3   3   7  832.50   46.91
  -3   3  -7  803.99   54.96
   3   3  -7  826.12   49.80
  -3  -3   7  792.88   47.20
   3  -3   7  806.07   52.57
   3   3   7  881.35   52.32
  -3  -3  -7  810.37   48.01
  -3  -3   7  945.21   60.20
  -3   3   7  861.98   54.76
  -3  -3   7  874.33   54.00
  -3  -3  -7  794.27   46.34
   3   3   7  810.91   46.84
  -3   3   7  910.47   54.65
   3  -3  -8  357.49   26.74
  -3  -3  -8  406.44   32.47
  -3   3  -8  397.39   33.70
  -3   3   8  312.50   19.73
   3   3  -8  402.44   29.43
   3  -3   8  345.07   29.59
   3   3   8  339.86   24.32
  -3  -3   8  413.38   32.98
  -3   3   8  342.98   28.21
  -3  -3   8  365.52   27.93
  -3  -3  -8  359.95   23.64
  -3   3   8  371.41   25.62
   3  -3  -9  183.52   30.35
  -3   3  -9  165.49   21.20
  -3   3   9  145.11   12.20
   3   3  -9  140.75   16.92
   3  -3   9  199.47   26.27
   3   3   9  107.13   16.82
  -3  -3   9  171.88   21.69
  -3   3   9  124.94   18.84
  -3   3   9  118.84   11.51
  -3  -3   9  125.68   17.14
  -3  -3  -9  145.71   11.88
  -3   3   9  161.05   14.88
   3  -3 -10  151.37   28.21
  -3  -3 -10  138.67   25.43
  -3   3 -10  173.50   24.60
   3   3 -10  169.58   19.80
  -3   3  10  143.23   20.00
   3  -3  10  188.43   25.48
   3   3  10  143.38   25.33
  -3  -3  10  179.35   19.52
  -3   3  10  164.65   22.98
  -3   3  10  158.25   28.84
  -3  -3  10  141.93   22.71
  -3  -3 -10  176.72   12.40
  -3   3  10  172.23   14.07
   3  -3 -11  110.65   28.52
  -3  -3 -11  134.75   30.01
  -3   3 -11  126.94   28.86
   3   3 -11   96.21   21.48
  -3   3  11   74.01   15.92
   3  -3  11   95.51   25.61
   3   3  11   95.13   21.83
  -3  -3  11  112.22   29.02
  -3   3  11  109.51   28.55
  -3   3  11   64.43   19.65
  -3  -3  11  125.57   26.15
  -3   3  11  148.26   14.53
   3  -3 -12  187.93   32.47
  -3  -3 -12  225.85   28.16
   3   3 -12  276.64   28.77
   3  -3  12  167.30   27.00
   3   3  12  191.34   22.63
  -3   3  12  200.56   27.47
  -3  -3  12  211.78   20.09
  -3   3  12  197.40   17.06
   3  -3 -13   14.05    8.52
  -3  -3 -13   40.47   15.76
  -3   3 -13   43.10   15.15
   3   3 -13   29.80   14.63
   3  -3  13   20.69   15.47
   3   3  13    6.07   12.01
  -3  -3  13   33.16   21.41
  -3   3  13   18.35   14.42
  -3  -3  13   36.93   13.09
   3  -3 -14   55.31   15.73
  -3  -3 -14   71.93   20.88
  -3   3 -14   99.77   24.91
   3   3 -14   35.36   17.25
   3  -3  14   35.39   18.23
   3   3  14   89.99   20.51
  -3  -3  14   90.96   27.62
  -3   3  14   46.10   19.86
  -3  -3  14   58.66   15.34
   3  -3 -15   17.58   11.17
  -3  -3 -15   29.31   13.27
  -3   3 -15   48.31   24.57
   3   3 -15   29.42   12.51
   3  -3  15   41.11   18.59
   3   3  15   44.27   13.86
  -3  -3  15   37.77   16.10
  -3   3  15   19.26   16.17
  -3  -3 -16   87.33   24.18
  -3   3 -16   70.64   21.93
   3   3 -16  109.23   25.57
   3  -3  16   49.71   16.84
   3   3  16   47.82   16.13
  -3  -3  16   35.72   16.93
  -3   3  16   52.13   16.71
  -3  -3 -17   26.76   14.45
  -3   3 -17   37.24   17.30
   3   3 -17   12.56   11.81
   3  -3  17   16.68   16.82
   3   3  17   37.08   15.37
  -3  -3  17   16.27   16.07
  -3   3  17   49.19   16.64
  -3  -3 -18  100.52   31.04
  -3   3 -18   46.25   23.15
   3   3 -18   35.71   16.57
   3  -3  18   67.36   24.17
   3   3  18   17.33   14.46
  -3  -3  18   37.60   20.12
  -3   3  18   33.21   18.95
   3   4   0 1861.62   60.53
  -3   4   0 1917.08   60.81
   3  -4   0 1877.57   58.94
  -3  -4   0 1821.83   54.25
   3  -4   0 1933.00   66.47
  -3  -4   0 1957.90   58.75
  -3  -4  -1  336.90   33.22
   3   4  -1  251.74   39.28
   3   4   1  231.46   27.30
  -3   4  -1  243.85   18.42
  -3   4   1  283.73   15.66
   3  -4   1  252.89   15.19
   3  -4  -1  286.56   15.23
   3   4  -1  248.15   17.70
   3   4   1  249.51   11.46
  -3  -4   1  257.99   32.19
  -3  -4  -1  284.57   11.86
   3  -4   1  220.40   19.48
  -3   4   1  257.23   16.90
  -3  -4   1  290.37   15.09
   3   4  -2  923.00   68.52
  -3  -4  -2 1022.65   40.08
  -3   4  -2 1054.80   40.45
   3  -4   2  945.16   35.41
  -3   4   2 1026.66   34.36
   3   4  -2  933.28   36.29
   3  -4  -2  945.64   31.48
  -3  -4   2  987.10   40.77
   3   4   2  990.51   32.32
  -3  -4  -2 1011.54   30.94
  -3  -4   2  947.07   33.84
  -3  -4   2 1003.93   39.52
  -3  -4  -2  911.90   36.88
   3   4   2  913.05   35.03
   3   4  -3   36.24    7.72
  -3   4   3   21.66    4.10
  -3  -4  -3   40.11    8.44
  -3   4  -3   27.24   15.83
   3  -4   3   20.12    8.57
   3   4  -3   44.96   14.43
  -3  -4   3   23.97   10.37
   3  -4  -3   10.66    9.70
   3   4   3   24.72    4.43
   3  -4   3   15.02   12.17
  -3  -4  -3   29.96    5.23
  -3  -4   3   22.87    9.02
  -3   4   3   17.38    5.75
  -3  -4   3   62.61   17.21
  -3  -4  -3   38.55   10.50
   3   4   3   31.61    8.50
  -3   4   4  694.08   30.55
  -3  -4  -4  703.83   68.18
   3   4  -4  744.81   31.75
  -3   4   4  758.72   26.09
  -3  -4   4  653.24   27.41
   3  -4  -4  723.50   48.00
   3   4   4  707.17   24.67
   3  -4   4  699.50   33.36
  -3  -4  -4  735.41   24.56
  -3  -4   4  714.83   30.38
   3   4  -4  681.33   27.71
  -3   4   4  616.09   36.81
  -3  -4   4  704.78   32.35
  -3  -4  -4  771.86   31.98
   3   4   4  657.11   27.22
  -3  -4  -5  498.11   51.85
  -3   4   5  422.61   20.86
  -3   4  -5  435.26   29.44
   3   4  -5  448.55   27.11
  -3   4   5  410.30   20.13
  -3  -4   5  407.71   23.39
   3  -4  -5  422.04   70.08
   3   4   5  409.48   20.64
   3  -4   5  412.75   30.37
  -3  -4  -5  417.85   20.72
  -3  -4   5  437.21   29.33
  -3   4   5  304.16   59.87
  -3  -4   5  367.79   24.24
  -3  -4  -5  505.48   28.07
   3   4   5  370.86   21.21
  -3  -4  -6  340.84   41.72
  -3   4   6  372.69   19.14
  -3   4  -6  302.42   24.76
   3   4  -6  372.67   25.29
   3  -4  -6  340.84   24.27
   3  -4   6  294.12   25.94
   3   4   6  313.79   18.56
  -3  -4  -6  291.85   16.53
  -3  -4   6  305.45   22.64
  -3   4   6  241.65   30.86
  -3  -4   6  336.20   27.13
  -3  -4  -6  323.76   19.49
   3   4   6  315.25   19.15
   3  -4  -7  241.30   39.98
  -3  -4  -7  228.33   45.23
  -3   4   7  260.80   17.56
  -3   4  -7  265.46   25.58
   3   4  -7  269.76   22.82
   3  -4   7  213.90   23.92
   3   4   7  267.28   20.73
  -3  -4  -7  217.56   16.84
  -3  -4   7  289.42   25.27
  -3   4   7  283.47   27.17
  -3   4   7  179.75   26.19
  -3  -4   7  312.30   28.91
  -3  -4  -7  277.73   20.99
   3   4   7  227.32   17.12
   3  -4  -8   21.70    6.52
  -3  -4  -8    5.61   13.38
  -3   4   8   13.16    4.89
  -3   4  -8   27.14   18.72
   3   4  -8   25.75   10.26
   3  -4   8   21.93   13.63
   3   4   8   40.73   12.42
  -3  -4   8   18.14   11.52
  -3  -4  -8   19.55    7.04
  -3   4   8   29.49   12.44
  -3   4   8    7.43    7.60
  -3  -4   8   22.05   11.27
  -3  -4  -8   50.58   14.25
   3   4   8   14.30    6.47
   3  -4  -9  219.08   38.78
  -3  -4  -9  236.38   43.03
  -3   4   9  193.61   13.67
  -3   4  -9  245.93   23.65
   3   4  -9  292.72   22.56
   3  -4   9  259.26   25.64
   3   4   9  252.35   20.93
  -3  -4   9  206.53   22.78
  -3   4   9  252.68   22.98
  -3   4   9  139.61   34.38
  -3  -4   9  234.32   19.59
  -3  -4  -9  270.82   17.38
  -3   4   9  272.72   18.66
   3  -4 -10  121.36   28.09
  -3  -4 -10  128.30   41.70
  -3   4 -10  174.80   22.62
  -3   4  10  105.60   20.46
   3   4 -10  123.41   27.59
   3  -4  10  121.94   26.67
   3   4  10   90.03   19.81
  -3  -4  10  102.06   26.75
  -3   4  10  131.73   27.96
  -3   4  10   72.99   22.78
  -3  -4 -10  109.75   20.66
  -3  -4  10   97.70   22.31
  -3   4  10  134.85   25.17
   3  -4 -11  196.05   32.78
  -3  -4 -11  222.38   27.79
  -3   4 -11  245.20   28.22
   3   4 -11  286.91   27.25
   3  -4  11  291.28   31.30
   3   4  11  256.91   24.33
  -3  -4  11  198.32   22.33
  -3   4  11  274.78   30.24
  -3   4  11  140.94   32.10
  -3  -4 -11  221.33   15.09
  -3  -4  11  170.81   17.29
  -3   4  11  214.99   17.70
   3  -4 -12   82.91   23.83
  -3  -4 -12  145.58   23.57
   3   4 -12  103.55   18.67
   3  -4  12  128.22   23.93
   3   4  12  105.89   16.20
  -3  -4  12  111.89   22.42
  -3   4  12  164.00   25.29
  -3  -4  12   85.84   18.13
  -3   4  12   98.45   12.45
   3  -4 -13  131.69   26.19
  -3  -4 -13  153.39   24.59
  -3   4 -13  214.76   32.03
   3   4 -13  244.04   29.37
   3  -4  13  224.61   32.55
   3   4  13  172.81   20.28
  -3  -4  13  181.00   25.64
  -3   4  13  195.17   31.67
  -3  -4  13  222.49   27.96
   3  -4 -14   19.43    7.43
  -3  -4 -14   67.79   22.13
  -3   4 -14   43.08   15.40
   3   4 -14   38.71   16.75
   3  -4  14   69.08   23.09
   3   4  14   90.62   21.06
  -3  -4  14   43.19   17.18
  -3   4  14   29.18   15.62
  -3  -4  14   27.88   11.12
   3  -4 -15   86.04   18.47
  -3  -4 -15  120.73   24.33
  -3   4 -15  148.26   32.98
   3   4 -15   65.62   16.36
   3  -4  15  100.72   25.19
   3   4  15   47.08   16.64
  -3  -4  15  107.94   24.73
  -3   4  15   86.68   20.93
  -3  -4 -16   95.25   35.97
  -3   4 -16   59.55   17.18
   3   4 -16   70.12   19.65
   3  -4  16  101.36   30.69
   3   4  16   54.95   15.15
  -3   4  16   21.20   16.81
  -3  -4 -17   35.49   15.70
  -3   4 -17   23.31   19.56
   3   4 -17   64.75   21.82
   3  -4  17  114.78   35.76
   3   4  17   85.42   24.06
  -3  -4  17   52.52   20.08
  -3   4  17   44.53   22.41
  -3  -4 -18   16.76   12.58
  -3   4 -18   88.43   35.64
   3   4 -18    8.12   12.90
   3  -4  18   47.10   21.59
   3   4  18   65.31   23.48
  -3  -4  18   64.35   28.75
  -3   4  18  109.17   32.92
  -3  -5   0  996.32   39.36
  -3   5   0  885.38   34.38
   3  -5   0  919.22   34.06
  -3  -5   0  928.46   36.48
   3  -5   0  941.50   38.41
  -3  -5   0  980.70   31.79
  -3  -5   0  989.31   39.66
  -3  -5  -1  312.58   26.84
  -3   5  -1  273.79   19.13
  -3   5   1  305.77   17.03
   3  -5   1  266.36   16.35
   3  -5  -1  300.23   15.76
   3   5  -1  316.65   21.77
  -3  -5   1  317.93   17.17
   3  -5  -1  298.75   50.06
  -3  -5  -1  284.28   10.68
   3  -5   1  337.01   22.85
  -3  -5   1  272.49   14.25
  -3  -5  -1  286.35   11.11
  -3  -5  -1  328.12   25.51
  -3  -5  -2   36.92   12.72
  -3   5  -2   19.68   11.37
  -3   5   2    8.94    8.64
   3   5  -2    0.57   12.16
   3  -5  -2   13.80    6.25
  -3  -5   2   33.00    7.60
   3  -5  -2   25.99   12.79
  -3  -5   2   21.51    6.97
  -3  -5  -2   13.33    3.02
  -3  -5   2   40.99   12.06
  -3  -5  -2   22.44   15.76
  -3   5   3 1180.04   51.15
  -3  -5  -3 1260.95   81.26
  -3   5  -3 1133.59   54.06
  -3   5   3 1107.94   48.56
   3   5  -3 1102.40   53.66
   3   5   3 1058.68   43.31
   3  -5  -3 1133.73   73.78
   3  -5   3 1219.57   59.06
  -3  -5   3 1059.63   48.12
   3   5  -3 1035.72   46.90
  -3  -5   3 1050.77   53.04
  -3  -5  -3 1139.43   55.45
  -3   5   4 2166.62   89.88
  -3  -5  -4 2322.14  131.17
  -3   5  -4 2361.24  132.70
   3   5  -4 2335.89  130.36
  -3   5   4 2285.59  124.49
   3  -5  -4 2406.95  134.54
   3   5   4 2269.00   90.97
  -3  -5   4 2264.41   97.20
   3   5  -4 2195.79   93.02
  -3  -5   4 2199.48   97.98
  -3  -5  -4 2328.28  129.49
  -3  -5  -5  373.18   72.49
  -3   5   5  289.25   25.82
  -3   5  -5  274.91   25.58
   3   5  -5  337.85   23.61
  -3   5   5  346.12   19.03
   3  -5  -5  357.10   60.36
   3   5   5  364.52   18.17
  -3  -5   5  314.72   21.97
  -3  -5  -5  317.32   15.56
  -3  -5   5  359.51   26.68
  -3  -5  -5  322.67   21.72
  -3  -5  -6  408.44   58.06
  -3   5   6  338.56   21.58
  -3   5  -6  405.98   32.13
   3   5  -6  399.31   29.18
  -3   5   6  341.58   22.65
   3  -5  -6  400.15   31.56
   3   5   6  414.75   25.59
   3  -5   6  411.88   33.55
  -3  -5   6  405.03   29.72
  -3  -5  -6  374.81   23.44
  -3  -5   6  436.54   33.34
  -3  -5  -6  412.33   29.31
   3   5   6  406.58   26.97
   3  -5  -7  530.60   32.77
  -3  -5  -7  509.38   46.58
  -3   5   7  459.82   28.18
  -3   5  -7  488.73   37.01
   3   5  -7  577.11   40.60
   3  -5   7  509.52   39.21
   3   5   7  523.15   32.33
  -3  -5   7  566.96   41.77
  -3  -5  -7  457.38   27.95
  -3   5   7  497.21   35.15
  -3  -5   7  534.11   37.01
  -3  -5  -7  564.24   35.65
   3   5   7  489.45   30.83
   3  -5  -8   37.11    9.29
  -3   5   8   16.42    7.72
  -3   5  -8   15.60   12.76
   3   5  -8   44.08   16.30
   3  -5   8   38.51   19.24
   3   5   8   41.38   13.19
  -3  -5   8    8.05   11.72
  -3  -5  -8   16.52    7.27
  -3   5   8   21.71   14.09
  -3  -5   8   24.73   11.33
  -3  -5  -8   47.78   15.32
   3   5   8   11.13    7.70
   3  -5  -9   33.59    7.59
  -3  -5  -9   22.40   16.32
  -3   5   9   41.62    8.91
  -3   5  -9   50.60   15.74
   3   5  -9   54.53   16.29
   3  -5   9   35.52   13.46
   3   5   9   32.61   10.97
  -3  -5   9   25.55   13.28
  -3   5   9   52.47   17.05
  -3  -5  -9   66.07   12.24
  -3  -5   9   25.17   11.34
   3   5   9   40.26    9.03
   3  -5 -10  342.00   49.91
  -3  -5 -10  318.89   48.44
  -3   5 -10  257.73   29.08
   3   5 -10  278.32   25.49
   3  -5  10  205.28   26.01
   3   5  10  358.92   28.33
  -3  -5  10  306.36   30.29
  -3   5  10  314.59   31.08
  -3  -5 -10  302.98   21.76
  -3  -5  10  311.07   29.05
  -3   5  10  306.16   24.00
   3  -5 -11   56.12   14.52
  -3  -5 -11   67.92   23.69
  -3   5 -11   74.54   23.65
   3   5 -11   40.96   13.84
   3  -5  11   58.45   20.04
   3   5  11   81.35   17.33
  -3  -5  11   93.59   26.43
  -3   5  11   60.92   22.24
  -3  -5 -11   31.82    8.73
  -3  -5  11   49.45   16.41
  -3   5  11   33.24    8.50
   3  -5 -12   78.88   20.23
  -3  -5 -12   58.64   16.69
  -3   5 -12   99.76   23.64
   3   5 -12   82.30   24.61
   3  -5  12  107.03   28.27
   3   5  12   93.34   16.23
  -3  -5  12  137.93   26.98
  -3   5  12  125.62   22.49
  -3  -5  12   93.32   16.00
  -3   5  12   74.81   15.03
   3  -5 -13  137.50   26.87
  -3  -5 -13  126.43   26.99
  -3   5 -13  121.98   25.66
   3   5 -13  241.76   35.24
   3  -5  13   77.82   24.68
   3   5  13  190.14   28.48
  -3  -5  13  172.85   33.78
  -3   5  13  191.82   32.18
  -3  -5  13  125.46   20.45
   3  -5 -14   16.48    8.76
  -3  -5 -14   23.87   13.36
  -3   5 -14   28.23   20.40
   3   5 -14   14.55   11.70
   3  -5  14   93.63   30.27
   3   5  14   28.67   14.74
  -3  -5  14   51.20   26.34
  -3   5  14   18.25   13.40
  -3  -5  14   11.09    8.94
   3  -5 -15   35.48   13.40
  -3  -5 -15   66.16   23.68
   3   5 -15   98.62   21.35
   3  -5  15  109.06   29.18
   3   5  15  111.73   21.82
  -3  -5  15   69.42   27.22
  -3   5  15   55.76   17.17
  -3  -5  15   55.64   16.81
  -3  -5 -16  161.60   51.35
  -3   5 -16  153.29   37.36
   3   5 -16  125.96   31.61
   3  -5  16   75.91   25.70
   3   5  16  110.55   28.40
  -3  -5  16  168.26   41.00
  -3   5  16  129.96   32.55
  -3  -5 -17   97.03   38.70
  -3   5 -17   84.25   29.85
   3   5 -17  113.15   34.48
   3  -5  17   34.19   18.44
   3   5  17   96.00   29.18
  -3  -5  17   88.48   32.92
  -3   5  17  158.19   44.66
  -3  -5 -18   26.07   18.78
  -3   5 -18   75.65   29.97
   3   5 -18   36.78   18.11
   3  -5  18   35.44   18.76
   3   5  18   55.67   21.08
  -3  -5  18    2.87   17.36
  -3   5  18   37.96   17.34
  -3   6   0  130.68   14.09
   3   6   0  136.86   17.35
  -3  -6   0  105.25   12.65
   3  -6   0  139.38   18.51
  -3  -6   0  135.90    9.14
   3  -6   0  143.17   18.27
  -3  -6   0  140.34   18.37
  -3  -6  -1   39.44   12.53
  -3   6   1   20.26    9.82
   3  -6  -1   28.68    7.37
   3   6  -1   39.30   10.16
  -3  -6   1   43.55   10.78
   3  -6  -1   65.13   18.15
   3  -6   1   64.07   12.71
  -3  -6  -1   49.69    3.98
  -3  -6   1   52.06    6.66
   3  -6   1   84.00   18.58
  -3  -6  -1   27.32   11.25
  -3  -6   1   54.79   17.23
  -3  -6  -2  279.13   59.69
  -3   6  -2  287.01   22.30
  -3   6   2  206.05   15.41
   3   6  -2  235.62   18.62
   3  -6  -2  221.77   15.48
  -3  -6   2  252.32   15.59
   3  -6  -2  276.88   53.40
   3  -6   2  211.89   18.84
  -3  -6   2  248.88   17.98
   3  -6   2  220.00   22.39
  -3  -6  -2  221.00   22.75
  -3  -6   2  215.20   23.31
  -3   6   3 1024.09   45.73
  -3  -6  -3 1100.41   55.62
  -3   6  -3 1170.15   58.43
  -3   6   3 1116.12   50.47
   3   6  -3 1107.21   54.30
   3  -6  -3  982.49   48.56
   3  -6   3 1107.92   55.45
  -3  -6   3 1068.77   48.82
   3  -6   3 1139.71   56.01
  -3  -6   3 1026.71   53.07
  -3  -6  -3 1048.55   51.90
  -3  -6  -4   26.19   13.90
  -3   6   4    8.02    3.97
  -3   6  -4   11.21   12.75
   3   6  -4   22.91   11.87
  -3   6   4   21.14    7.87
   3  -6  -4   14.77    7.89
   3  -6   4   56.66   19.07
  -3  -6   4   18.72    7.50
   3   6  -4    2.11    5.19
   3  -6   4   -1.08   11.52
  -3  -6  -4   27.18    9.87
  -3  -6   4   -4.46   12.72
  -3  -6  -5  281.65   55.60
  -3   6   5  159.80   33.29
  -3   6  -5  186.94   22.37
   3   6  -5  281.91   25.60
  -3   6   5  219.49   17.44
   3  -6  -5  246.14   48.69
   3   6   5  202.29   12.13
   3  -6   5  229.72   24.43
  -3  -6   5  176.76   17.65
   3  -6   5  233.14   23.97
  -3  -6  -5  252.57   21.27
  -3  -6   5  265.10   25.11
  -3  -6  -6  229.21   36.24
  -3   6   6  174.14   31.98
  -3   6  -6  238.08   24.28
   3   6  -6  262.61   24.11
  -3   6   6  266.00   19.96
   3  -6  -6  272.41   24.98
   3   6   6  209.47   13.77
   3  -6   6  202.58   24.09
  -3  -6   6  265.80   26.25
  -3  -6  -6  199.11   12.72
   3  -6   6  228.75   23.06
  -3  -6   6  229.28   23.37
  -3  -6  -6  279.94   23.07
  -3   6   7  243.04   18.44
  -3   6  -7  266.59   26.79
   3   6  -7  275.58   29.35
  -3   6   7  234.60   17.43
   3  -6   7  280.95   27.58
   3   6   7  311.62   20.67
  -3  -6   7  330.34   30.98
  -3  -6  -7  254.52   16.85
   3  -6   7  374.24   29.64
  -3  -6  -7  263.04   20.48
  -3  -6   7  253.22   24.27
   3  -6  -8  203.73   17.74
  -3  -6  -8  187.61   27.25
  -3   6   8  158.95   29.58
  -3   6  -8  199.92   24.54
   3   6  -8  128.58   22.59
   3   6   8  159.29   29.67
  -3  -6   8  193.17   23.22
  -3  -6  -8  123.94   17.09
  -3   6   8  175.36   18.82
   3  -6   8  210.30   20.53
  -3  -6  -8  181.93   17.52
  -3  -6   8  125.77   21.83
   3  -6  -9  129.56   32.15
  -3  -6  -9  131.95   36.40
  -3   6  -9  214.96   26.42
   3   6  -9  154.52   21.43
   3  -6   9  181.41   23.16
   3   6   9  135.34   25.12
  -3  -6   9  125.27   28.63
  -3  -6  -9  102.71   20.16
  -3   6   9  118.89   27.16
  -3  -6  -9  157.43   14.85
  -3  -6   9  127.69   26.93
   3   6   9  110.55   22.02
   3  -6 -10   32.21   14.61
  -3  -6 -10   18.42    6.86
  -3   6 -10   59.76   19.68
   3   6 -10   24.54   12.89
   3  -6  10   61.22   22.82
   3   6  10   38.35   12.93
  -3  -6  10   36.00   14.55
  -3   6  10   51.92   20.91
  -3  -6 -10   60.55   12.88
  -3  -6  10   17.91   11.66
   3  -6 -11   73.51   18.81
  -3  -6 -11   66.32   21.51
  -3   6 -11   75.49   25.34
   3   6 -11   26.44   17.14
   3  -6  11   22.54   16.45
   3   6  11   85.82   17.12
  -3  -6  11   71.73   22.33
  -3   6  11   90.63   23.68
  -3  -6 -11   21.38    6.13
  -3  -6  11   74.64   17.98
  -3   6  11   38.54    9.24
   3  -6 -12  168.91   43.29
  -3  -6 -12  200.96   45.95
  -3   6 -12  180.46   33.50
   3   6 -12  220.87   30.84
   3  -6  12  251.59   38.33
   3   6  12  234.04   29.69
  -3  -6  12  275.78   41.63
  -3   6  12  183.76   28.94
  -3  -6  12  205.36   28.52
  -3   6  12  187.09   22.03
   3  -6 -13   92.26   29.67
  -3  -6 -13  191.00   43.76
   3   6 -13  146.10   28.47
   3  -6  13   79.79   26.40
   3   6  13  147.53   28.49
  -3  -6  13  136.40   31.45
  -3   6  13  141.10   28.41
  -3  -6  13  140.32   27.13
   3  -6 -14   68.30   25.06
  -3  -6 -14   83.62   21.04
  -3   6 -14   66.95   21.24
   3   6 -14   89.97   18.84
   3  -6  14  111.70   27.89
   3   6  14  132.08   26.42
  -3  -6  14   91.41   27.78
  -3  -6  14   92.83   22.13
  -3  -6 -15    1.44   11.58
  -3   6 -15   94.91   31.25
   3   6 -15   32.58   17.93
   3  -6  15   20.76   18.29
   3   6  15   29.85   10.29
  -3  -6  15   36.06   15.86
  -3   6  15   39.10   16.04
  -3  -6  15   64.36   15.27
  -3  -6 -16   -2.01   10.39
  -3   6 -16   37.30   26.37
   3   6 -16   15.15   13.13
   3  -6  16   57.36   21.99
  -3  -6  16   67.16   23.26
  -3   6  16   69.53   25.91
  -3  -6 -17   22.21    9.80
  -3   6 -17   28.58   19.35
   3   6 -17   -9.13   11.65
   3  -6  17   43.35   21.21
  -3  -6  17   14.26   16.16
  -3   6  17   56.19   23.82
  -3   7   0   60.95   12.24
   3   7   0   66.49   15.32
  -3  -7   0   50.87    7.32
   3  -7   0   50.75   13.00
  -3  -7   0   67.55    6.25
   3  -7   0   28.92   12.52
  -3  -7   0   61.48   12.37
  -3   7  -1   94.31   17.20
  -3   7   1   87.60   12.67
   3   7  -1   53.94   14.31
  -3  -7   1   70.23   11.12
   3  -7  -1   60.60   13.32
   3  -7   1   67.36   14.43
  -3  -7   1   45.81    7.58
   3  -7  -1   95.90   16.02
   3  -7   1   85.51   19.69
  -3  -7  -1   63.66   15.26
  -3  -7   1   80.09   17.92
  -3  -7  -2  323.07   27.52
  -3   7  -2  323.15   28.41
  -3   7   2  319.56   23.90
   3   7  -2  317.49   28.48
   3  -7  -2  311.23   43.74
   3  -7   2  237.98   23.10
  -3  -7   2  253.95   19.47
   3   7  -2  222.43   16.14
   3  -7   2  336.08   30.72
  -3  -7  -2  302.21   26.34
  -3  -7   2  269.64   26.26
  -3  -7  -3 1312.18  230.93
  -3   7  -3 1192.83  181.65
  -3   7   3 1170.81   68.01
   3   7  -3 1137.60   69.38
   3  -7  -3 1292.66  196.00
   3  -7   3 1185.24  180.50
  -3  -7   3 1122.50   64.63
   3   7  -3  990.21   57.12
   3  -7   3 1385.79  211.55
  -3  -7  -3 1163.36   69.85
  -3  -7   3 1056.67   65.48
  -3  -7  -4  157.39   30.37
  -3   7  -4  173.92   21.30
   3   7  -4  220.30   22.40
  -3   7   4  208.86   17.80
   3  -7  -4  189.75   40.65
   3  -7   4  209.92   22.74
  -3  -7   4  197.08   17.52
   3  -7   4  207.37   22.91
  -3  -7  -4  260.71   24.70
  -3  -7   4  132.98   20.65
  -3  -7  -5  219.82   32.10
  -3   7  -5  163.04   21.99
   3   7  -5  158.21   18.67
  -3   7   5  197.50   17.07
   3  -7  -5  236.29   32.81
   3  -7   5  199.09   22.92
  -3  -7   5  138.51   15.94
   3  -7   5  138.59   20.71
  -3  -7  -5  185.64   20.40
  -3  -7   5  137.84   18.48
  -3  -7  -6  339.19   58.32
  -3   7  -6  297.71   26.85
   3   7  -6  310.18   26.48
  -3   7   6  349.29   21.88
   3  -7  -6  300.32   50.32
   3   7   6  310.13   15.69
   3  -7   6  356.29   31.48
  -3  -7   6  303.97   23.65
   3  -7   6  378.23   29.85
  -3  -7  -6  369.71   27.79
  -3  -7   6  396.91   30.63
  -3   7  -7  371.70   30.79
   3   7  -7  274.59   23.85
  -3   7   7  301.03   21.68
   3  -7  -7  295.53   26.58
   3   7   7  197.81   26.21
   3   7   7  231.15   13.36
   3  -7   7  311.22   27.97
  -3  -7   7  272.20   25.94
   3  -7   7  380.09   32.62
  -3  -7  -7  264.57   20.71
  -3  -7   7  261.52   23.58
  -3  -7  -8   52.24   18.17
  -3   7  -8   85.74   24.54
   3   7  -8   45.75   16.61
  -3   7   8   38.36   10.33
   3   7   8   35.36    8.70
   3  -7   8   66.46   19.82
   3   7   8   41.04   10.79
  -3  -7   8   62.75   20.49
  -3   7   8   73.79   22.11
   3  -7   8   34.26   18.11
  -3  -7  -8   66.60   18.65
  -3  -7   8   43.69   15.79
  -3  -7  -9  764.90  134.63
  -3   7  -9  732.21   52.74
   3   7  -9  815.30   56.66
  -3   7   9  712.37   44.92
   3  -7   9  885.54   63.03
  -3  -7   9  754.40   52.63
  -3   7   9  783.50   52.62
   3  -7   9  941.25   63.00
  -3  -7  -9  889.48   55.28
  -3  -7   9  875.42   59.00
   3  -7 -10   16.22    8.80
  -3  -7 -10   40.64   13.12
  -3   7 -10   23.61   22.07
   3   7 -10   26.91   16.75
   3  -7  10   46.78   16.85
   3   7  10   29.18    9.63
  -3  -7  10    2.90   12.26
  -3   7  10   21.93   12.18
   3  -7  10   92.57   22.60
  -3  -7 -10   20.40   10.26
  -3  -7  10   40.94   13.99
   3  -7 -11   35.63   12.70
  -3  -7 -11   34.74   13.10
  -3   7 -11   19.72   16.13
   3   7 -11   64.29   21.69
   3   7  11   26.09   10.00
  -3  -7  11   11.51   12.14
  -3   7  11    7.92   12.77
  -3  -7 -11   23.94    9.95
  -3  -7  11   17.75   11.33
   3  -7 -12   10.44    6.07
  -3  -7 -12   55.79   19.19
  -3   7 -12   29.44   17.60
   3   7 -12   54.83   20.52
   3   7  12   47.58   14.30
  -3  -7  12   21.72   20.83
  -3   7  12   34.18   13.21
  -3  -7  12   18.89   11.14
  -3   7  12   15.21    5.82
   3  -7 -13   75.69   24.25
  -3  -7 -13   80.61   24.86
   3   7 -13   70.94   25.74
   3   7  13   52.12   12.39
  -3  -7  13   95.11   24.75
  -3   7  13  172.94   36.02
  -3  -7  13   47.78   18.44
   3  -7 -14    8.39    5.67
  -3  -7 -14   45.20   16.63
   3   7 -14   41.17   19.63
   3  -7  14   27.78   16.02
  -3  -7  14   28.27   15.94
  -3   7  14   22.74   14.22
  -3  -7 -15  119.11   34.98
  -3   7 -15   71.65   27.69
   3  -7  15  111.96   33.95
  -3  -7  15   49.16   19.98
  -3   7  15   27.64   13.86
  -3  -7  15   41.18   13.34
  -3  -7 -16   31.86   12.43
  -3   7 -16   46.57   21.22
   3   7 -16   15.90   12.50
   3  -7  16   16.55   18.24
  -3  -7  16   32.72   16.63
  -3   7  16   52.31   22.80
  -3  -7 -17   81.33   35.11
  -3   7 -17  105.57   32.68
   3   7 -17   77.87   23.05
   3  -7  17   73.31   24.85
  -3  -7  17   47.90   26.72
  -3   7  17   84.74   24.70
  -3   8   0  570.10   38.99
   3   8   0  756.81   50.53
   3  -8   0  668.17   44.41
  -3  -8   0  670.78   37.09
  -3  -8   0  623.26   43.63
  -3   8  -1   94.80   18.64
  -3   8   1   69.96   15.92
   3   8  -1   67.82   18.13
   3   8   1  111.64   23.09
  -3  -8   1   42.77    8.30
   3  -8  -1   57.60   16.87
   3  -8   1   84.47   20.74
  -3  -8   1   54.23   10.62
   3  -8  -1   13.82   12.29
   3  -8   1   98.47   22.26
  -3  -8   1   75.59   22.68
  -3  -8  -1   62.98   19.98
  -3  -8  -2   81.26   19.92
  -3   8  -2   30.78   12.27
  -3   8   2   84.47   19.60
   3   8  -2   30.34   15.12
   3  -8  -2  102.86   23.66
   3  -8   2   47.66   18.50
  -3  -8   2   49.77   10.17
   3   8  -2   69.66   13.03
   3  -8  -2   51.68   19.36
   3  -8   2   93.22   23.51
  -3  -8  -2  117.06   17.83
  -3  -8   2   76.10   18.39
  -3  -8  -3  115.36   18.14
  -3   8  -3   71.12   20.55
  -3   8   3   84.19   17.88
   3   8  -3  115.94   22.95
   3  -8  -3   63.08   15.95
   3  -8   3  114.35   17.67
  -3  -8   3   79.89   16.62
   3   8  -3   64.31   13.42
   3  -8   3   75.43   19.55
  -3  -8  -3   73.74   16.29
  -3  -8   3  134.35   21.36
  -3  -8  -4  279.56   56.18
  -3   8  -4  259.06   27.65
   3   8  -4  315.05   26.53
  -3   8   4  240.74   19.39
   3  -8  -4  273.31   44.80
   3  -8   4  310.82   26.77
  -3  -8   4  236.83   18.03
   3  -8   4  285.00   43.06
  -3  -8  -4  300.01   25.34
  -3  -8   4  266.58   25.73
  -3  -8  -5   31.83   13.58
  -3   8  -5   31.67   14.45
   3   8  -5   46.32   14.89
  -3   8   5   15.19    8.33
   3  -8  -5   19.51    7.76
   3  -8   5   46.11   17.69
  -3  -8   5   45.22   14.45
   3  -8   5   59.43   15.26
  -3  -8  -5   29.54   12.13
  -3  -8   5   34.82   16.27
  -3   8  -6  517.15   42.54
   3   8  -6  521.56   41.89
  -3   8   6  570.95   39.15
   3  -8  -6  528.06   78.49
   3  -8   6  627.00   47.60
  -3  -8   6  540.96   41.08
   3  -8   6  627.26   89.29
  -3  -8  -6  508.19   37.08
  -3  -8   6  541.24   42.67
  -3  -8  -7   25.56   11.36
  -3   8  -7   73.33   25.68
   3   8  -7   28.60   13.87
  -3   8   7   27.11    9.16
   3  -8  -7   24.87   10.98
   3  -8   7   26.06   17.00
  -3  -8   7   11.09   11.15
   3  -8   7   37.92   15.18
  -3  -8  -7   60.13   16.34
  -3  -8   7   49.76   18.31
  -3  -8  -8  119.43   29.38
  -3   8  -8   63.04   19.95
   3   8  -8   52.15   14.20
  -3   8   8   67.81   14.49
   3   8   8   61.47   11.47
   3  -8   8   70.66   23.72
  -3  -8   8   74.80   20.01
  -3   8   8  151.93   27.66
   3  -8   8  100.72   25.45
  -3  -8  -8   68.75   19.95
  -3  -8   8   84.69   23.05
  -3  -8  -9  178.80   43.06
  -3   8  -9  266.52   33.57
   3   8  -9  169.02   26.46
  -3   8   9  144.46   16.56
   3  -8   9  199.77   28.11
   3   8   9  143.79   13.04
  -3  -8   9  172.27   21.26
  -3   8   9  114.93   18.72
   3  -8   9  206.48   25.96
  -3  -8  -9  144.11   28.00
  -3  -8   9  169.30   24.94
  -3  -8 -10   51.29   18.65
  -3   8 -10   73.35   25.56
   3   8 -10   77.00   24.07
  -3   8  10   76.92   17.07
   3  -8  10   55.96   19.66
   3   8  10   77.66   15.13
  -3  -8  10   57.47   16.95
  -3   8  10   60.22   19.72
   3  -8  10  113.18   22.09
  -3  -8 -10   54.77   16.47
  -3  -8  10  121.58   22.98
   3  -8 -11   72.99   14.23
  -3  -8 -11   33.07   19.63
  -3   8 -11   50.44   18.97
   3   8 -11   12.85   13.20
   3  -8  11   31.99   17.17
  -3  -8  11   28.97   19.00
  -3   8  11   52.25   18.65
   3  -8  11   27.31   13.62
  -3  -8 -11   22.12    7.44
  -3  -8  11    8.77   11.89
   3  -8 -12   55.74   13.68
  -3  -8 -12   24.03    7.34
  -3   8 -12   39.46   20.94
   3   8 -12   28.02   13.99
   3  -8  12   17.91   15.15
  -3  -8  12   43.85   17.46
  -3   8  12   54.01   15.25
  -3  -8  12   38.52   13.22
   3  -8 -13   55.67   13.60
  -3  -8 -13   81.28   21.91
  -3   8 -13   84.93   24.92
   3   8 -13   80.94   23.13
   3  -8  13   49.43   20.91
  -3  -8  13   64.05   25.30
  -3   8  13   58.83   19.15
  -3  -8  13   62.87   21.65
  -3  -8 -14   77.94   25.90
   3   8 -14   35.34   14.50
   3  -8  14   63.68   22.00
  -3  -8  14  139.77   36.90
  -3   8  14  101.22   30.41
  -3  -8  14   11.96   14.48
  -3  -8 -15   28.76   21.88
  -3   8 -15   68.43   28.15
   3   8 -15   49.85   16.31
  -3  -8  15   65.74   21.34
  -3   8  15   59.25   19.67
  -3  -8  15   52.68   29.14
  -3  -8 -16   -1.89   12.44
  -3   8 -16   34.72   22.46
   3   8 -16    9.15   12.11
   3  -8  16    8.71   16.08
  -3  -8  16   17.59   18.09
  -3   8  16   22.77   20.69
  -3   9   0   75.79   16.41
   3  -9   0   67.20   16.37
  -3  -9   0   38.86    6.08
   3  -9   0   84.97   16.52
  -3  -9   0   24.90   13.36
  -3   9  -1   38.99   16.74
  -3   9   1    3.62    9.92
   3   9  -1    8.74   12.28
   3   9   1   28.86   13.78
  -3  -9   1    2.60    2.43
   3  -9  -1   25.59    9.97
   3  -9   1   12.08   10.92
  -3  -9   1    6.78    3.52
   3  -9  -1    9.75   13.81
   3  -9   1    2.51    8.42
  -3  -9  -1    4.72   13.33
  -3   9  -2   23.41   12.65
  -3   9   2   37.08   11.49
   3   9  -2   27.89   21.31
   3   9   2  -10.85   12.83
   3  -9  -2   10.06    5.38
   3  -9   2   31.89   12.57
  -3  -9   2   15.66    7.72
   3   9  -2   14.54    5.74
   3  -9  -2   60.53   20.92
   3  -9   2   64.78   15.87
  -3  -9  -2  -14.55   11.41
  -3  -9   2   23.07   14.06
  -3  -9  -3   -6.71   11.40
  -3   9  -3   11.92   14.21
  -3   9   3   38.67   14.75
   3   9  -3   17.96   14.98
   3  -9  -3   37.42   16.46
   3  -9   3   29.23   17.93
  -3  -9   3   31.71   12.03
   3   9  -3    7.31    4.83
   3  -9  -3   28.69   12.79
   3  -9   3   17.93   12.63
  -3  -9  -3   23.42   13.11
  -3  -9   3    9.29   13.27
  -3  -9  -4  176.28   22.28
  -3   9  -4  150.14   22.53
   3   9  -4  140.91   27.40
  -3   9   4  169.42   18.83
   3  -9  -4  186.80   40.00
   3  -9   4  163.83   21.96
  -3  -9   4  148.41   18.81
   3  -9   4  168.15   24.56
  -3  -9  -4  187.98   25.00
  -3  -9   4  155.96   23.55
  -3  -9  -5   30.85    9.79
  -3   9  -5   63.11   22.91
   3   9  -5   21.36   13.98
  -3   9   5    7.84    8.09
   3  -9  -5    8.30    8.53
   3  -9   5   32.63   19.21
  -3  -9   5   13.94    8.79
   3  -9   5   54.97   21.60
  -3  -9  -5    7.42   10.01
  -3  -9   5   22.09   17.19
  -3  -9  -6  113.11   24.65
  -3   9  -6   95.66   25.20
   3   9  -6   76.63   21.55
  -3   9   6   89.24   18.78
   3  -9  -6   89.02   23.61
   3  -9   6   83.56   23.28
  -3  -9   6   62.77   17.17
   3  -9   6  158.78   26.13
  -3  -9  -6  114.55   25.19
  -3  -9   6   37.65   15.79
  -3  -9  -7   80.49   21.01
  -3   9  -7   52.03   19.02
   3   9  -7   86.82   20.95
  -3   9   7   76.55   15.45
   3  -9  -7  123.82   17.58
   3  -9   7  129.12   20.84
  -3  -9   7   97.55   15.75
   3  -9   7  107.45   16.66
  -3  -9  -7   50.82   14.34
  -3  -9   7   55.59   22.07
  -3  -9  -8   61.01   18.53
  -3   9  -8   45.68   20.25
   3   9  -8   30.91   13.61
  -3   9   8    8.69    7.10
   3  -9   8   22.07   15.81
  -3  -9   8   30.37   14.31
  -3   9   8   41.22   14.79
   3  -9   8   70.26   24.90
  -3  -9  -8   35.74   18.06
  -3  -9   8   29.39   16.22
  -3  -9  -9    6.11   16.49
  -3   9  -9   22.59   17.69
   3   9  -9   41.51   16.25
  -3   9   9   64.86   12.35
   3  -9   9   33.05   19.00
  -3  -9   9   54.55   20.66
  -3   9   9   38.13   14.68
   3  -9   9   73.37   23.74
  -3  -9  -9   82.35   19.90
  -3  -9   9   72.76   19.84
  -3  -9 -10   66.10   20.72
  -3   9 -10   42.16   19.15
   3   9 -10   95.32   24.30
  -3   9  10   90.47   19.90
   3  -9  10  109.15   28.75
  -3   9  10   82.25   17.92
   3  -9  10  118.53   24.93
  -3  -9 -10   68.71   21.56
  -3  -9  10   61.40   15.64
  -3  -9 -11   38.31   13.04
  -3   9 -11   14.26   15.72
   3   9 -11   23.74   16.80
  -3   9  11   27.86    9.12
   3  -9  11   12.52   17.91
  -3  -9  11   16.50   12.30
  -3   9  11   36.47   14.84
   3  -9  11   28.57   14.85
  -3  -9 -11    5.86    8.36
  -3  -9  11   24.45   13.22
  -3  -9 -12   44.87   21.49
  -3   9 -12   32.37   20.03
   3   9 -12   58.10   21.58
  -3   9  12    7.55    6.47
   3  -9  12   28.69   16.45
  -3  -9  12   29.48   16.17
  -3   9  12   33.76   15.89
   3  -9  12   13.13   11.82
  -3  -9  12   27.42   11.66
  -3  -9 -13   52.77   18.53
  -3   9 -13   34.04   17.49
   3   9 -13   44.01   20.32
   3  -9  13   48.81   26.28
  -3  -9  13   56.45   19.15
  -3   9  13   58.27   21.58
  -3  -9  13   13.93   12.97
  -3  -9 -14   36.56   12.67
  -3   9 -14   -0.74   15.04
   3   9 -14   27.55   15.40
   3  -9  14   49.77   28.20
  -3  -9  14   15.85   17.37
  -3   9  14   38.99   15.93
  -3  -9  14   27.80    7.20
  -3  -9 -15   48.07   19.17
  -3   9 -15   66.12   23.57
   3   9 -15  115.06   32.37
   3  -9  15   69.30   23.88
  -3  -9  15   21.28   15.46
  -3   9  15   41.77   19.79
  -3  -9  15   32.24    9.32
  -3  -9 -16   86.37   34.70
  -3   9 -16   73.02   27.53
   3   9 -16   79.30   23.99
   3  -9  16  167.72   39.84
  -3  -9  16  111.24   29.03
  -3  10   0  209.59   23.64
   3  10   0  164.01   23.67
  -3 -10   0  156.85    9.87
   3 -10   0  207.49   44.33
  -3 -10   0  158.23   21.85
  -3  10  -1   59.11   17.53
  -3  10   1   65.71   18.54
   3  10  -1   43.93   20.54
   3  10   1   71.34   22.63
  -3 -10   1   22.78    5.89
   3 -10  -1   45.02   12.99
   3 -10   1   66.51   18.01
  -3 -10   1   41.99    8.88
   3 -10  -1   71.19   23.82
   3 -10   1   81.42   21.41
  -3 -10  -1   52.73   23.18
  -3 -10   1   20.47   13.59
  -3  10  -2  333.07   32.80
  -3  10   2  364.04   31.17
   3  10  -2  299.89   30.70
   3  10   2  408.95   35.16
   3 -10  -2  348.23   50.99
   3 -10   2  347.77   30.97
  -3 -10   2  400.51   26.52
   3  10  -2  284.26   20.55
   3 -10  -2  275.99   30.50
   3 -10   2  439.16   75.87
  -3 -10  -2  273.32   27.52
  -3 -10   2  230.61   26.53
  -3  10  -3   62.27   22.22
  -3  10   3   20.33   11.56
   3  10  -3   46.17   17.31
   3  10   3   45.40   18.26
   3 -10  -3   50.26   11.98
   3 -10   3   62.07   19.49
  -3 -10   3   30.30   10.19
   3 -10  -3   38.85   14.17
   3 -10   3   44.02   16.93
  -3 -10  -3   28.00   18.50
  -3 -10   3   39.74   21.48
  -3  10  -4  499.43   42.35
   3  10  -4  334.49   35.46
  -3  10   4  417.83   32.52
   3 -10  -4  323.40   52.26
   3 -10   4  384.60   34.21
  -3 -10   4  322.83   25.23
   3 -10  -4  327.94   30.37
   3 -10   4  448.18   74.52
  -3 -10  -4  453.43   37.28
  -3 -10   4  454.14   41.75
  -3  10  -5   54.79   17.95
   3  10  -5   30.36   22.34
  -3  10   5   19.96   10.06
   3 -10  -5   63.94   19.21
   3 -10   5   30.06   15.31
  -3 -10   5   31.05   11.51
   3 -10   5   38.22   12.52
  -3 -10  -5   35.06   13.53
  -3 -10   5    9.41   16.12
  -3 -10  -6   68.49   27.57
  -3  10  -6   82.76   23.81
   3  10  -6  111.04   24.01
  -3  10   6   58.18   13.93
   3 -10  -6   95.92   16.73
   3 -10   6   70.33   21.72
  -3 -10   6   63.22   15.95
   3 -10   6   73.33   19.87
  -3 -10  -6   60.63   16.78
  -3 -10   6   54.60   22.50
  -3 -10  -7   45.97   20.38
  -3  10  -7   53.13   18.53
   3  10  -7   40.64   15.83
  -3  10   7   22.52    9.64
   3 -10  -7   49.40   15.38
   3 -10   7   -1.07   13.20
  -3 -10   7   18.63   14.53
   3 -10   7   35.03   17.31
  -3 -10  -7   21.11   13.65
  -3 -10   7   35.86   16.93
  -3 -10  -8   24.50   18.97
  -3  10  -8   11.55   16.49
   3  10  -8   32.10   15.50
  -3  10   8   10.39    7.80
   3 -10   8    1.04   13.00
  -3 -10   8   59.64   19.91
  -3  10   8   42.31   15.46
   3 -10   8   13.82    7.77
  -3 -10  -8   28.07   11.46
  -3 -10   8   22.60   17.91
  -3 -10  -9   37.54   22.03
  -3  10  -9   32.57   20.05
   3  10  -9   60.16   24.50
  -3  10   9   55.73   15.13
   3 -10   9   45.20   18.86
  -3 -10   9   17.44   11.12
  -3  10   9   35.83   11.04
   3 -10   9   68.97   23.07
  -3 -10  -9   35.36   11.90
  -3 -10   9   67.20   22.41
  -3 -10 -10   53.65   18.32
  -3  10 -10   49.99   18.88
   3  10 -10   23.23   15.88
  -3  10  10   26.42   15.86
   3 -10  10  123.77   28.67
  -3 -10  10    2.73   11.92
  -3  10  10   40.38   11.46
   3 -10  10   32.74   17.32
  -3 -10  10   41.67   13.88
  -3 -10 -11   61.22   21.04
  -3  10 -11   49.68   23.06
   3  10 -11   15.49   14.34
  -3  10  11    6.69    7.49
   3 -10  11   26.22   22.40
  -3 -10  11   59.53   21.06
  -3  10  11   29.72    9.56
   3 -10  11   46.63   14.47
  -3 -10  11   22.92   10.60
  -3 -10 -12   15.42   15.57
  -3  10 -12   27.34   17.26
   3  10 -12   18.22   15.59
   3 -10  12    8.57   14.98
  -3 -10  12   20.28   13.02
  -3  10  12   24.35   11.61
   3 -10  12   17.97   12.09
  -3 -10  12   21.85   16.60
  -3 -10 -13   33.51   14.32
  -3  10 -13   27.95   18.30
   3  10 -13   24.20   15.32
   3 -10  13    7.35   17.00
  -3 -10  13   24.74   14.62
  -3  10  13   13.96   11.25
  -3 -10  13   44.97   21.17
  -3 -10 -14  135.96   61.28
  -3  10 -14   38.46   26.65
   3  10 -14   30.16   14.13
   3 -10  14   36.00   18.36
  -3 -10  14   43.87   17.15
  -3  10  14   91.44   29.65
  -3 -10  14   42.24   17.76
  -3 -10 -15   47.80   24.14
   3  10 -15   58.59   22.03
   3 -10  15   28.66   24.10
  -3 -10  15   53.98   19.43
  -3  10  15   18.92   12.90
  -3  11   0   80.38   22.41
   3  11   0   44.19   16.09
   3 -11   0   86.18   20.31
   3 -11   0   61.99   17.13
  -3 -11   0   38.45   15.97
  -3  11  -1  101.22   23.40
  -3  11   1   44.24   21.08
   3  11   1   91.27   26.08
   3 -11  -1   21.87    9.25
   3 -11   1   38.99   20.50
  -3 -11   1   50.20    9.55
   3 -11  -1   37.33   16.08
   3 -11   1   46.64   13.56
  -3 -11  -1   41.48   17.52
  -3 -11   1   40.58   15.66
  -3  11  -2   56.64   21.79
  -3  11   2   53.48   15.15
   3  11  -2   65.62   21.95
   3  11   2   54.31   25.62
   3 -11  -2   70.39   17.20
   3 -11   2   41.20   18.22
  -3 -11   2   28.33    8.29
   3 -11  -2   41.57   16.66
   3 -11   2   25.64   17.45
  -3 -11  -2   74.33   23.62
  -3 -11   2  122.04   30.15
  -3  11  -3  396.29   41.31
  -3  11   3  297.32   29.20
   3  11  -3  354.91   34.50
   3  11   3  419.55   41.72
   3 -11  -3  391.60   57.42
   3 -11   3  352.92   33.23
  -3 -11   3  364.60   28.01
   3 -11  -3  407.16   38.91
   3 -11   3  389.28   65.89
  -3 -11  -3  391.15   36.68
  -3 -11   3  356.79   38.98
  -3  11  -4  240.97   31.45
  -3  11   4  167.02   21.51
   3  11  -4  263.98   35.25
   3  11   4  211.94   31.77
   3 -11  -4  170.95   34.10
   3 -11   4  170.82   23.37
  -3 -11   4  188.81   19.16
   3 -11   4  201.03   36.88
  -3 -11  -4  188.06   26.04
  -3 -11   4  191.50   28.85
  -3  11  -5  113.20   23.71
   3  11  -5  140.58   25.74
  -3  11   5   93.74   16.26
   3  11   5  142.87   28.94
   3 -11  -5   85.03   27.88
   3 -11   5   98.59   19.60
  -3 -11   5  100.82   16.51
   3 -11   5  173.12   38.95
  -3 -11  -5  119.25   21.49
  -3 -11   5  127.67   27.42
  -3 -11  -6  108.61   22.93
  -3  11  -6  148.09   29.39
   3  11  -6   96.57   23.65
  -3  11   6   37.30   15.87
   3 -11  -6   74.08   23.15
   3 -11   6   64.97   16.74
  -3 -11   6   62.70   19.08
   3 -11   6   79.35   27.27
  -3 -11  -6  120.73   26.68
  -3 -11   6   81.93   27.08
  -3 -11  -7   99.94   25.34
  -3  11  -7   54.55   24.79
   3  11  -7   60.97   17.70
  -3  11   7   45.25   14.87
   3 -11  -7   97.56   21.12
   3 -11   7   21.93   19.13
  -3 -11   7   96.97   23.46
   3 -11   7  109.09   30.89
  -3 -11  -7   91.67   25.80
  -3 -11   7  100.21   27.51
  -3 -11  -8   72.16   27.87
  -3  11  -8   27.61   17.67
   3  11  -8   15.48   14.92
  -3  11   8   57.40   14.78
   3 -11   8   58.08   22.90
  -3 -11   8   41.42   14.93
  -3  11   8   39.46   12.99
   3 -11   8   54.11   14.91
  -3 -11  -8   24.60   11.35
  -3 -11   8   51.36   24.81
  -3 -11  -9  153.01   42.69
  -3  11  -9  208.97   36.07
   3  11  -9  181.92   35.24
  -3  11   9  186.35   29.25
   3 -11   9  189.86   36.00
  -3 -11   9  152.37   31.25
  -3  11   9  132.38   22.66
   3 -11   9  165.24   31.76
  -3 -11  -9  121.92   33.32
  -3 -11   9  174.33   37.67
  -3 -11 -10   55.73   18.56
  -3  11 -10    7.77   16.37
   3  11 -10   19.91   15.34
  -3  11  10   23.09   11.32
   3 -11  10   18.34   14.25
  -3 -11  10   25.24   13.03
  -3  11  10   25.35   13.23
   3 -11  10   29.46   20.56
  -3 -11 -10   18.43    8.43
  -3 -11  10   53.32   12.67
  -3 -11 -11   33.55   15.36
  -3  11 -11   98.11   34.20
   3  11 -11   62.47   22.62
  -3  11  11   26.95   10.43
   3 -11  11   59.96   20.83
  -3 -11  11   17.21   12.75
  -3  11  11   47.22   15.83
   3 -11  11    8.95   12.00
  -3 -11  11   17.26   15.20
  -3 -11 -12   94.17   27.00
  -3  11 -12   19.75   18.73
   3  11 -12   73.84   22.48
   3 -11  12   46.88   17.69
  -3 -11  12   38.18   20.49
  -3  11  12   46.72   15.13
   3 -11  12   77.76   26.95
  -3 -11  12   36.14   16.22
  -3 -11 -13   31.92   17.69
  -3  11 -13   70.35   32.35
   3  11 -13   24.87   14.82
   3 -11  13   47.69   22.02
  -3 -11  13   41.84   18.18
   3 -11  13   23.68   12.98
  -3 -11  13   17.81   13.82
  -3 -11 -14   62.80   23.42
  -3  11 -14  123.96   36.84
   3  11 -14  104.93   30.74
   3 -11  14  140.49   36.55
  -3 -11  14   56.17   23.80
  -3 -11  14   51.51   21.22
  -3  12   0   78.34   19.14
   3  12   0   42.59   19.91
   3 -12   0   32.44   19.14
   3 -12   0   22.55   11.82
  -3 -12   0   38.28   18.54
  -3  12  -1   41.03   24.29
  -3  12   1  107.86   19.87
   3  12  -1   65.47   24.55
   3  12   1   52.50   25.50
   3 -12  -1   35.67   18.50
   3 -12   1   77.29   19.48
   3 -12  -1   75.83   26.45
  -3 -12   1   44.18   21.61
  -3 -12  -1   39.43   23.08
  -3  12  -2  272.05   37.97
  -3  12   2  267.30   35.60
   3  12  -2  294.80   39.51
   3  12   2  263.83   38.32
   3 -12  -2  232.87   68.32
   3 -12   2  210.44   29.14
   3 -12  -2  334.64   42.82
   3 -12   2  274.05   76.88
  -3 -12  -2  292.32   48.07
  -3 -12   2  234.95   40.89
  -3  12  -3   67.12   23.98
  -3  12   3   16.03   12.73
   3  12  -3   97.98   21.13
   3  12   3   42.41   23.38
   3 -12  -3   23.55    9.57
   3 -12   3   35.20   14.35
  -3 -12   3   66.57   11.30
   3 -12  -3   82.38   22.37
   3 -12   3   78.76   22.41
  -3 -12  -3   61.29   23.97
  -3 -12   3   36.58   23.11
  -3  12  -4  215.84   39.58
   3  12  -4  201.79   35.31
  -3  12   4  116.98   23.58
   3  12   4  204.53   38.59
   3 -12  -4  134.30   47.91
   3 -12   4  196.13   34.02
  -3 -12   4  187.69   28.84
   3 -12  -4  209.77   36.75
   3 -12   4  206.95   48.95
  -3 -12  -4  197.46   42.81
  -3 -12   4  184.51   36.11
  -3  12  -5   65.53   20.61
   3  12  -5   68.53   26.12
  -3  12   5   66.60   17.26
   3  12   5   43.55   19.27
   3 -12  -5  102.98   26.90
   3 -12   5   42.42   16.14
  -3 -12   5   96.38   18.59
   3 -12   5  119.63   32.92
  -3 -12  -5   83.70   33.25
  -3 -12   5   82.36   28.29
  -3  12  -6   64.93   25.16
   3  12  -6    9.67   16.98
  -3  12   6   38.57   12.21
   3  12   6   40.97   17.01
   3 -12  -6   10.91    5.13
   3 -12   6   31.38   13.08
  -3 -12   6   31.65   13.58
   3 -12   6   30.05   16.20
  -3 -12  -6   19.69    9.88
  -3 -12   6   24.62   16.56
  -3  12  -7   50.00   18.57
   3  12  -7   27.05   16.20
  -3  12   7   10.69    8.77
   3 -12  -7   49.00   13.51
   3 -12   7   48.30   15.44
  -3 -12   7   36.71   10.68
   3 -12   7   24.11   15.20
  -3 -12  -7   28.22   10.74
  -3 -12  -8  155.61   30.28
  -3  12  -8  146.52   32.44
   3  12  -8  216.58   38.28
  -3  12   8  146.86   25.04
   3 -12   8  174.98   32.12
  -3 -12   8  182.73   29.16
  -3  12   8  102.36   20.18
   3 -12   8   77.46   43.04
  -3 -12  -8  160.99   30.02
  -3 -12   8  164.72   34.76
  -3 -12  -9   12.98   12.00
  -3  12  -9   25.78   17.03
   3  12  -9    6.94   16.97
  -3  12   9   26.77   12.32
   3 -12   9   18.84   13.94
  -3 -12   9   18.79   19.81
  -3  12   9   20.87   11.59
   3 -12   9   27.88   17.02
  -3 -12  -9   14.33   10.52
  -3 -12   9   19.95   12.34
  -3 -12 -10   60.27   24.55
  -3  12 -10  117.81   35.19
   3  12 -10   34.41   22.19
  -3  12  10   78.69   21.34
   3 -12  10   56.17   25.32
  -3 -12  10   32.30   17.28
  -3  12  10    8.40    7.36
   3 -12  10   -0.21   13.60
  -3 -12 -10   15.22   11.13
  -3 -12  10   34.55   17.29
  -3 -12 -11   25.83   14.81
  -3  12 -11   19.40   17.63
   3  12 -11   40.17   18.56
   3 -12  11   24.80   17.00
  -3 -12  11   12.86   12.68
   3 -12  11   19.40   12.96
  -3 -12  11   21.15   10.01
  -3 -12 -12   27.81   13.81
  -3  12 -12   25.55   19.26
   3  12 -12   38.10   17.55
   3 -12  12   31.15   15.52
  -3 -12  12   27.24   14.75
   3 -12  12    6.99   13.29
  -3 -12  12   36.38   15.99
  -3 -12 -13   33.22   12.83
  -3  12 -13  105.20   28.64
   3  12 -13   68.17   25.28
   3 -12  13   66.30   22.52
  -3 -12  13   60.83   18.41
   3 -12  13   80.53   24.21
  -3 -12  13   29.37   15.69
  -3  13   0   58.59   21.14
   3  13   0   34.63   23.11
   3 -13   0   35.29   11.31
   3 -13   0   20.70   11.84
  -3 -13   0   21.33   15.41
  -3  13  -1   86.34   19.98
  -3  13   1  163.65   32.61
   3  13   1   86.91   22.35
   3 -13  -1   56.49   16.29
   3 -13   1  107.72   22.02
   3 -13  -1   91.10   29.79
   3 -13   1   97.27   33.74
  -3  13  -2   44.07   15.07
  -3  13   2   37.70   14.36
   3  13   2  120.75   26.20
   3 -13  -2   81.05   23.91
   3 -13   2  136.26   28.22
   3 -13  -2   49.21   16.73
   3 -13   2   44.16   14.23
  -3 -13  -2   40.26   15.79
  -3  13  -3   78.80   23.23
  -3  13   3  126.42   25.88
   3  13  -3   57.73   21.10
   3  13   3  132.94   30.95
   3 -13  -3   53.70   19.54
   3 -13   3   91.70   24.26
   3 -13  -3   98.26   24.66
   3 -13   3   59.08   16.87
  -3 -13  -3   67.89   23.80
  -3 -13   3   21.73   14.29
  -3  13  -4  147.26   33.90
  -3  13   4   38.21   16.68
   3  13  -4   82.87   22.46
   3  13   4   40.14   24.36
   3 -13  -4   35.50   11.33
   3 -13   4   40.93   19.08
   3 -13  -4   79.79   25.75
   3 -13   4   87.90   28.46
  -3 -13  -4   79.80   31.68
  -3 -13   4  132.25   37.39
  -3  13  -5  125.65   27.85
   3  13  -5  113.26   29.67
  -3  13   5  153.77   27.62
   3  13   5  168.87   34.94
   3 -13  -5  136.95   48.59
   3 -13   5  210.36   35.41
   3 -13   5  123.67   32.91
  -3 -13  -5  115.29   47.35
  -3 -13   5  182.68   46.20
   3  13  -6   50.06   17.42
  -3  13   6   27.00   17.18
   3  13   6   37.98   16.54
   3 -13  -6   17.54    8.86
   3 -13   6   24.18   12.96
   3 -13   6  124.93   34.64
  -3 -13  -6   23.87   14.60
  -3 -13   6   18.77   11.84
  -3  13  -7   84.95   24.46
   3  13  -7  107.53   32.39
  -3  13   7   79.98   21.60
   3  13   7  148.04   39.59
   3 -13   7   34.51   14.32
  -3 -13   7   81.37   20.23
   3 -13   7  117.40   37.15
  -3 -13  -7   85.17   30.43
  -3 -13   7   90.76   31.09
  -3  13  -8   78.32   25.19
   3  13  -8   44.80   28.09
  -3  13   8    4.48   10.86
   3  13   8   35.73   22.51
   3 -13   8   30.65   18.49
  -3 -13   8   27.25   17.74
   3 -13   8  -16.36   15.94
  -3 -13  -8   24.04   13.23
  -3 -13   8   14.94   12.80
  -3  13  -9   55.94   29.14
  -3  13   9   25.67   13.17
   3 -13   9   61.83   22.78
  -3 -13   9   25.95   16.11
   3 -13   9   26.34   17.26
  -3 -13  -9   16.26   10.49
  -3 -13   9   22.69   14.14
  -3 -13 -10   14.88   14.05
  -3  13 -10   -2.80   16.47
   3  13 -10    8.44   16.09
   3 -13  10   27.28   18.90
  -3 -13  10    4.61   11.89
   3 -13  10    9.70   14.07
  -3 -13  10   27.20   12.65
  -3 -13 -11   18.04   14.69
  -3  13 -11   23.12   18.44
   3  13 -11   28.03   18.75
   3 -13  11   51.82   25.72
  -3 -13  11   -1.23   11.01
   3 -13  11    6.99   14.24
  -3 -13  11   25.80   13.26
  -3  14   0  123.80   28.33
   3  14   0  118.16   28.51
   3 -14   0   89.51   36.57
   3 -14   0  128.88   29.38
  -3 -14   0  116.45   35.56
  -3  14  -1   16.12   15.20
  -3  14   1   17.12   14.54
   3  14  -1   66.31   20.31
   3  14   1   36.99   23.55
   3 -14  -1   22.20    7.02
   3 -14   1   35.37   13.96
   3 -14  -1   42.65   16.86
   3 -14   1   20.75   10.90
  -3 -14  -1   37.74   20.47
  -3 -14   1   66.56   27.16
  -3  14  -2   56.16   17.66
  -3  14   2   48.48   16.31
   3  14  -2   56.59   20.24
   3  14   2   59.74   24.66
   3 -14  -2   26.43    8.72
   3 -14   2   63.84   19.25
   3 -14  -2   66.94   26.40
   3 -14   2   54.94   16.79
  -3 -14  -2   10.39   10.40
  -3 -14   2   39.33   11.10
  -3  14  -3   73.13   25.47
  -3  14   3   20.68   14.50
   3  14  -3  -15.83   18.28
   3  14   3   21.65   17.91
   3 -14  -3   -8.38    7.80
   3 -14   3    8.38   12.13
   3 -14  -3   45.76   21.43
   3 -14   3   62.90   19.90
  -3 -14  -3   -2.25    9.37
  -3 -14   3   25.98   19.19
  -3  14  -4   28.73   15.48
  -3  14   4  -15.47   12.34
   3  14  -4    9.65   16.35
   3  14   4   47.00   20.81
   3 -14  -4   -0.01    8.80
   3 -14   4   23.33   19.20
   3 -14  -4   56.64   22.31
   3 -14   4   12.98   10.86
  -3 -14  -4   45.86   17.84
  -3 -14   4   14.51   13.28
  -3  14  -5   61.29   22.28
   3  14  -5   62.52   23.10
  -3  14   5   58.54   22.04
   3  14   5   42.74   18.73
   3 -14   5   67.42   19.85
   3 -14   5   48.97   20.31
  -3 -14  -5   50.81   22.26
  -3 -14   5   59.83   27.31
  -3  14  -6    9.45   16.65
   3  14  -6   19.49   18.78
  -3  14   6   34.58   16.82
   3  14   6    5.24   15.81
   3 -14   6   34.97   19.96
   3 -14   6   19.21   16.67
  -3 -14  -6   45.63   19.42
  -3 -14   6   23.72   10.05
  -3  14  -7  114.43   36.99
   3  14  -7    7.85   18.62
  -3  14   7   31.82   13.21
   3  14   7   34.38   17.28
   3 -14   7   44.94   19.22
   3 -14   7   35.54   17.36
  -3 -14  -7   49.14   16.74
  -3 -14   7   53.30   25.82
  -3  14  -8   66.17   25.03
   3  14  -8   47.17   22.36
  -3  14   8   37.79   13.91
   3  14   8   41.02   17.26
   3 -14   8   38.64   16.70
   3 -14   8   29.79   18.19
  -3 -14  -8   29.58   10.34
  -3 -14   8   59.07   21.95
  -3  14  -9   46.68   21.85
   3  14  -9   95.02   33.37
  -3  14   9   28.58   11.86
   3  14   9   83.19   25.50
   3 -14   9   46.39   17.55
   3 -14   9  105.63   34.39
  -3 -14  -9   34.01   12.17
  -3 -14   9   57.62   23.45
  -3  14 -10   14.68   17.85
   3  14 -10   36.99   26.01
   3  14  10   33.67   22.67
   3 -14  10  -16.75   13.85
   3 -14  10   42.78   20.04
  -3 -14  10   27.12   11.23
  -3  15   0    8.11   16.63
   3  15   0   42.59   18.09
   3 -15   0    7.39    7.03
   3 -15   0   61.62   30.11
  -3 -15   0   23.45   11.10
  -3  15  -1   25.53   16.06
  -3  15   1   30.10   15.83
   3  15  -1   41.23   17.96
   3  15   1   82.55   25.71
   3 -15   1   34.93   10.40
   3 -15   1   45.66   19.08
   3 -15  -1   69.66   27.54
  -3 -15   1   81.83   25.19
  -3 -15  -1   35.15   18.35
  -3  15  -2   19.20   15.19
  -3  15   2   21.08   15.10
   3  15  -2   58.23   21.63
   3  15   2   51.60   22.09
   3 -15   2   33.11   12.40
   3 -15  -2   39.44   16.55
  -3 -15   2   22.26   14.95
  -3 -15  -2   40.99   12.49
  -3  15  -3   34.53   18.88
  -3  15   3   42.68   16.02
   3  15   3   46.25   25.48
   3 -15   3   50.23   18.09
   3 -15  -3   65.35   27.45
   3 -15   3   73.24   26.04
  -3 -15  -3   46.85   20.17
  -3 -15   3   30.35   18.39
  -3  15  -4   15.08   15.15
   3  15  -4   14.03   16.48
  -3  15   4   45.70   13.82
   3  15   4  107.33   35.44
   3 -15   4   24.11   12.82
   3 -15  -4   19.96   14.92
   3 -15   4   13.19   15.24
  -3 -15  -4   59.36   17.96
  -3 -15   4   61.78   33.32
  -3  15  -5   -1.02   15.07
   3  15  -5   31.57   24.35
  -3  15   5   41.75   19.70
   3  15   5   25.02   19.29
   3 -15   5   19.47   11.90
   3 -15   5    9.13   16.33
  -3 -15  -5   11.72   10.82
  -3 -15   5   25.78   16.24
  -3  15  -6   37.40   17.93
   3  15  -6   -4.71   16.65
  -3  15   6   20.35   12.41
   3  15   6   35.27   17.90
   3 -15   6   11.51   11.90
   3 -15   6   18.60   12.94
  -3 -15  -6   -1.80   13.60
  -3 -15   6   23.76   12.15
  -3  15  -7   71.39   27.54
   3  15  -7   76.72   24.10
  -3  15   7   45.42   14.46
   3  15   7   78.22   22.69
   3 -15   7   35.48   13.97
   3 -15   7   97.74   29.05
  -3 -15  -7   37.65   30.34
  -3 -15   7  102.45   36.24
  -3  16   0   34.27   16.76
   3  16   0   25.84   18.69
   3 -16   0   34.41   17.20
  -3 -16   0   -9.73   17.97
  -3  16  -1   46.06   19.27
  -3  16   1   70.01   26.18
   3  16  -1  -13.14   19.71
   3  16   1   26.39   18.90
   3 -16  -1   72.69   30.20
   3 -16   1   12.54   17.28
  -3 -16   1   29.02    8.45
  -3 -16  -1   19.56   20.09
  -3  16  -2   74.87   31.44
  -3  16   2   24.96   15.96
   3  16  -2   28.70   21.28
   3  16   2   28.05   17.27
   3 -16  -2   15.75   17.66
   3 -16   2   95.31   32.06
  -3 -16   2   42.37   21.23
  -3 -16  -2   35.20   16.44
  -3  16  -3   40.11   18.34
  -3  16   3   38.73   16.82
   3  16   3   28.48   18.74
   3 -16  -3   83.04   29.12
   3 -16   3   25.33   21.23
  -3 -16  -3   29.15   20.56
  -3  16  -4   25.01   15.48
   3  16  -4   25.50   20.47
  -3  16   4   13.85   14.03
   3  16   4   22.92   23.34
   3 -16  -4   49.62   18.01
   3 -16   4   18.43   20.16
  -3 -16  -4   32.07   11.54
  -3 -16   4   48.43   26.12
  -4   0   0   10.95    6.52
   4   0   0   11.43    6.05
   4   0   0   11.09    6.72
  -4   0   0    0.88    8.79
  -4   0   1  121.86   20.03
  -4   0  -1  110.91   11.79
   4   0  -1  113.34    8.45
   4   0   1   81.12    8.83
   4   0  -1  112.47   25.69
  -4   0   1   72.46   10.33
  -4   0  -1  108.61   13.26
  -4   0   1  133.17   15.96
  -4   0  -1  101.35   17.09
  -4   0   2   45.07    7.18
  -4   0  -2   10.97    9.53
   4   0  -2   19.89    3.76
   4   0   2   10.06    8.18
   4   0  -2   25.89    6.39
  -4   0   2   21.12   11.21
   4   0   2   54.11   16.48
  -4   0  -2   48.94   12.76
  -4   0   2   32.24   11.71
   4   0  -3   50.16    4.66
  -4   0  -3   48.23   12.87
   4   0   3   18.22    7.56
   4   0  -3   43.29    4.28
   4   0  -3   58.36   14.06
   4   0   3   32.95   12.30
  -4   0  -3   33.08    7.57
  -4   0   3   57.26   12.72
  -4   0  -3   52.27   12.28
   4   0  -4  299.01   10.70
   4   0  -4  332.66   21.34
   4   0   4  308.43   21.71
  -4   0   4  259.62   21.09
  -4   0  -4  347.14   20.49
  -4   0  -5   12.04   12.36
   4   0  -5    8.20    3.21
   4   0   5   16.82    9.63
  -4   0   5   22.00   11.26
  -4   0   5   22.20   14.50
  -4   0  -5   13.36   10.76
  -4   0  -6   34.18   13.63
   4   0  -6   29.82    4.38
   4   0   6   45.76   15.31
  -4   0   6   15.54   13.05
  -4   0   6   39.80   13.71
  -4   0  -6   16.02    6.59
  -4   0  -7  448.89   34.29
   4   0  -7  404.92   24.02
  -4   0   7  392.12   22.93
   4   0   7  425.25   32.34
  -4   0   7  425.14   34.73
  -4   0   7  438.92   30.76
  -4   0  -7  383.09   27.28
  -4   0  -8   37.67   14.54
   4   0  -8   22.31    7.05
  -4   0   8    8.83    3.63
   4   0   8   14.37   12.09
  -4   0   8   13.84   12.30
  -4   0   8   22.20   12.75
  -4   0  -8   32.76   11.27
  -4   0  -9  147.42   20.94
   4   0  -9  188.96   15.30
  -4   0   9  137.82   11.33
   4   0   9  134.29   19.33
  -4   0   9  172.23   23.48
  -4   0  -9  141.26   13.79
  -4   0   9  179.12   18.59
  -4   0  -9  166.94   17.21
  -4   0 -10  286.74   27.37
   4   0 -10  284.22   17.76
  -4   0  10  244.96   15.81
   4   0  10  357.00   29.45
  -4   0  10  341.35   29.33
  -4   0  10  274.54   21.60
  -4   0 -10  303.39   19.70
  -4   0 -11  182.06   22.30
   4   0 -11  158.42   14.64
  -4   0  11  145.02   23.21
   4   0  11  138.87   28.11
  -4   0  11  148.59   32.24
  -4   0 -11   97.43   22.98
  -4   0  11  238.21   20.58
  -4   0 -11  193.02   16.18
  -4   0 -12  122.24   24.42
   4   0 -12  140.65   16.59
   4   0  12  133.00   22.41
  -4   0  12  114.91   25.20
  -4   0  12  122.66   14.04
  -4   0 -12  120.19   12.29
   4   0 -13   32.28   10.48
   4   0  13   72.71   24.40
  -4   0  13   86.57   28.16
  -4   0  13   65.88   16.43
  -4   0 -13   44.17   10.29
   4   0 -14    0.66    6.74
  -4   0 -14   11.65   13.93
   4   0  14   19.06   19.04
  -4   0  14   41.77   18.77
   4   0 -15   11.62    8.02
  -4   0 -15   77.94   27.54
   4   0  15   39.08   15.41
  -4   0  15   29.26   17.89
  -4   0 -16   53.34   17.95
   4   0  16   97.75   28.16
  -4   0  16   97.01   27.00
  -4   0 -17   17.33   16.02
   4   0  17   17.70   16.27
  -4   0  17  133.94   37.19
  -4   0 -18   11.70   20.57
   4   0  18  136.64   37.26
  -4   0  18   59.41   29.12
  -4  -1   0  569.72   43.12
   4   1   0  598.25   23.80
  -4   1   0  589.37   23.40
   4  -1   0  556.44   20.82
   4   1   0  629.04   32.98
   4  -1   0  620.34   75.65
  -4  -1   0  504.72   22.08
  -4  -1   0  620.31   29.32
  -4   1   0  589.57   29.84
  -4  -1   1  716.37   28.75
  -4  -1  -1  710.29   39.10
  -4   1   1  743.98   25.44
   4   1  -1  703.65   25.54
   4   1   1  757.21   29.17
  -4   1  -1  773.53   29.35
   4  -1   1  676.41   25.28
   4  -1  -1  698.28   23.64
   4   1  -1  847.72   83.85
   4  -1  -1  759.52   55.45
   4   1   1  819.20   72.63
  -4  -1   1  636.23   63.23
   4  -1   1  675.22   30.96
  -4  -1  -1  737.49   28.69
  -4  -1   1  740.16   33.11
  -4  -1  -1  781.06   33.69
  -4   1   1  708.46   31.53
   4   1   1  700.15   29.79
  -4  -1   2  546.58   20.54
  -4   1   2  548.49   27.67
   4   1  -2  549.92   20.48
  -4  -1  -2  587.46   25.97
  -4   1  -2  587.35   27.07
   4  -1   2  538.87   24.10
   4  -1  -2  553.46   18.03
   4  -1  -2  688.77   84.39
  -4  -1   2  454.39   48.34
   4   1   2  518.54   24.24
   4  -1   2  553.72   27.88
  -4  -1  -2  524.91   23.24
  -4   1  -2  558.37   25.18
  -4  -1   2  578.23   28.88
  -4  -1  -2  548.88   27.31
  -4   1   2  603.14   29.64
   4   1  -3  290.83   33.63
  -4  -1  -3  321.66   20.83
  -4   1  -3  312.71   23.62
   4   1   3  304.88   18.08
   4  -1   3  326.23   18.08
   4   1  -3  326.68   14.49
   4  -1  -3  360.21   53.74
   4   1   3  380.67   20.64
   4  -1   3  328.39   20.53
  -4  -1  -3  267.91   15.23
  -4  -1   3  346.25   21.66
  -4  -1  -3  337.07   20.15
  -4   1   3  336.74   21.48
   4   1  -4   32.23    6.40
  -4   1  -4   43.09   16.37
   4   1  -4   34.99    5.58
   4  -1  -4   55.98   11.62
   4   1   4   27.15   15.72
  -4  -1  -4   25.09   12.73
  -4  -1   4   45.78   16.57
  -4  -1  -4   29.85   10.26
  -4   1   4   17.22   10.74
   4   1  -5   23.57    4.86
  -4  -1  -5   29.03   17.01
   4   1  -5   21.00    5.71
   4  -1  -5   32.93   11.81
   4   1   5   27.72   13.11
   4  -1   5    1.92   11.02
  -4  -1  -5   62.69   13.38
  -4  -1   5   52.35   17.73
  -4  -1   5   54.96   13.90
  -4  -1  -5   37.26   14.90
  -4   1   5   29.38   14.81
  -4  -1  -6  400.20   31.05
  -4   1  -6  371.60   29.05
   4   1  -6  407.19   20.32
  -4  -1   6  361.55   17.89
   4  -1   6  447.31   30.18
   4   1   6  483.26   28.46
  -4  -1   6  396.56   26.83
  -4  -1   6  409.69   25.97
  -4  -1  -6  410.23   24.27
  -4   1   6  418.67   25.16
   4  -1  -7   25.57    3.58
  -4  -1  -7   21.15   12.12
  -4   1  -7   33.93   14.29
   4   1  -7   44.15    7.22
  -4   1   7   30.95    3.99
  -4  -1   7   41.73    6.05
   4   1   7   43.47   10.41
   4  -1   7   26.49   13.57
  -4   1   7   71.22   16.22
  -4  -1   7   36.93   14.06
  -4   1   7   66.99   12.74
  -4  -1  -7   47.48   11.19
   4  -1  -8  113.20    8.62
  -4  -1  -8  104.99   17.93
  -4   1  -8   91.19   17.92
   4   1  -8  126.78   11.80
  -4   1   8  114.51    8.54
  -4  -1   8   84.49   14.62
   4   1   8  115.13   18.82
   4  -1   8  164.17   21.78
  -4   1   8  156.06   20.43
  -4   1  -8   84.30   16.17
  -4  -1   8  118.21   15.92
  -4   1   8  137.53   18.80
  -4  -1  -8  109.28   12.71
   4  -1  -9  653.12   37.39
  -4  -1  -9  646.39   44.58
  -4   1  -9  694.63   48.92
   4   1  -9  687.05   35.15
  -4   1   9  652.79   31.83
  -4  -1   9  582.85   30.32
   4   1   9  671.97   44.62
   4  -1   9  695.14   47.65
  -4  -1   9  661.06   47.03
  -4   1   9  718.01   44.23
  -4  -1   9  573.43   37.82
  -4   1   9  616.24   35.89
  -4  -1  -9  650.61   34.79
  -4   1  -9  657.53   35.41
   4  -1 -10   44.72   10.35
  -4  -1 -10   36.10   17.48
  -4   1 -10   83.40   24.36
   4   1 -10   42.21   10.89
  -4   1  10   31.29    8.89
  -4  -1  10   12.48    7.50
   4   1  10   52.55   18.40
   4  -1  10   23.81   14.14
  -4  -1  10   15.42   13.48
  -4   1  10   62.37   18.66
  -4  -1 -10   52.00   12.90
  -4   1 -10   20.30    7.97
  -4  -1  10   18.51    9.02
  -4   1  10   29.79   12.75
  -4  -1 -10   42.49   10.51
  -4   1 -10   46.11   13.01
   4  -1 -11   96.52   18.55
  -4  -1 -11  166.00   23.11
  -4   1 -11  128.17   28.95
   4   1 -11  111.41   22.41
  -4   1  11   82.05   16.36
   4  -1  11   99.76   23.30
   4   1  11  157.58   22.90
  -4  -1  11  134.07   32.29
  -4   1  11   94.16   22.89
  -4  -1 -11   63.73   15.76
  -4   1 -11   58.08   15.30
  -4  -1  11  128.12   25.17
  -4   1  11  113.29   22.23
  -4  -1 -11  108.03   19.96
  -4   1 -11   92.31   18.12
   4  -1 -12   94.51   18.22
  -4  -1 -12  120.13   21.28
  -4   1 -12   75.67   21.75
   4   1 -12   57.04   12.80
   4   1  12  102.88   19.44
   4  -1  12  104.85   21.80
  -4  -1  12   91.78   26.48
  -4   1  12   87.66   25.52
  -4  -1  12   67.52   14.07
  -4   1  12   54.92   11.93
  -4  -1 -12   71.78   13.23
  -4   1 -12   91.00   17.48
   4  -1 -13  128.23   15.56
  -4  -1 -13  100.74   18.04
   4   1 -13  114.13   15.63
   4   1  13  141.81   26.35
  -4  -1  13  157.90   34.11
  -4   1  13  137.88   29.45
  -4  -1  13  136.74   17.87
  -4   1  13   90.80   12.00
  -4   1 -13  152.62   14.27
   4  -1 -14   60.12   12.68
  -4  -1 -14   58.56   20.58
  -4   1 -14   74.39   24.88
   4   1 -14   32.73   11.81
   4  -1  14   65.58   19.69
   4   1  14   41.15   15.49
  -4  -1  14   59.75   25.25
  -4   1  14   10.79   17.20
  -4  -1  14   55.29   15.41
  -4  -1 -15  309.93   51.91
  -4   1 -15  234.33   45.20
   4   1 -15  260.89   40.75
   4  -1  15  282.94   48.11
   4   1  15  314.21   29.84
  -4  -1  15  337.04   38.91
  -4   1  15  404.64   44.75
  -4  -1 -16   40.51   16.60
  -4   1 -16   13.35   16.97
   4  -1  16   25.90   22.54
   4   1  16   33.16   15.76
  -4  -1  16   61.59   29.08
  -4   1  16   31.85   18.85
  -4  -1 -17  205.00   36.31
  -4   1 -17  146.20   38.85
   4  -1  17  203.25   27.16
   4   1  17  193.55   43.83
  -4  -1  17  134.62   34.78
  -4   1  17  122.83   32.41
  -4  -1 -18   50.13   22.55
  -4   1 -18   53.85   23.00
   4  -1  18   31.95   16.60
   4   1  18   30.98   16.13
  -4  -1  18   51.82   21.19
  -4   1  18   30.40   17.37
  -4  -2   0  109.84   20.20
   4   2   0   91.98   11.23
  -4   2   0   94.10   10.18
   4  -2   0   67.29    6.68
   4   2   0  119.65   17.24
   4  -2   0  123.19   22.51
  -4  -2   0   86.33   10.34
  -4  -2   0   92.47   14.58
  -4  -2   1  739.03   34.08
  -4  -2  -1  905.34   62.16
   4   2  -1  705.25   60.72
   4   2   1  704.40   28.39
  -4   2   1  708.02   24.47
  -4   2  -1  736.97   28.64
   4  -2   1  721.38   26.96
   4  -2  -1  743.11   25.06
   4   2   1  759.84   48.15
   4  -2  -1  784.48   37.39
  -4  -2   1  677.66   57.88
   4  -2   1  811.81   34.83
  -4  -2  -1  665.63   26.95
  -4  -2  -1  728.82   32.24
  -4  -2   2  729.46   27.77
   4   2  -2  701.31   28.48
  -4  -2  -2  720.87   88.90
   4   2   2  639.16   27.54
  -4   2   2  726.88   23.22
  -4   2  -2  741.75   30.85
   4  -2   2  686.62   27.48
   4  -2  -2  749.08   23.59
   4   2  -2  715.10   33.29
   4  -2  -2  794.19   35.41
  -4  -2   2  736.26   41.81
   4   2   2  763.04   32.83
   4  -2   2  779.18   34.31
  -4  -2  -2  769.09   28.74
  -4  -2   2  738.00   33.48
  -4  -2  -2  680.35   32.02
   4   2  -3 1231.05   55.31
  -4   2  -3 1210.62   45.33
   4  -2   3 1147.39   41.25
   4   2  -3 1167.19   39.08
   4  -2  -3 1335.86   50.26
  -4  -2   3 1068.73   66.98
   4   2   3 1187.31   41.11
   4  -2   3 1186.97   46.35
  -4  -2  -3 1079.71   37.30
  -4  -2   3 1172.90   44.62
  -4  -2   3 1203.96   46.07
  -4  -2  -3 1143.13   43.77
   4   2  -4  462.73   38.69
  -4  -2  -4  438.56   27.39
  -4   2  -4  530.96   31.99
   4   2  -4  519.11   25.94
   4   2   4  483.26   26.96
   4  -2   4  414.20   26.18
  -4  -2  -4  508.24   27.57
  -4  -2   4  540.86   32.08
  -4  -2  -4  546.80   29.84
  -4   2   4  521.86   29.95
   4   2   4  417.11   24.26
   4   2  -5  125.06   18.09
  -4  -2  -5  120.40   17.08
  -4   2  -5  156.11   18.03
   4   2  -5  152.24   12.35
   4  -2  -5  134.23   18.77
   4   2   5  171.08   15.74
   4  -2   5  134.21   20.03
  -4  -2  -5  120.87   11.11
  -4  -2   5  154.81   17.20
  -4  -2   5  164.37   17.76
  -4  -2  -5  123.35   14.44
  -4   2   5  168.45   16.77
  -4  -2  -6   95.48   17.47
  -4   2  -6  103.90   15.69
   4   2  -6  110.04   10.77
  -4  -2   6  104.87    9.85
   4  -2  -6  118.57   18.35
   4   2   6   96.86   11.73
   4  -2   6  127.65   18.36
  -4  -2  -6   89.63   11.41
  -4  -2   6   98.63   15.95
  -4  -2   6  107.08   16.37
  -4  -2  -6  115.51   14.23
  -4   2   6  104.00   14.34
   4  -2  -7   25.51    3.83
  -4   2  -7   27.54   12.79
   4   2  -7   20.02    6.26
  -4   2   7   25.77    2.52
  -4  -2   7   26.48    5.97
   4  -2   7   19.32   13.43
   4   2   7   41.73   12.71
  -4  -2   7   36.87   13.58
  -4   2   7   68.04   18.35
  -4  -2   7   39.22   11.64
  -4  -2  -7   27.46   10.82
  -4   2   7   21.10    9.53
   4  -2  -8  286.50   23.54
  -4  -2  -8  324.46   28.25
  -4   2  -8  330.37   30.24
   4   2  -8  277.46   21.01
  -4   2   8  279.64   16.89
  -4  -2   8  242.93   17.34
   4  -2   8  270.50   26.82
   4   2   8  333.93   28.19
  -4  -2   8  257.84   25.44
  -4   2   8  286.28   26.75
  -4  -2   8  333.41   30.83
  -4  -2  -8  308.95   22.66
  -4   2   8  293.57   22.45
   4  -2  -9  149.75   27.26
  -4  -2  -9  174.64   22.32
  -4   2  -9  136.56   26.23
   4   2  -9  138.24   22.22
  -4   2   9  122.89   16.34
  -4  -2   9  101.09   16.27
   4   2   9  165.09   20.37
   4  -2   9  198.24   22.08
  -4  -2   9  186.04   21.62
  -4   2   9  134.59   25.07
  -4  -2   9  179.78   17.52
  -4  -2  -9  179.59   15.04
  -4   2   9  155.01   22.61
   4  -2 -10  438.61   28.93
  -4  -2 -10  465.36   38.31
  -4   2 -10  570.34   45.67
   4   2 -10  446.98   32.67
  -4   2  10  358.93   23.85
   4  -2  10  371.85   33.91
   4   2  10  464.04   35.49
  -4  -2  10  344.79   32.76
  -4   2  10  452.52   37.97
  -4  -2  10  386.31   29.91
  -4  -2 -10  411.80   28.24
  -4   2  10  385.16   29.62
   4  -2 -11  126.80   34.41
  -4  -2 -11  227.72   28.15
  -4   2 -11  227.22   28.67
   4   2 -11  259.22   21.52
  -4   2  11  189.24   15.30
   4  -2  11  206.79   28.11
   4   2  11  181.08   20.37
  -4   2  11  250.31   32.10
  -4  -2 -11  147.80   23.39
  -4  -2  11  228.62   21.81
  -4  -2 -11  224.92   17.70
  -4   2  11  215.93   19.26
   4  -2 -12  163.15   30.45
  -4  -2 -12  242.21   28.02
  -4   2 -12  202.39   27.53
   4   2 -12  295.60   26.15
   4  -2  12  318.23   34.54
   4   2  12  210.99   24.19
  -4  -2  12  179.39   25.19
  -4   2  12  153.35   26.95
  -4  -2  12  223.05   22.59
  -4  -2 -12  227.89   18.32
  -4   2  12  235.65   21.81
   4  -2 -13   23.13   11.43
  -4  -2 -13   36.25   16.55
  -4   2 -13   41.90   17.35
   4   2 -13   34.89   14.81
   4  -2  13   45.74   18.17
   4   2  13  104.24   19.70
  -4  -2  13   81.97   20.51
  -4   2  13   84.59   24.87
  -4  -2  13   27.26   11.32
  -4   2  13   34.66   12.03
  -4   2 -13   72.16   13.73
   4  -2 -14  118.25   32.87
  -4  -2 -14  254.27   42.85
   4   2 -14  187.93   29.98
   4  -2  14  161.98   33.72
   4   2  14  243.04   41.93
  -4  -2  14  252.74   46.35
  -4   2  14  213.95   38.42
  -4  -2  14  179.98   28.72
  -4  -2 -15   12.46   15.01
  -4   2 -15   34.84   19.68
   4   2 -15   16.20    9.31
   4  -2  15   22.95   15.07
   4   2  15    8.66   12.74
  -4  -2  15   18.76   15.79
  -4   2  15   36.27   17.42
  -4  -2 -16  149.70   33.07
  -4   2 -16  139.87   36.75
   4  -2  16  150.04   39.67
   4   2  16  174.96   39.79
  -4  -2  16  164.73   40.68
  -4   2  16  228.13   30.12
  -4  -2 -17   72.36   26.72
  -4   2 -17   99.53   35.57
   4  -2  17   32.04   15.65
   4   2  17   17.92   14.47
  -4  -2  17    9.61   18.91
  -4   2  17   58.41   25.90
  -4  -2 -18  146.74   28.66
   4   2  18  151.36   23.70
   4  -2  18  112.66   30.70
  -4  -2  18  226.51   35.14
  -4   2  18   53.61   21.58
  -4  -3   0  573.58   69.81
   4   3   0  538.74   49.63
  -4   3   0  547.76   22.47
   4  -3   0  548.66   22.53
   4   3   0  587.61   30.94
   4  -3   0  600.05   38.78
  -4  -3   0  594.64   23.66
  -4  -3   1  538.83   39.06
  -4  -3  -1  569.69   60.44
   4   3  -1  421.51   29.02
   4   3   1  384.77   19.97
  -4   3  -1  464.77   21.34
  -4   3   1  461.02   18.60
   4  -3   1  464.40   20.06
   4  -3  -1  447.19   18.04
   4   3  -1  479.99   22.02
   4   3   1  484.81   49.91
  -4  -3   1  390.63   29.82
   4  -3   1  389.19   23.56
  -4  -3  -1  450.51   18.86
  -4  -3   1  535.90   28.44
   4   3  -2  954.06   61.24
  -4  -3  -2 1071.05   41.66
  -4   3   2 1035.24   32.75
   4  -3   2  991.44   36.41
   4  -3  -2 1032.92   32.31
   4   3  -2  939.17   34.89
  -4  -3   2  919.89   61.33
   4  -3  -2 1044.59   42.65
   4   3   2 1057.56   71.00
   4  -3   2 1043.91   42.14
  -4  -3  -2  968.58   33.11
  -4  -3   2  934.48   35.64
  -4  -3   2  995.17   41.54
  -4  -3  -2 1005.79   40.77
  -4   3   3  989.85   40.60
   4   3  -3  997.84   59.50
  -4   3  -3 1025.97   50.49
  -4   3   3  947.42   39.05
   4   3  -3 1110.75   50.34
  -4  -3   3  809.02   76.61
   4  -3  -3  992.78   48.55
   4   3   3 1041.28   46.19
   4  -3   3  999.85   49.35
  -4  -3  -3  970.15   42.98
  -4  -3   3  996.73   47.23
  -4  -3   3  968.98   49.20
  -4  -3  -3 1002.71   49.28
   4   3  -4  259.35   31.36
  -4  -3  -4  388.91   39.38
  -4   3   4  307.40   12.73
  -4   3  -4  287.58   23.42
   4   3  -4  361.89   22.22
   4   3   4  313.26   18.71
   4  -3   4  262.27   23.20
  -4  -3  -4  326.09   18.76
  -4  -3   4  303.00   22.43
  -4  -3   4  306.76   23.58
  -4  -3  -4  303.37   21.17
   4   3  -5  157.08   12.27
  -4  -3  -5  220.44   41.84
  -4   3  -5  217.32   24.70
   4   3  -5  197.43   15.23
   4   3   5  204.06   15.34
   4  -3   5  209.67   21.75
  -4  -3  -5  136.15   11.40
  -4  -3   5  170.75   22.84
  -4  -3   5  187.00   19.78
  -4  -3  -5  189.54   19.51
  -4  -3  -6   94.46   16.58
  -4   3  -6  111.89   18.95
   4   3  -6  104.39   13.54
  -4  -3   6   67.11    8.18
   4  -3  -6   70.43   12.11
   4   3   6   90.43   12.84
   4  -3   6  129.46   19.32
  -4  -3  -6   88.83   11.88
  -4  -3   6   53.00   13.68
  -4  -3   6  108.15   17.85
  -4  -3  -6   69.96   11.28
   4   3   6   65.11    9.92
  -4   3   6   84.27   12.94
  -4  -3  -7  203.86   22.34
  -4   3  -7  214.14   22.52
  -4   3   7  179.13   10.75
   4   3  -7  235.61   19.83
  -4   3   7  168.26   10.28
  -4  -3   7  134.56   12.53
   4   3   7  176.42   15.74
   4  -3   7  142.85   18.55
  -4  -3  -7  174.94   15.17
  -4  -3   7  196.39   20.98
  -4   3   7  148.02   18.52
  -4  -3   7  187.77   22.78
  -4  -3  -7  228.35   18.57
  -4   3   7  203.46   23.09
   4  -3  -8   11.94    3.65
  -4  -3  -8   38.10   17.73
  -4   3  -8   18.84   13.68
   4   3  -8   34.92   11.44
  -4   3   8   21.74    5.27
  -4  -3   8   23.77    9.42
   4   3   8   25.27   13.77
   4  -3   8   10.08   12.55
  -4  -3   8   30.55   15.15
  -4   3   8   11.59   12.88
  -4  -3   8   14.90    9.78
  -4  -3  -8   31.88   11.08
  -4   3   8   26.63   12.24
   4  -3  -9  601.48   29.32
  -4  -3  -9  612.01   39.58
  -4   3  -9  626.76   41.88
   4   3  -9  617.32   34.04
  -4   3   9  563.53   27.53
   4  -3   9  619.33   42.84
   4   3   9  625.39   37.39
  -4  -3   9  617.04   41.29
  -4   3   9  634.37   41.29
  -4  -3   9  636.14   38.46
  -4  -3  -9  639.12   33.96
  -4   3   9  694.63   38.86
   4  -3 -10   73.71   18.33
  -4   3 -10  169.31   24.45
   4   3 -10  121.62   26.51
  -4   3  10   62.57   12.44
   4  -3  10   76.03   27.58
   4   3  10   70.82   18.71
  -4  -3  10   93.31   27.03
  -4   3  10   78.69   20.40
  -4  -3  10   59.74   14.05
  -4  -3 -10   67.69   14.56
  -4   3  10   77.83   18.28
   4  -3 -11  147.57   38.48
  -4   3 -11  239.30   30.27
   4   3 -11  216.46   20.05
   4  -3  11  202.78   28.42
   4   3  11  226.92   21.84
  -4  -3  11  220.42   27.45
  -4   3  11  247.49   28.18
  -4  -3  11  214.70   22.05
  -4  -3 -11  191.89   15.28
  -4   3  11  143.77   24.61
   4  -3 -12   31.25    8.71
  -4  -3 -12   23.92   13.38
  -4   3 -12   66.66   21.41
   4   3 -12   35.82   12.61
   4  -3  12   14.48   15.30
   4   3  12   42.20   17.34
  -4  -3  12   42.17   16.34
  -4   3  12   51.44   18.61
  -4  -3  12    3.45    8.99
  -4  -3 -12   33.80    8.28
  -4   3  12   32.03   10.45
   4  -3 -13   89.15   24.00
  -4  -3 -13  138.67   26.54
  -4   3 -13  187.85   32.07
   4   3 -13  217.93   31.08
   4  -3  13  154.27   25.22
   4   3  13  240.49   31.31
  -4  -3  13  174.76   28.72
  -4   3  13  179.97   30.37
  -4  -3  13  212.19   26.94
  -4   3  13  139.86   18.03
  -4  -3 -14  182.33   35.73
   4   3 -14  112.47   23.53
   4  -3  14  202.62   40.73
   4   3  14   93.40   22.10
  -4  -3  14  162.81   34.56
  -4   3  14  168.97   37.42
  -4  -3  14  156.25   26.17
  -4  -3 -15  103.99   27.47
  -4   3 -15  156.12   35.45
   4   3 -15  129.69   23.01
   4  -3  15   81.49   23.49
   4   3  15  117.56   27.53
  -4   3  15  199.14   35.84
  -4  -3 -16   20.56   14.02
  -4   3 -16   64.92   23.02
   4   3 -16   12.59    9.63
   4  -3  16   44.49   20.49
   4   3  16   64.50   27.10
  -4  -3  16    7.85   17.38
  -4   3  16   33.05   18.73
  -4  -3 -17   76.98   28.45
  -4   3 -17   27.91   18.94
   4  -3  17   97.40   34.10
   4   3  17   67.27   24.86
  -4  -3  17   71.66   32.23
  -4   3  17   64.64   23.24
  -4  -3 -18   77.19   28.20
  -4   3 -18   75.58   27.71
   4  -3  18   37.91   25.83
  -4  -3  18   20.73   20.69
  -4   3  18   28.96   16.33
  -4  -4   0  571.43   75.86
  -4   4   0  565.34   29.10
   4  -4   0  547.81   27.85
   4   4   0  569.08   27.93
  -4  -4   0  509.45   26.11
  -4  -4   1  812.23   41.85
  -4  -4  -1  831.15   68.10
  -4   4  -1  828.78   40.22
  -4   4   1  770.99   35.57
   4  -4   1  705.18   34.00
   4  -4  -1  701.13   32.15
   4   4   1  760.21   45.53
  -4  -4   1  696.72   41.02
   4  -4   1  808.34   43.05
  -4  -4  -1  766.91   34.63
  -4  -4   1  740.46   35.28
  -4  -4   1  782.51   42.45
   4   4  -2  218.70   37.25
  -4   4  -2  247.59   18.74
  -4   4   2  285.77   16.83
   4  -4   2  233.95   16.40
   4  -4  -2  269.68   14.97
   4   4  -2  299.01   21.86
  -4  -4   2  177.90   33.34
   4   4   2  290.18   32.05
   4  -4  -2  359.83   52.91
   4  -4   2  296.35   25.96
  -4  -4  -2  292.06   16.21
  -4  -4   2  276.94   18.30
  -4  -4   2  293.74   23.62
  -4  -4  -2  286.86   21.77
  -4   4   3  133.26   19.37
   4   4  -3  131.77   21.31
  -4  -4  -3  189.61   32.39
  -4   4  -3  227.97   24.55
  -4   4   3  186.67   12.16
   4   4  -3  197.30   17.10
  -4  -4   3  134.97   25.55
   4  -4  -3  202.78   35.44
   4   4   3  179.22   23.06
   4  -4   3  188.91   20.75
  -4  -4  -3  142.71   10.11
  -4  -4   3  201.39   17.13
  -4  -4   3  243.24   24.70
  -4  -4  -3  170.45   18.65
   4   4  -4   77.18   16.04
  -4  -4  -4  122.88   22.57
  -4   4  -4   76.71   14.10
  -4   4   4   70.26    6.14
   4   4  -4   95.51   11.92
   4  -4  -4  101.65   25.79
   4   4   4   92.09    9.32
   4  -4   4  132.64   23.77
  -4  -4  -4   68.25    8.02
  -4  -4   4   97.98   13.06
  -4  -4   4   77.99   15.27
  -4  -4  -4   89.91   15.23
  -4  -4  -5  534.93   61.16
  -4   4   5  509.79   28.76
  -4   4  -5  507.49   37.52
  -4   4   5  505.43   28.59
   4   4  -5  521.17   34.49
   4  -4  -5  550.27   67.97
   4   4   5  550.93   33.71
   4  -4   5  506.83   37.92
  -4  -4  -5  556.07   33.56
  -4  -4   5  500.68   35.06
  -4  -4   5  458.15   34.86
  -4  -4  -5  505.57   34.55
  -4  -4  -6   17.97    8.32
  -4   4  -6   19.70   12.48
   4   4  -6   14.57    8.31
  -4   4   6    6.70    3.16
   4  -4  -6   25.92   13.57
   4   4   6   10.59    6.03
   4  -4   6    2.36   11.05
  -4  -4  -6   -2.69    5.00
  -4  -4   6   17.42   11.76
  -4  -4   6   38.05   12.67
  -4  -4  -6   30.72    9.48
  -4  -4  -7   88.75   20.46
  -4   4   7   81.44   13.61
  -4   4  -7  101.47   18.32
   4   4  -7  132.45   16.67
  -4   4   7   67.24   11.23
   4   4   7  108.08   13.43
   4  -4   7   78.16   18.79
  -4  -4  -7   68.28   13.41
  -4  -4   7   96.68   19.50
  -4  -4   7   93.14   16.42
  -4  -4  -7   87.68   17.19
  -4  -4  -8  152.86   32.84
  -4   4  -8  144.88   25.15
  -4   4   8  156.82   20.25
   4   4  -8  139.51   23.45
  -4   4   8  175.52   10.87
   4   4   8  173.06   16.41
   4  -4   8  160.58   34.05
  -4  -4   8  118.70   21.57
  -4   4   8  178.79   21.05
  -4  -4   8  158.20   24.98
  -4  -4  -8  151.80   23.31
  -4   4   8  144.17   22.66
   4  -4  -9   17.85    9.33
  -4  -4  -9   91.21   26.38
  -4   4  -9   55.27   17.70
  -4   4   9   46.20   10.19
   4   4  -9   34.69   12.03
   4  -4   9   39.36   16.19
   4   4   9   48.35   15.83
  -4  -4   9   42.13   14.42
  -4   4   9   66.36   22.78
  -4  -4   9   49.40   17.25
  -4  -4  -9   50.86   12.35
  -4   4   9   47.72   14.76
   4  -4 -10  141.78   33.33
  -4  -4 -10  222.88   39.81
  -4   4 -10  233.87   31.13
  -4   4  10  175.34   13.45
   4   4 -10  235.78   23.55
   4  -4  10  207.41   29.40
   4   4  10  230.39   24.15
  -4  -4  10  212.28   26.91
  -4   4  10  192.72   24.20
  -4  -4  10  243.59   25.50
  -4  -4 -10  204.00   18.28
  -4   4  10  168.05   16.33
   4  -4 -11  205.54   25.88
  -4  -4 -11  148.30   33.24
  -4   4 -11  208.39   29.60
   4   4 -11  205.43   24.66
   4  -4  11  179.64   27.36
   4   4  11  267.49   26.03
  -4  -4  11  182.54   27.96
  -4   4  11  298.08   36.83
  -4  -4 -11  178.17   16.37
  -4  -4  11  224.18   24.52
  -4   4  11  248.42   22.91
   4  -4 -12   16.66    8.30
  -4  -4 -12   22.67   14.84
  -4   4 -12   43.14   19.11
   4   4 -12   50.62   16.69
   4  -4  12    9.65   15.72
   4   4  12   32.99   11.31
  -4  -4  12   38.86   18.24
  -4   4  12    7.81   13.93
  -4  -4 -12   14.66    6.20
  -4  -4  12   63.12   18.39
  -4   4  12   14.35    8.44
   4  -4 -13   32.68    9.57
  -4  -4 -13   51.22   25.88
  -4   4 -13   50.26   18.21
   4   4 -13   20.42   10.01
   4  -4  13   26.11   17.77
   4   4  13   43.74   16.72
  -4  -4  13   34.20   16.46
  -4   4  13   36.84   18.59
  -4  -4  13   27.81   15.03
  -4   4  13   24.56    8.54
  -4  -4 -14   58.22   23.99
   4   4 -14    0.64    9.41
   4  -4  14  -22.67   16.48
   4   4  14   51.60   16.68
  -4  -4  14    2.07   15.00
  -4   4  14   -5.12   14.75
  -4  -4  14   15.58    8.98
  -4  -4 -15   58.74   15.10
  -4   4 -15   27.87   19.00
   4   4 -15   25.45   10.95
   4  -4  15   26.34   17.46
   4   4  15   44.23   15.67
  -4  -4  15   25.11   24.74
  -4   4  15   25.47   14.05
  -4  -4 -16   44.14   15.78
  -4   4 -16   92.43   30.41
   4   4 -16   38.79   16.27
   4  -4  16   90.69   30.33
   4   4  16   43.80   15.42
  -4  -4  16   22.14   16.09
  -4   4  16   31.32   15.83
  -4  -4 -17   21.07   13.81
  -4   4 -17   20.58   17.42
   4  -4  17   46.04   27.11
   4   4  17   17.22   13.91
  -4  -4  17   41.86   25.30
  -4   4  17   36.77   22.54
  -4  -4 -18   23.92   15.32
   4  -4  18   40.93   18.41
   4   4  18   21.54   12.31
  -4   4  18   37.73   22.18
  -4  -5   0  279.44   21.47
  -4   5   0  294.26   21.00
   4  -5   0  282.80   17.92
  -4  -5   0  269.27   30.34
   4  -5   0  358.44   25.67
  -4  -5   0  256.27   14.91
  -4  -5  -1  222.64   40.01
  -4   5  -1  189.91   17.14
  -4   5   1  185.75   15.01
   4  -5   1  190.31   14.27
   4  -5  -1  176.62   14.19
   4   5  -1  192.30   19.47
  -4  -5   1  168.07   26.67
   4  -5  -1  216.30   43.14
   4  -5   1  171.26   18.54
  -4  -5  -1  188.27   11.21
  -4  -5   1  178.56   13.72
  -4  -5  -1  171.95   10.99
  -4  -5  -1  210.39   24.41
  -4  -5   1  230.87   24.46
  -4  -5  -2  618.67   86.38
  -4   5  -2  576.33   31.60
  -4   5   2  589.37   29.18
   4  -5  -2  503.19   24.82
   4   5  -2  566.43   32.24
   4   5   2  526.14   38.75
  -4  -5   2  503.81   38.66
   4  -5  -2  606.52   70.60
  -4  -5  -2  561.11   25.19
  -4  -5   2  645.08   32.34
  -4  -5   2  546.41   33.55
  -4  -5  -2  593.01   35.12
  -4   5   3  190.68   30.35
  -4  -5  -3  270.33   50.89
  -4   5  -3  252.70   23.39
  -4   5   3  267.39   18.64
   4   5  -3  272.17   23.07
  -4  -5   3  187.56   29.37
   4   5   3  233.39   26.00
   4  -5  -3  319.99   49.12
   4  -5   3  250.59   25.50
  -4  -5  -3  272.83   17.63
  -4  -5   3  282.77   23.42
  -4  -5   3  316.83   27.69
  -4  -5  -3  275.89   24.79
  -4   5   4  489.07   46.48
  -4  -5  -4  657.41   64.80
  -4   5  -4  497.52   36.92
  -4   5   4  521.24   30.90
   4   5  -4  580.97   40.84
   4  -5  -4  638.56   97.71
   4   5   4  514.30   33.12
   4  -5   4  590.41   41.75
  -4  -5  -4  485.16   28.50
  -4  -5   4  545.97   37.10
  -4  -5   4  546.26   38.75
  -4  -5  -4  552.91   37.79
  -4  -5  -5  538.07   82.10
  -4   5   5  461.52   39.77
  -4   5  -5  535.33   37.86
  -4   5   5  536.23   31.30
   4   5  -5  467.73   33.37
   4  -5  -5  552.35   77.40
   4   5   5  544.74   31.85
   4  -5   5  531.68   40.62
  -4  -5  -5  513.80   30.50
  -4  -5   5  466.13   32.39
  -4  -5   5  545.53   39.39
  -4  -5  -5  498.42   35.30
  -4  -5  -6  465.47   48.24
  -4   5   6  393.19   23.67
  -4   5  -6  456.73   34.53
   4   5  -6  352.00   27.49
  -4   5   6  440.65   26.34
   4  -5  -6  478.99   58.87
   4   5   6  428.78   26.83
   4  -5   6  500.37   41.58
  -4  -5  -6  406.74   25.25
  -4  -5   6  410.32   31.24
  -4  -5   6  445.48   38.55
  -4  -5  -6  413.22   31.12
  -4  -5  -7  463.69   39.57
  -4   5   7  285.87   16.61
  -4   5  -7  339.29   30.10
   4   5  -7  422.25   28.64
  -4   5   7  351.53   19.48
   4  -5  -7  259.70   23.13
   4   5   7  329.32   20.20
   4  -5   7  382.13   28.87
  -4  -5   7  334.56   27.98
  -4  -5   7  370.32   27.92
  -4  -5  -7  312.80   21.98
  -4  -5  -8  303.82   60.33
  -4   5   8  218.70   14.58
  -4   5  -8  283.51   28.22
   4   5  -8  290.63   24.28
  -4   5   8  260.05   15.73
   4   5   8  288.18   19.17
   4  -5   8  210.28   25.92
  -4  -5   8  263.33   24.89
  -4  -5  -8  220.46   17.60
  -4   5   8  226.25   23.12
  -4  -5   8  216.99   20.92
  -4  -5  -8  239.51   18.66
  -4  -5  -9  304.68   43.44
  -4   5   9  271.29   19.23
  -4   5  -9  288.60   34.15
   4   5  -9  315.53   27.94
  -4   5   9  306.28   21.25
   4   5   9  324.61   25.36
   4  -5   9  320.92   32.42
  -4  -5   9  349.87   32.27
  -4   5   9  251.92   28.55
  -4  -5   9  309.31   28.14
  -4  -5  -9  335.53   25.86
  -4   5   9  354.51   28.68
   4  -5 -10  326.69   21.96
  -4   5 -10  387.73   39.00
   4   5 -10  304.44   25.97
   4  -5  10  375.26   39.35
   4   5  10  280.84   22.48
  -4  -5  10  351.78   36.31
  -4   5  10  367.14   35.79
  -4  -5 -10  340.59   24.14
  -4  -5  10  259.33   25.30
  -4   5  10  297.78   24.56
   4  -5 -11  117.64   28.71
  -4  -5 -11   96.68   24.42
  -4   5 -11  116.72   23.66
   4   5 -11  170.52   23.62
   4  -5  11  174.33   29.90
   4   5  11  157.54   20.51
  -4  -5  11  140.53   23.79
  -4   5  11  179.35   29.52
  -4  -5 -11  144.70   14.88
  -4  -5  11  161.94   19.39
  -4   5  11  151.10   16.51
   4  -5 -12    9.91    6.79
  -4  -5 -12   33.97   16.42
  -4   5 -12   32.65   17.76
   4   5 -12   26.44   11.82
   4  -5  12   18.52   17.05
   4   5  12   59.21   19.83
  -4  -5  12   67.12   20.87
  -4   5  12   36.26   16.41
  -4  -5  12   34.82   16.54
  -4   5  12   50.38   15.30
  -4  -5 -13   69.27   20.98
  -4   5 -13   33.82   16.14
   4   5 -13   58.20   17.33
   4  -5  13   23.98   18.53
   4   5  13   36.80   10.88
  -4  -5  13    9.69   16.02
  -4   5  13   85.75   24.94
  -4  -5  13   35.13   15.47
  -4  -5 -14  107.08   22.78
  -4   5 -14   65.25   18.30
   4   5 -14   69.42   18.71
   4  -5  14   64.09   25.22
   4   5  14   34.77   12.02
  -4  -5  14   57.28   18.81
  -4   5  14  134.43   27.19
  -4  -5  14   40.33   12.66
  -4  -5 -15  148.02   46.08
   4   5 -15  229.48   37.16
   4  -5  15  226.27   41.49
   4   5  15  182.32   29.59
  -4  -5  15  148.05   34.70
  -4   5  15  179.55   34.02
  -4  -5  15  162.28   28.04
  -4  -5 -16   79.17   23.85
  -4   5 -16    2.07   16.00
   4   5 -16   26.48   12.04
   4  -5  16   21.17   17.68
   4   5  16   23.14   10.28
  -4  -5  16   48.50   20.48
  -4   5  16   66.00   25.22
  -4  -5 -17   16.06   17.27
  -4   5 -17   70.31   26.97
   4  -5  17   12.85   19.38
  -4  -5  17   41.51   24.19
  -4   5  17    9.30   16.21
  -4  -6   0  223.70   22.53
  -4   6   0  273.39   21.30
  -4  -6   0  194.36   27.12
   4  -6   0  254.61   25.32
  -4  -6   0  227.28   16.14
  -4  -6   0  244.99   23.90
  -4  -6  -1  795.83  115.09
  -4   6  -1  640.64   41.34
  -4   6   1  730.21   45.47
   4  -6  -1  616.86   37.69
   4   6  -1  667.16   43.96
  -4  -6   1  614.92   50.70
   4  -6  -1  717.58   60.20
   4  -6   1  822.11   56.18
  -4  -6  -1  690.19   38.61
  -4  -6   1  664.80   39.70
  -4  -6  -1  681.92   38.41
  -4  -6   1  706.83   48.20
  -4  -6  -1  742.93   49.70
  -4  -6  -2  481.06   39.48
  -4   6  -2  536.97   38.03
  -4   6   2  468.33   30.65
   4   6  -2  472.30   35.41
   4  -6  -2  446.48   28.36
  -4  -6   2  376.21   61.30
   4  -6  -2  487.56   75.78
   4  -6   2  550.20   39.27
  -4  -6   2  494.16   31.53
  -4  -6  -2  474.05   26.74
  -4  -6   2  383.04   31.57
  -4  -6  -2  574.94   40.10
  -4   6   3  137.39   18.11
  -4  -6  -3  262.82   42.73
  -4   6  -3  217.38   22.53
  -4   6   3  215.77   18.46
   4   6  -3  239.01   21.99
  -4  -6   3  148.45   27.10
   4  -6  -3  222.02   48.61
   4  -6   3  235.87   24.65
  -4  -6   3  214.16   18.32
  -4  -6  -3  218.90   13.06
  -4  -6   3  185.23   21.57
  -4  -6  -3  173.67   19.01
  -4   6   4   36.97   12.29
  -4  -6  -4   88.14   25.98
  -4   6  -4   77.76   19.98
  -4   6   4   55.85   11.33
   4   6  -4   50.16   15.42
   4   6   4   48.71    9.15
   4  -6  -4   79.04   20.63
   4  -6   4   45.09   14.26
  -4  -6   4   66.43   15.13
  -4  -6   4   49.41   16.22
  -4  -6  -4   29.63   12.33
  -4  -6  -5  158.29   28.24
  -4   6   5   99.02   22.00
  -4   6  -5  126.54   16.40
  -4   6   5  156.96   13.17
   4   6  -5  131.44   19.97
   4  -6  -5  118.54   25.47
   4   6   5  121.03   18.57
   4  -6   5  181.39   23.14
  -4  -6   5  158.81   19.88
  -4  -6   5  111.56   19.19
  -4  -6  -5  157.58   20.00
  -4  -6  -6  327.30   51.68
  -4   6   6  234.06   16.17
  -4   6  -6  220.84   22.88
   4   6  -6  247.25   21.75
  -4   6   6  262.82   17.25
   4  -6  -6  211.96   42.12
   4   6   6  225.81   13.74
  -4  -6   6  296.11   23.47
  -4  -6  -6  240.77   14.06
  -4  -6   6  285.89   25.70
  -4  -6  -6  269.50   22.01
  -4  -6  -7   81.06   15.86
  -4   6   7   66.85   10.99
  -4   6  -7   97.14   27.14
   4   6  -7   58.71   15.72
  -4   6   7   48.11    9.30
   4  -6  -7   31.68   12.82
   4   6   7   41.17    8.54
   4  -6   7   92.36   22.09
  -4  -6   7   45.87   14.73
  -4  -6  -7   63.15   11.00
  -4  -6   7   80.29   22.73
  -4  -6  -7   88.23   17.03
  -4  -6  -8  129.63   30.06
  -4   6   8  101.10   19.81
  -4   6  -8  160.29   21.55
   4   6  -8  200.68   25.06
  -4   6   8  146.88   13.19
   4   6   8  149.55   14.28
   4  -6   8  229.36   28.01
  -4  -6   8  188.35   26.58
  -4  -6  -8  119.14   22.50
  -4   6   8  164.16   23.69
  -4  -6  -8  166.07   18.38
  -4  -6   8  117.79   26.51
  -4  -6  -9   78.68   20.26
  -4   6   9   63.10   13.23
  -4   6  -9   49.96   18.31
   4   6  -9   49.82   15.69
  -4   6   9   76.02   15.38
   4   6   9   88.34   17.84
   4  -6   9   88.46   26.83
  -4  -6   9  116.72   30.21
  -4  -6  -9   31.29    8.05
  -4   6   9   82.77   23.35
  -4  -6   9   78.33   22.04
  -4  -6  -9  124.10   24.37
  -4   6 -10  588.62   51.31
   4   6 -10  389.90   34.60
  -4   6  10  472.75   34.38
   4   6  10  401.90   31.45
   4  -6  10  455.56   43.91
  -4  -6  10  404.83   38.55
  -4   6  10  460.50   41.27
  -4  -6 -10  462.92   36.60
  -4  -6  10  430.55   39.73
   4  -6 -11  111.62   12.34
  -4  -6 -11  133.06   24.86
  -4   6 -11   92.34   23.36
   4   6 -11  110.43   17.95
   4  -6  11  139.92   28.48
   4   6  11   74.44   17.57
  -4  -6  11  117.68   20.80
  -4   6  11  171.13   26.48
  -4  -6 -11  134.41   15.08
  -4  -6  11  136.39   21.52
  -4   6  11  120.66   15.12
   4  -6 -12   17.43    6.23
  -4  -6 -12   32.65   12.22
  -4   6 -12   39.89   18.57
   4   6 -12   35.64   13.38
   4  -6  12   52.28   19.56
   4   6  12   34.60   14.08
  -4  -6  12   83.52   23.91
  -4   6  12   54.18   18.35
  -4  -6  12   93.11   20.17
  -4   6  12   51.11   15.10
  -4  -6 -13  132.22   40.35
  -4   6 -13  119.00   28.31
   4   6 -13  118.63   25.22
   4  -6  13  113.41   27.90
   4   6  13  131.61   23.88
  -4  -6  13   60.63   22.33
  -4   6  13   80.02   22.69
  -4  -6  13   72.99   19.28
  -4  -6 -14  144.40   34.91
  -4   6 -14  270.14   43.54
   4   6 -14  154.98   29.83
   4  -6  14  179.68   33.23
   4   6  14  161.69   24.07
  -4  -6  14  237.66   37.88
  -4   6  14  171.36   32.41
  -4  -6  14  190.87   29.69
  -4  -6 -15   28.58   11.71
  -4   6 -15   95.58   30.02
   4  -6  15   53.98   24.36
  -4  -6  15   59.31   26.62
  -4   6  15   20.64   22.28
  -4  -6  15   75.23   19.16
  -4  -6 -16   44.79   14.00
  -4   6 -16   53.62   29.66
   4   6 -16   71.25   25.92
  -4  -6  16   87.62   32.11
  -4   6  16   70.57   29.80
  -4  -6 -17  117.15   35.67
  -4   6 -17  138.36   35.49
   4  -6  17  233.89   47.02
  -4  -6  17  161.24   43.83
  -4   6  17   78.22   22.60
  -4   7   0  282.93   23.95
   4   7   0  269.96   24.26
  -4  -7   0  214.00   27.79
   4  -7   0  244.03   23.45
  -4  -7   0  266.41   17.06
  -4  -7   0  243.55   26.26
  -4  -7  -1  127.58   18.61
  -4   7  -1  162.72   18.67
  -4   7   1  122.45   14.27
   4   7  -1  111.40   16.37
  -4  -7   1   91.71   18.62
   4  -7  -1  139.77   29.16
   4  -7   1  143.58   20.19
  -4  -7  -1  120.64    8.44
  -4  -7   1  143.95   12.64
  -4  -7   1  151.98   23.61
  -4  -7  -1  171.43   24.96
  -4  -7  -2   59.09   19.20
  -4   7  -2   14.63   10.50
  -4   7   2   34.38   10.13
   4   7  -2   65.64   18.63
  -4  -7   2   24.03    7.57
   4  -7  -2   68.41   16.72
   4  -7   2   62.23   17.95
  -4  -7   2   32.51    8.79
  -4  -7  -2   51.09   17.20
  -4  -7   2   58.55   16.40
  -4   7   3    2.82    4.98
  -4  -7  -3  -12.27   11.84
  -4   7  -3   -9.18    9.44
  -4   7   3   14.08    7.35
   4   7  -3   28.23   13.20
  -4  -7   3   13.68    4.41
   4  -7  -3   12.38    9.55
   4  -7   3   13.17   13.46
  -4  -7   3    4.86    6.34
  -4  -7  -3    4.10   10.36
  -4  -7   3   32.27   15.74
  -4  -7  -4   32.56   13.18
  -4   7   4   22.68    7.86
  -4   7  -4   47.50   14.70
  -4   7   4   36.95    8.91
   4   7  -4   50.91   18.09
   4  -7  -4   48.36   17.08
   4  -7   4   68.35   20.84
  -4  -7   4   67.89   14.12
  -4  -7  -4   52.51   17.19
  -4  -7   4   63.94   22.68
  -4  -7  -5  184.90   39.86
  -4   7   5  113.63   26.21
  -4   7  -5  241.18   26.15
  -4   7   5  169.89   13.98
   4   7  -5  167.46   19.83
   4  -7  -5  252.75   37.57
   4  -7   5  207.91   24.97
  -4  -7   5  108.30   18.73
  -4  -7   5  157.63   28.56
  -4  -7  -5  138.22   23.30
  -4  -7  -6   38.94   15.13
  -4   7   6    6.95    4.47
  -4   7  -6   42.45   15.49
   4   7  -6   31.92   13.68
  -4   7   6   32.88    8.95
   4  -7  -6   32.49   15.66
   4   7   6    8.18    1.92
   4   7   6    6.65    2.30
   4  -7   6   32.44   14.49
  -4  -7   6   79.76   20.73
  -4  -7   6   10.24   13.57
  -4  -7  -6   26.78   18.94
  -4  -7  -7   20.44   10.28
  -4   7   7   29.53    9.23
  -4   7  -7   56.59   18.58
   4   7  -7   87.18   22.60
  -4   7   7   16.81    8.99
   4  -7  -7   28.10   12.48
   4   7   7   10.00    4.19
   4  -7   7   41.04   17.42
  -4  -7   7   24.10   14.62
  -4  -7  -7   50.14   15.82
  -4  -7   7   64.50   24.50
  -4  -7  -8   53.74   20.31
  -4   7  -8   25.78   16.34
   4   7  -8   34.14   18.28
  -4   7   8    8.49    5.76
   4   7   8   11.70    5.00
   4  -7   8   50.11   16.70
  -4  -7   8   11.60   11.08
  -4  -7  -8   20.31    6.49
  -4   7   8   20.53   17.72
  -4  -7  -8   17.35   12.94
  -4  -7   8   49.86   23.06
  -4   7  -9   32.03   16.75
   4   7  -9   13.79   13.30
  -4   7   9   36.51    9.55
   4   7   9   15.47    7.06
  -4  -7   9   15.88   12.28
  -4   7   9   50.05   16.07
  -4  -7  -9   32.58   11.50
  -4  -7   9   12.70   13.91
  -4  -7 -10   51.65   16.85
  -4   7 -10   61.16   20.56
   4   7 -10   53.76   17.90
  -4   7  10   45.46   11.56
   4   7  10   37.36   10.79
   4  -7  10   47.66   19.22
  -4  -7  10   70.81   23.68
  -4   7  10   39.48   20.61
  -4  -7  10   79.45   21.39
  -4  -7 -11   91.98   25.26
  -4   7 -11  178.21   32.53
   4   7 -11   81.09   17.34
  -4   7  11  130.34   17.32
   4   7  11  130.58   17.57
   4  -7  11  201.73   33.17
  -4  -7  11  154.36   29.31
  -4   7  11  156.51   27.09
  -4  -7 -11   95.68   15.59
  -4  -7  11  126.27   24.92
  -4   7 -12   28.27   15.97
   4   7 -12   81.86   21.93
   4  -7  12   94.17   24.23
  -4  -7  12   72.81   25.63
  -4   7  12   43.81   15.30
  -4  -7  12   97.55   25.30
  -4   7  12   52.93   12.95
  -4  -7 -13   50.90   13.58
  -4   7 -13   74.06   24.35
   4   7 -13   24.58   17.11
   4  -7  13   19.93   16.24
  -4  -7  13   31.03   23.54
  -4   7  13   25.70   13.84
  -4  -7  13    1.76    9.77
  -4  -7 -14   46.95   13.10
  -4   7 -14   19.68   17.19
   4   7 -14   40.72   14.02
   4  -7  14   40.83   25.61
  -4  -7  14   43.45   19.39
  -4   7  14   49.78   23.02
  -4  -7  14   56.30   20.79
  -4  -7 -15  148.74   49.44
  -4   7 -15  159.55   42.08
   4   7 -15  159.95   35.62
   4  -7  15  149.17   37.21
  -4  -7  15  135.99   35.63
  -4   7  15  272.65   29.14
  -4  -7  15  183.21   39.11
  -4  -7 -16   12.64   13.04
   4   7 -16   42.35   19.60
   4  -7  16    5.50   18.41
  -4  -7  16   24.87   18.86
  -4   7  16   14.75   14.37
  -4   8   0   33.80   15.38
   4   8   0   74.41   22.55
  -4  -8   0   -0.55    1.85
   4  -8   0   11.12   11.61
  -4  -8   0    3.75    3.26
  -4  -8   0   18.19   12.44
  -4   8  -1  298.15   25.30
  -4   8   1  312.93   22.92
   4   8  -1  256.01   22.12
   4   8   1  332.17   28.34
  -4  -8   1  212.19   31.81
   4  -8  -1  343.80   56.98
   4  -8   1  279.36   25.75
  -4  -8   1  287.33   16.91
  -4  -8  -1  268.98   25.52
  -4  -8  -2   53.75   16.75
  -4   8  -2   40.99   15.43
  -4   8   2   44.68   12.45
   4   8  -2   34.81   17.63
  -4  -8   2   15.80    5.01
   4  -8  -2   54.47   16.29
   4  -8   2   27.51   12.74
  -4  -8   2   36.41    8.44
  -4  -8   2   61.43   15.45
  -4  -8  -2   78.69   18.69
  -4  -8  -3  314.28   58.13
  -4   8  -3  248.37   23.89
  -4   8   3  280.62   20.88
   4   8  -3  273.78   26.71
  -4  -8   3  150.50   31.90
   4  -8  -3  233.15   38.78
   4  -8   3  239.92   22.97
  -4  -8   3  231.76   18.21
  -4  -8  -3  225.97   21.82
  -4  -8   3  315.52   30.38
  -4  -8  -4  120.96   34.00
  -4   8  -4   97.14   25.00
  -4   8   4   88.14   19.28
   4   8  -4  117.37   28.58
   4  -8  -4   86.37   28.53
   4  -8   4   70.23   18.15
  -4  -8   4   76.87   16.68
  -4  -8   4   56.48   22.63
  -4  -8  -4   44.98   19.18
  -4  -8  -5  145.63   24.70
  -4   8  -5   87.61   23.34
  -4   8   5   47.60   11.94
   4   8  -5  127.87   27.73
   4  -8  -5   79.17   21.55
   4  -8   5  117.87   29.58
  -4  -8   5  117.30   24.92
  -4  -8  -5   84.92   24.12
  -4  -8   5  122.51   31.72
  -4  -8  -6   29.99   11.17
  -4   8  -6   14.15   15.67
   4   8  -6    9.85   11.45
  -4   8   6   41.95   11.34
   4  -8  -6   21.57   13.18
   4  -8   6   51.16   17.90
  -4  -8   6   28.92   13.35
  -4  -8  -6   26.56   15.09
  -4  -8   6   22.93   16.31
  -4  -8  -7   18.15   10.75
  -4   8  -7   26.29   15.85
   4   8  -7   57.02   16.53
  -4   8   7   16.27    8.62
   4  -8  -7   31.42   14.56
   4  -8   7   32.45   15.72
  -4  -8   7   17.22   10.77
  -4  -8  -7    2.96    9.42
  -4  -8   7    5.15   13.29
  -4  -8  -8   92.29   22.88
  -4   8  -8   52.07   19.33
   4   8  -8   50.19   15.56
  -4   8   8   50.03   11.53
   4  -8   8   84.29   23.99
  -4  -8   8   51.56   18.05
  -4  -8  -8   90.28   20.47
  -4  -8   8   39.07   17.83
  -4  -8  -9  219.24   48.21
  -4   8  -9  207.86   24.78
   4   8  -9  214.52   24.84
  -4   8   9  220.35   19.93
   4  -8   9  250.28   32.03
  -4  -8   9  215.05   28.03
  -4   8   9  225.07   29.59
  -4  -8  -9  233.61   25.49
  -4  -8   9  212.59   29.56
  -4  -8 -10   31.32   11.07
  -4   8 -10   61.52   27.04
   4   8 -10   65.85   19.61
  -4   8  10   42.07   12.66
   4  -8  10   53.52   22.90
  -4  -8  10    6.13   12.85
  -4   8  10   37.08   15.01
  -4  -8 -10   69.41   14.50
  -4  -8  10   27.78   14.88
  -4  -8 -11   46.70   16.67
  -4   8 -11  172.53   36.70
   4   8 -11  107.55   25.69
   4  -8  11  109.79   25.04
  -4  -8  11  108.16   26.75
  -4   8  11  133.66   27.02
  -4  -8 -11  120.20   20.91
  -4  -8  11  114.64   23.93
  -4  -8 -12   25.21   15.71
  -4   8 -12   46.81   17.81
   4   8 -12   41.12   15.73
   4  -8  12   11.74   18.15
  -4  -8  12   26.83   14.44
  -4   8  12    8.31   12.87
  -4  -8  12   16.03   12.59
  -4  -8 -13   32.85   11.06
  -4   8 -13  118.23   30.44
   4   8 -13   55.44   18.80
  -4   8  13   85.36   25.27
  -4  -8  13   76.29   22.52
  -4  -8 -14   21.04   10.00
  -4   8 -14   15.32   15.35
   4   8 -14   24.39   13.80
   4  -8  14   44.64   17.36
  -4  -8  14   -1.52   16.51
  -4   8  14   20.83   14.75
  -4  -8  14   34.76   15.87
  -4  -8 -15   37.42   17.57
  -4   8 -15   83.97   32.97
   4   8 -15   19.45   12.60
   4  -8  15   32.15   27.47
  -4  -8  15   41.36   22.66
  -4   8  15   44.09   22.38
  -4  -8  15    7.90   10.33
  -4  -8 -16   96.72   42.46
  -4   8 -16   45.04   21.78
   4   8 -16   21.79   13.12
   4  -8  16   53.52   29.86
  -4  -8  16   46.96   20.77
  -4   8  16   46.94   17.32
  -4   9   0  600.79   44.06
   4   9   0  618.44   47.73
   4  -9   0  479.81   37.56
  -4  -9   0  492.63   29.16
  -4  -9   0  624.29   49.79
  -4   9  -1   40.30   13.91
  -4   9   1   10.91   10.44
   4   9  -1   37.12   17.12
   4   9   1   51.16   17.41
  -4  -9   1   19.88    5.11
   4  -9  -1   27.47   11.65
   4  -9   1   58.13   16.72
  -4  -9   1   35.48    8.44
  -4  -9  -1   40.66   17.13
  -4   9  -2  109.92   25.59
  -4   9   2  106.27   23.12
   4   9  -2   42.03   17.65
   4   9   2   31.24   15.50
  -4  -9   2   48.86   13.54
   4  -9  -2  109.19   27.68
  -4  -9   2   60.64   13.82
  -4  -9  -2   33.58   14.24
  -4  -9   2   94.08   23.17
  -4  -9  -3   83.97   24.03
  -4   9  -3  150.94   32.49
  -4   9   3  115.53   23.03
   4   9  -3   91.29   23.55
  -4  -9   3   38.44   10.78
   4  -9  -3   84.45   23.48
   4  -9   3   66.87   21.85
  -4  -9   3   79.94   15.86
  -4  -9  -3   58.26   19.30
  -4  -9   3   66.38   23.16
  -4  -9  -4  274.06   59.22
  -4   9  -4  335.15   34.88
  -4   9   4  291.20   24.92
   4   9  -4  224.52   25.29
   4  -9  -4  249.13   39.18
   4  -9   4  246.31   26.38
  -4  -9   4  258.16   21.30
  -4  -9  -4  234.95   23.51
  -4  -9   4  244.91   30.79
  -4  -9  -5   56.86   26.35
  -4   9  -5  102.76   27.76
  -4   9   5   91.89   18.92
   4   9  -5  138.82   28.33
   4  -9  -5   87.66   23.76
   4  -9   5  127.65   30.26
  -4  -9   5   87.15   20.23
  -4  -9  -5  134.53   28.96
  -4  -9   5   91.24   27.20
  -4  -9  -6  255.63   59.24
  -4   9  -6  231.85   25.23
   4   9  -6  246.95   27.86
  -4   9   6  248.32   22.44
   4  -9  -6  265.61   62.52
   4  -9   6  214.92   28.76
  -4  -9   6  282.39   28.42
  -4  -9  -6  196.03   25.21
  -4  -9   6  289.96   31.36
  -4  -9  -7  124.67   25.88
  -4   9  -7   71.23   22.28
   4   9  -7   43.41   16.32
  -4   9   7  118.33   14.81
   4  -9  -7  139.58   21.68
   4  -9   7  154.35   26.60
  -4  -9   7  119.79   20.96
  -4  -9  -7  138.56   19.08
  -4  -9   7   64.24   17.56
  -4   9  -8   88.00   23.39
   4   9  -8   80.76   22.17
  -4   9   8   49.01   13.70
   4  -9  -8   84.57   19.14
   4  -9   8  145.81   29.89
  -4  -9   8  101.31   19.36
  -4  -9  -8   97.95   18.17
  -4  -9   8   90.69   25.53
  -4  -9  -9   47.80   14.72
  -4   9  -9    9.45   15.48
   4   9  -9   22.46   13.12
  -4   9   9   15.69   10.07
   4  -9   9    8.58   18.10
  -4  -9   9   38.41   16.87
  -4   9   9    4.49   10.76
  -4  -9  -9   19.57    9.07
  -4  -9   9   36.36   23.56
  -4  -9 -10  196.63   51.73
  -4   9 -10  231.05   44.15
   4   9 -10  156.59   32.24
  -4   9  10  243.10   37.09
   4  -9  10  195.40   39.58
  -4  -9  10  190.73   35.12
  -4   9  10  178.41   31.61
  -4  -9 -10  195.19   32.36
  -4  -9  10  205.58   35.93
  -4  -9 -11    9.40    8.62
  -4   9 -11   47.74   24.13
   4   9 -11   61.97   20.07
   4  -9  11   31.73   24.59
  -4  -9  11   42.23   14.99
  -4   9  11   50.05   17.01
  -4  -9  11   26.21   13.28
  -4   9 -12   98.10   28.25
   4   9 -12   56.87   16.36
   4  -9  12   63.07   26.30
  -4  -9  12   22.17   14.98
  -4   9  12   57.64   20.43
  -4  -9  12   32.42   15.53
  -4   9 -13   42.53   19.78
   4   9 -13   40.87   14.56
   4  -9  13   39.48   19.58
  -4  -9  13    9.04   13.68
  -4   9  13   60.58   21.10
  -4  -9  13   79.26   26.56
  -4  -9 -14   48.80   16.70
  -4   9 -14   39.02   19.99
   4   9 -14   10.27   13.26
   4  -9  14  120.23   35.83
  -4  -9  14   11.16   14.05
  -4   9  14   83.53   28.63
  -4  -9  14   36.63   16.38
  -4  -9 -15    9.66   12.71
   4   9 -15   18.89   13.45
   4  -9  15   88.96   32.77
  -4  -9  15   27.90   18.71
  -4   9  15   14.62   16.11
  -4  -9  15   24.57   10.58
  -4  10   0   36.87   21.23
   4  10   0   54.25   17.55
   4 -10   0   29.10   15.98
  -4 -10   0    9.94   14.31
  -4  10  -1  143.71   22.75
  -4  10   1   52.58   17.28
   4  10  -1  118.10   21.34
   4  10   1  104.04   23.14
   4 -10  -1   99.79   23.15
   4 -10   1   84.37   20.95
  -4 -10   1   57.89   10.04
  -4 -10   1   84.54   20.19
  -4 -10  -1   96.57   24.47
  -4  10  -2  255.94   35.32
  -4  10   2  122.88   18.57
   4  10  -2  142.66   22.41
   4 -10  -2  240.51   58.79
   4 -10   2  171.84   24.61
  -4 -10   2  152.38   13.85
   4 -10   2  132.20   26.83
  -4 -10  -2  146.30   23.01
  -4 -10   2  159.50   27.07
  -4  10  -3  212.25   30.89
  -4  10   3  210.07   23.87
   4  10  -3  168.18   26.75
   4  10   3  188.60   25.00
   4 -10  -3  226.36   52.15
   4 -10   3  160.02   24.10
  -4 -10   3  226.28   20.13
   4 -10   3  248.55   31.46
  -4 -10  -3  210.22   26.21
  -4 -10   3  202.96   28.96
  -4 -10  -4   69.60   25.56
  -4  10  -4   44.15   17.33
  -4  10   4   85.42   17.16
   4  10  -4   58.19   16.63
   4 -10  -4   54.03   13.37
   4 -10   4   91.75   23.51
  -4 -10   4   43.58   12.32
   4 -10   4   42.53   17.03
  -4 -10  -4   88.76   23.36
  -4 -10   4   93.79   28.82
  -4 -10  -5  109.27   24.12
  -4  10  -5   77.58   20.83
   4  10  -5   74.25   23.99
   4 -10  -5   69.16   26.40
   4 -10   5   95.67   16.07
  -4 -10   5   84.71   21.54
   4 -10   5  105.74   22.43
  -4 -10  -5   56.48   19.90
  -4 -10   5   64.74   27.44
  -4 -10  -6  114.18   25.16
   4  10  -6  120.12   21.27
  -4  10   6  118.69   17.11
   4 -10  -6   92.65   23.50
   4 -10   6  118.68   22.50
  -4 -10   6  160.35   20.90
   4 -10   6  149.62   25.30
  -4 -10  -6  158.36   23.95
  -4 -10   6  213.76   32.87
  -4 -10  -7   32.74   14.16
  -4  10  -7   45.14   18.52
   4  10  -7   62.99   21.80
  -4  10   7   18.03    8.93
   4 -10  -7   13.03   10.37
   4 -10   7   41.16   17.09
  -4 -10   7   60.58   19.23
   4 -10   7   24.73   16.70
  -4 -10  -7   29.61   13.25
  -4 -10  -8   55.09   15.05
  -4  10  -8  100.95   29.70
  -4  10   8   99.88   21.08
   4 -10  -8   46.20   12.52
   4 -10   8   60.01   19.44
  -4 -10   8   67.27   17.93
  -4 -10  -8   95.64   24.26
  -4 -10   8   66.30   22.29
  -4  10  -9   61.13   19.00
   4  10  -9  101.66   24.01
  -4  10   9  134.48   23.34
   4 -10   9   92.93   24.67
  -4 -10   9  127.77   26.64
  -4  10   9  247.04   42.03
  -4 -10  -9  100.78   19.72
  -4 -10   9  132.39   29.19
  -4 -10 -10  132.62   51.44
  -4  10 -10  147.73   30.73
   4  10 -10  140.68   32.08
   4 -10  10   63.14   19.82
  -4 -10  10  164.35   29.81
  -4  10  10  122.98   25.67
  -4 -10 -10   89.35   21.64
  -4 -10  10  134.04   27.70
  -4 -10 -11   21.51   15.82
  -4  10 -11   14.00   15.71
   4  10 -11   30.86   20.11
   4 -10  11    4.63   14.35
  -4 -10  11   54.62   16.70
  -4  10  11   12.53   12.18
  -4 -10  11   55.13   24.14
  -4 -10 -12   34.51   11.98
  -4  10 -12   12.17   17.78
   4  10 -12   18.90   15.47
   4 -10  12   30.05   16.95
  -4 -10  12   19.10   15.38
  -4  10  12   18.25   12.01
  -4 -10  12   51.58   23.26
  -4 -10 -13   55.64   19.69
  -4  10 -13   12.60   18.87
   4  10 -13   38.67   15.23
   4 -10  13   42.37   20.10
  -4 -10  13   45.75   15.81
  -4  10  13   35.20   13.98
  -4 -10 -14   68.58   28.31
  -4  10 -14   81.80   27.33
   4  10 -14   59.31   23.24
   4 -10  14   22.28   17.65
  -4 -10  14   52.45   19.94
  -4  10  14   49.13   21.62
  -4 -10  14   33.55   10.32
  -4  11   0   31.29   19.07
   4  11   0   31.64   15.89
   4 -11   0   47.67   24.69
  -4 -11   0   66.19   24.71
  -4  11  -1   44.54   16.83
  -4  11   1   23.00   12.29
   4  11  -1   24.76   16.45
   4  11   1   27.65   15.02
   4 -11  -1   36.65   16.85
   4 -11   1   27.67   12.96
   4 -11   1   57.05   19.93
  -4 -11  -1   43.94   16.67
  -4 -11   1   52.82   23.29
  -4  11  -2   76.13   19.85
  -4  11   2   19.89   11.55
   4  11  -2  -14.75   15.93
   4  11   2   21.62   14.60
   4 -11  -2   45.56   16.75
   4 -11   2   27.65   13.06
  -4 -11   2   15.02    5.45
   4 -11   2   12.35   17.28
  -4 -11  -2   40.68   16.18
  -4 -11   2   20.40   19.89
  -4  11  -3   48.94   17.88
  -4  11   3   45.44   15.50
   4  11  -3   81.82   24.33
   4  11   3   45.22   19.23
   4 -11  -3   86.76   24.67
   4 -11   3   67.24   21.20
  -4 -11   3   48.92   13.15
   4 -11   3   34.77   17.65
  -4 -11   3   97.27   26.51
  -4 -11  -3   60.57   21.69
  -4  11  -4  125.66   26.01
  -4  11   4  123.73   20.50
   4  11  -4  156.39   28.63
   4  11   4  109.80   22.94
   4 -11  -4  102.33   27.60
   4 -11   4  103.51   23.23
  -4 -11   4  100.91   15.44
   4 -11   4   76.15   20.11
  -4 -11  -4   67.75   17.74
  -4 -11   4  124.79   27.43
  -4 -11  -5   17.68   14.86
  -4  11  -5   -7.71   14.34
  -4  11   5   21.29   12.55
   4  11  -5   33.25   19.27
   4 -11  -5   -1.80   10.07
   4 -11   5   17.78   13.81
  -4 -11   5   30.08   10.46
   4 -11   5   25.56   17.84
  -4 -11  -5   25.23   13.27
  -4 -11   5   54.44   26.04
  -4 -11  -6   38.73   15.71
  -4  11  -6   41.16   17.90
   4  11  -6   37.58   15.19
  -4  11   6   47.83   14.41
   4 -11  -6   15.22   12.76
   4 -11   6    5.08   13.82
  -4 -11   6   24.96   12.25
   4 -11   6   28.74   18.03
  -4 -11  -6   52.64   18.81
  -4 -11   6   12.23   15.94
  -4  11  -7   22.44   14.88
   4  11  -7   55.24   22.60
  -4  11   7   20.84    9.60
   4 -11  -7   24.82   10.97
   4 -11   7  102.08   27.69
  -4 -11   7   41.30   13.86
   4 -11   7   42.37   22.77
  -4 -11  -7   22.03   16.91
  -4 -11   7   39.77   18.70
  -4 -11  -8   88.69   19.65
  -4  11  -8   54.69   18.88
   4  11  -8   35.79   16.15
  -4  11   8   56.48   13.26
   4 -11   8   48.46   17.63
  -4 -11   8   51.31   16.29
   4 -11   8   61.02   17.50
  -4 -11  -8   27.33   18.59
  -4 -11   8   13.03   15.97
  -4 -11  -9   27.57   17.09
  -4  11  -9   11.88   16.97
   4  11  -9   37.68   18.56
  -4  11   9    7.19    6.19
   4 -11   9    1.13   13.80
  -4 -11   9   39.68   19.50
  -4  11   9   19.18   13.38
  -4 -11  -9   24.58    8.16
  -4 -11   9    2.40   14.16
  -4 -11 -10   29.35   14.57
  -4  11 -10   45.15   21.83
   4  11 -10   40.18   20.88
   4 -11  10   29.65   18.88
  -4 -11  10   33.90   13.19
  -4  11  10   33.55   12.24
  -4 -11 -10   24.12    7.05
  -4 -11  10   41.77   21.91
  -4 -11 -11   -7.29   14.57
  -4  11 -11   -1.03   16.46
   4  11 -11   19.02   14.49
   4 -11  11   16.83   16.01
  -4 -11  11   10.32   13.24
  -4  11  11   38.31   15.99
  -4 -11  11   52.52   24.41
  -4 -11 -12   62.66   25.30
  -4  11 -12   57.86   28.65
   4  11 -12   36.66   15.49
   4 -11  12   34.74   18.02
  -4 -11  12   35.58   15.10
  -4  11  12   51.15   20.66
  -4 -11  12   37.65   21.00
  -4 -11 -13   10.68   17.93
  -4  11 -13   11.83   16.92
   4  11 -13   14.43   13.82
   4 -11  13   31.14   19.82
  -4 -11  13   13.82   13.31
  -4  11  13   32.58   18.14
  -4 -11  13    9.26   12.22
  -4  12   0   34.92   13.69
   4  12   0   52.97   18.62
   4 -12   0   32.38   14.68
   4 -12   0    3.07   14.37
  -4 -12   0   32.63   18.70
  -4  12  -1   54.43   22.25
  -4  12   1   45.88   14.78
   4  12  -1   68.80   26.34
   4 -12  -1   50.68   17.04
   4 -12   1   38.72   17.75
  -4 -12   1   37.04   16.90
  -4 -12  -1   52.61   17.38
  -4  12  -2   36.51   15.14
  -4  12   2   81.32   17.24
   4  12  -2  129.74   31.31
   4  12   2  131.31   32.06
   4 -12  -2   54.35   16.11
   4 -12   2   35.45   14.71
   4 -12   2   27.96   16.50
  -4 -12  -2   32.64   16.03
  -4  12  -3   62.70   22.23
  -4  12   3   87.50   21.10
   4  12  -3   69.25   26.67
   4  12   3   43.28   18.53
   4 -12  -3  112.62   32.43
   4 -12   3   43.09   15.99
   4 -12   3   92.73   27.91
  -4 -12  -3   95.09   25.28
  -4 -12   3  132.98   28.35
  -4  12  -4   95.37   26.16
  -4  12   4   89.01   21.63
   4  12  -4  159.57   32.53
   4  12   4  101.29   26.30
   4 -12  -4   68.35   23.70
   4 -12   4  141.48   29.32
   4 -12   4  168.62   36.30
  -4 -12  -4  141.44   29.19
  -4 -12   4   90.62   21.84
  -4  12  -5   54.90   23.91
  -4  12   5   19.91    9.33
   4  12  -5   12.28   13.72
   4  12   5   30.27   14.92
   4 -12  -5   33.46    9.91
   4 -12   5   20.69   13.58
  -4 -12   5   16.29   10.21
   4 -12   5    0.85   14.51
  -4 -12  -5    8.48   12.38
  -4 -12   5   30.58   23.10
  -4  12  -6    8.86   13.94
   4  12  -6   97.82   26.68
  -4  12   6   21.23   13.52
   4  12   6   37.44   16.01
   4 -12  -6   16.14    8.29
   4 -12   6   21.35   18.65
  -4 -12   6   20.17   11.53
   4 -12   6   49.26   23.22
  -4 -12  -6   17.47   11.86
  -4 -12   6   40.57   15.58
  -4 -12  -7   22.68   15.78
  -4  12  -7   62.26   18.39
   4  12  -7   55.06   19.01
  -4  12   7   47.12   11.68
   4 -12  -7   41.55   12.43
   4 -12   7   78.93   22.60
  -4 -12   7   37.15   14.12
   4 -12   7   58.85   24.43
  -4 -12   7   39.64   18.39
  -4 -12  -8   42.09   24.26
  -4  12  -8   19.41   16.14
   4  12  -8   54.68   20.14
  -4  12   8    9.23    7.93
   4 -12   8   64.83   20.57
  -4 -12   8   11.53    9.76
   4 -12   8   24.36   16.20
  -4 -12  -8   18.51    6.78
  -4 -12   8   59.37   25.37
  -4 -12  -9   53.21   23.98
  -4  12  -9   70.65   27.04
   4  12  -9   55.99   23.84
   4 -12   9   40.29   14.91
  -4 -12   9    8.59   10.17
  -4  12   9   17.50   11.26
  -4 -12  -9   25.65    9.69
  -4 -12   9   37.16   15.71
  -4 -12 -10   47.95   23.45
  -4  12 -10   59.39   25.95
   4  12 -10   54.25   19.75
   4 -12  10   31.98   16.31
  -4 -12  10   45.51   18.09
  -4  12  10   44.62   17.21
  -4 -12  10   82.57   24.86
  -4 -12 -11   20.30   11.33
  -4  12 -11   35.77   19.22
   4  12 -11   30.61   14.90
   4 -12  11   36.68   24.77
  -4 -12  11    9.37   12.37
  -4  12  11   30.32   15.93
  -4 -12  11   54.41   26.28
  -4 -12 -12   16.63    9.91
  -4  12 -12   64.06   21.68
   4  12 -12   35.59   20.51
   4 -12  12   42.01   20.01
  -4 -12  12   30.13   18.06
  -4 -12  12   20.76   15.67
  -4  13   0   49.46   18.26
   4  13   0   13.84   19.79
   4 -13   0   19.39   14.82
   4 -13   0   40.34   23.84
  -4 -13   0   40.48   17.73
  -4  13  -1   55.91   16.12
  -4  13   1   40.50   17.21
   4  13  -1   53.87   21.47
   4  13   1   45.26   18.73
   4 -13  -1   33.20   12.68
   4 -13   1   17.50   15.47
  -4 -13  -1   36.74   22.54
  -4 -13   1   45.69   19.65
  -4  13  -2  305.68   34.59
  -4  13   2  251.13   39.60
   4  13  -2  213.52   40.01
   4  13   2  274.55   44.49
   4 -13  -2  218.66   52.07
   4 -13   2  280.00   42.45
   4 -13   2  305.99   29.43
  -4 -13  -2  226.56   39.08
  -4 -13   2  215.63   39.09
  -4  13  -3   12.88   12.81
  -4  13   3   10.10   12.33
   4  13  -3   12.60   15.35
   4  13   3   29.83   16.65
   4 -13   3   11.45   13.41
   4 -13   3   60.60   23.52
  -4 -13  -3   19.36   15.86
  -4 -13   3   40.41   21.48
  -4  13  -4   14.51   15.60
  -4  13   4   13.99   10.56
   4  13  -4    1.07   14.78
   4  13   4   15.01   16.32
   4 -13  -4   15.28    7.09
   4 -13   4   12.98   18.59
   4 -13   4   30.89   22.97
  -4 -13  -4   32.18   15.72
  -4 -13   4  -15.04   16.70
  -4  13  -5   89.55   21.93
  -4  13   5  107.18   23.62
   4  13  -5  144.60   30.78
   4  13   5   50.73   19.94
   4 -13  -5   86.92   22.57
   4 -13   5  113.44   25.66
   4 -13   5   75.72   26.32
  -4 -13  -5   86.99   27.82
  -4 -13   5  167.27   36.16
  -4  13  -6  127.35   36.41
   4  13  -6   51.39   22.40
  -4  13   6   33.94   11.20
   4  13   6   69.82   23.89
   4 -13  -6   28.20    9.23
   4 -13   6   85.17   25.07
   4 -13   6   29.62   18.45
  -4 -13  -6   50.24   18.57
  -4 -13   6   83.70   28.92
  -4  13  -7   15.65   16.10
   4  13  -7   30.52   16.92
  -4  13   7   15.69    9.76
   4  13   7   51.59   25.93
   4 -13  -7   -4.06    9.19
   4 -13   7   18.18   12.93
   4 -13   7   65.02   21.83
  -4 -13  -7   29.95   17.02
  -4 -13   7   46.20   26.41
  -4  13  -8   44.84   18.62
   4  13  -8   68.01   26.74
   4 -13   8   42.34   15.22
  -4  13   8   28.19   12.14
   4 -13   8   16.06   15.85
  -4 -13  -8   55.85   17.09
  -4 -13   8   60.16   24.98
  -4 -13  -9   48.32   20.48
  -4  13  -9   71.37   29.98
   4  13  -9   37.59   17.61
   4 -13   9   15.17   14.39
  -4 -13  -9   31.03   10.42
  -4 -13   9   17.82   12.29
  -4 -13 -10   35.76   16.02
  -4  13 -10   36.20   23.26
   4  13 -10   40.60   17.39
   4 -13  10   30.03   17.42
  -4 -13  10   16.39   14.02
  -4 -13 -11  114.17   29.92
  -4  13 -11   51.92   27.29
   4  13 -11   60.57   24.25
   4 -13  11   18.84   15.32
  -4 -13  11   20.21   12.66
  -4 -13  11   28.49   13.28
  -4  14   0   20.40   13.17
   4 -14   0   45.80   17.21
   4 -14   0    1.13   15.37
  -4 -14   0   29.07   19.13
  -4  14  -1   53.94   21.62
  -4  14   1   41.46   13.47
   4  14  -1   27.76   17.66
   4  14   1   60.74   23.33
   4 -14  -1   61.05   20.70
   4 -14   1   63.06   16.31
   4 -14   1   80.26   28.65
  -4 -14  -1  110.79   38.14
  -4 -14   1   31.53   17.78
  -4  14  -2   79.47   25.67
  -4  14   2   36.02   13.56
   4  14  -2    3.30   16.33
   4  14   2   41.80   18.27
   4 -14  -2   36.43   10.96
   4 -14   2    5.86   12.52
   4 -14   2   32.34   17.42
  -4 -14   2   15.57   15.72
  -4 -14  -2  -10.46   15.18
  -4  14  -3   95.45   27.92
  -4  14   3   73.90   22.09
   4  14  -3   54.58   21.14
   4  14   3   28.77   16.87
   4 -14  -3   43.81   17.64
   4 -14   3   88.68   25.54
  -4 -14   3   94.36   33.91
  -4 -14  -3   63.63   19.87
  -4  14  -4   -5.23   14.06
  -4  14   4    2.19   10.99
   4  14  -4    3.23   16.64
   4  14   4   25.04   19.07
   4 -14  -4    5.30   11.11
   4 -14   4   17.06   14.46
   4 -14   4    7.66   17.11
  -4 -14  -4   37.57   15.68
  -4 -14   4    6.23    8.72
  -4  14  -5   76.38   23.96
  -4  14   5   72.49   22.29
   4  14  -5   48.39   19.09
   4  14   5   62.73   29.10
   4 -14  -5   19.40   11.72
   4 -14   5   32.60   13.48
   4 -14   5   76.57   26.08
  -4 -14  -5   47.72   26.01
  -4 -14   5  110.43   38.99
  -4  14  -6   44.84   22.04
   4  14  -6   51.74   27.13
  -4  14   6   13.40   11.42
   4  14   6    1.42   15.62
   4 -14   6   14.58   13.02
   4 -14   6   52.68   22.53
  -4 -14  -6   10.16    6.13
  -4 -14   6   27.10   15.81
  -4  14  -7   81.48   24.46
   4  14  -7   63.37   29.23
   4  14   7   59.45   21.87
   4 -14   7   42.83   17.17
   4 -14   7   82.15   25.63
  -4 -14  -7   60.10   20.69
  -4 -14   7   71.84   27.17
  -4  14  -8   20.13   17.22
   4  14  -8   14.61   17.52
   4  14   8   35.02   17.69
   4 -14   8   43.00   22.13
   4 -14   8   37.73   17.64
  -4 -14  -8   29.76   15.57
  -4 -14   8   20.96   11.36
  -4  14  -9   -8.69   15.06
   4  14  -9   10.81   16.85
   4  14   9   18.38   18.37
   4 -14   9   -0.34   13.89
  -4 -14   9   62.84   23.30
  -4  15   0    5.41   12.87
   4 -15   0   15.69   13.78
  -4 -15   0   25.92   13.92
  -4  15  -1   50.52   24.16
  -4  15   1   70.12   22.23
   4  15  -1  183.91   51.32
   4  15   1  111.55   40.68
   4 -15  -1   63.93   18.99
   4 -15   1   43.49   15.65
   4 -15   1  111.22   33.72
  -4 -15   1   97.57   33.31
  -4 -15  -1  139.72   40.94
  -4  15  -2   88.82   30.32
  -4  15   2   44.09   16.26
   4  15   2   83.74   29.58
   4 -15  -2   47.97   19.45
   4 -15   2   87.55   32.33
   4 -15   2   80.22   27.95
  -4 -15   2   95.98   34.62
  -4 -15  -2   75.80   28.49
  -4  15  -3   51.66   20.17
  -4  15   3   87.12   27.39
   4  15  -3   41.04   17.35
   4  15   3   51.37   22.20
   4 -15   3   10.23   12.60
   4 -15   3   31.52   19.64
  -4 -15  -3   37.96   17.29
  -4 -15   3   59.53   28.26
  -4  15  -4   64.70   26.50
  -4  15   4   41.17   17.31
   4  15  -4   56.34   28.94
   4  15   4   68.37   30.08
   4 -15   4   20.30   17.12
   4 -15   4   63.73   29.90
  -4 -15  -4   42.43   21.13
  -4 -15   4   24.20   13.74
  -4  15  -5   19.78   17.45
  -4  15   5   13.26   12.00
   4  15  -5    2.59   18.28
   4  15   5   20.81   16.55
   4 -15   5   19.75   13.12
   4 -15   5   55.79   21.08
  -4 -15  -5   34.53   13.61
  -4 -15   5   18.30   11.17
  -4  15  -6   41.84   23.36
   4  15  -6   35.47   18.66
  -4  15   6   49.82   20.29
   4  15   6   69.53   27.42
   4 -15   6   21.63   13.13
   4 -15   6   35.20   19.95
  -4 -15  -6   19.80   13.78
  -4 -15   6   25.84   15.84
  -4  16   0   16.88   14.58
   4  16   0   19.82   20.07
  -4 -16   0   26.87    9.79
  -4  16  -1  105.46   28.32
  -4  16   1    7.13   13.71
   4  16  -1   66.71   30.37
   4  16   1   66.85   32.71
  -4 -16   1   78.98   28.57
  -4 -16  -1    9.32   11.00
  -5   0   0    2.92    7.15
   5   0   0   18.51    6.42
   5   0   0   24.44    9.85
  -5   0   0   12.43   12.00
  -5   0   1 1271.27   84.13
  -5   0  -1 1097.86   49.34
   5   0  -1 1109.67   47.84
   5   0   1 1093.45   49.06
   5   0   1 1321.60   78.05
  -5   0   1 1244.65   59.02
  -5   0   2   78.28   14.05
  -5   0  -2   65.07   10.78
   5   0  -2   69.58    7.06
   5   0   2   49.68    8.65
   5   0  -2   96.01   15.99
   5   0   2  105.53   17.02
  -5   0   2   62.89   15.62
  -5   0  -2   67.63   11.50
  -5   0  -3  426.36   28.81
   5   0  -3  425.77   19.55
   5   0  -3  429.74   19.62
   5   0  -3  472.46   62.04
   5   0   3  415.41   26.73
  -5   0   3  357.24   25.34
  -5   0  -3  434.14   28.02
  -5   0  -4  717.93   39.30
   5   0  -4  584.74   24.73
   5   0  -4  731.59   93.27
   5   0   4  546.29   32.95
  -5   0   4  671.43   39.23
  -5   0  -4  658.83   37.03
  -5   0  -5  231.55   23.67
   5   0  -5  198.52   11.28
   5   0  -5  176.24   22.52
   5   0   5  261.18   25.96
  -5   0   5  201.85   24.60
  -5   0  -5  191.93   18.72
   5   0  -6   27.39    2.27
  -5   0  -6   26.75   12.61
   5   0  -6   33.01    2.70
   5   0   6   34.94   16.25
  -5   0   6   36.81   14.26
  -5   0   6   64.05   17.03
  -5   0  -6   33.73   13.72
  -5   0  -7  120.13   19.30
   5   0  -7   79.57   12.54
   5   0   7   96.50   18.93
  -5   0   7   74.07   17.47
  -5   0  -7   78.12   17.74
  -5   0  -8  124.62   25.82
   5   0  -8  132.62   17.03
   5   0   8  129.37   23.21
  -5   0   8  102.72   22.12
  -5   0   8  151.38   25.12
  -5   0  -8  142.97   22.81
  -5   0  -9   30.14   19.98
   5   0  -9   28.50    7.00
  -5   0   9    5.14    3.41
   5   0   9   15.67   12.35
  -5   0   9   10.70   11.38
  -5   0   9    8.10    9.32
  -5   0  -9   17.57    8.62
  -5   0 -10   90.60   25.07
   5   0 -10   39.64    8.75
  -5   0  10   46.14    9.73
   5   0  10  120.77   26.77
  -5   0  10   48.55   17.45
  -5   0  10   56.52   15.31
  -5   0 -10   88.93   19.25
   5   0 -11  589.03   40.65
  -5   0 -11  667.47  113.43
   5   0  11  516.52   46.42
  -5   0  11  429.79   44.46
  -5   0  11  460.57   36.51
  -5   0 -11  485.11   37.13
   5   0 -12   80.09   15.64
  -5   0 -12   77.77   23.30
   5   0  12   87.21   26.06
  -5   0  12   95.39   29.18
  -5   0  12   86.64   20.88
  -5   0 -12   99.70   14.71
  -5   0 -13   58.05   24.82
   5   0  13  120.46   26.60
  -5   0  13  115.74   31.00
  -5   0  13   45.86   11.04
  -5   0 -13   83.82   15.22
  -5   0 -14   16.43   14.15
   5   0  14   12.73   13.68
  -5   0  14   22.29   14.91
  -5   0  14   18.13    9.22
   5   0  15   45.24   18.31
  -5   0  15   27.91   17.95
  -5   0 -16   92.51   29.56
   5   0  16   48.12   18.61
  -5   0  16   75.85   32.18
  -5   0 -17  178.78   50.58
   5   0  17  152.16   42.41
  -5   0  17  238.55   62.91
  -5   0 -18   11.91   17.27
   5   0  18   -5.66   15.23
  -5   0  18   18.59   17.46
  -5  -1   0   57.28    8.30
  -5   1   0   90.34   11.34
   5   1   0   39.03    7.47
   5  -1   0   57.66    7.81
   5   1   0   91.15   15.93
   5  -1   0   62.38   13.80
  -5  -1   0   75.60   14.59
  -5   1   0   94.37   17.83
  -5  -1   1  694.98   54.24
  -5  -1  -1  792.48   63.61
  -5   1   1  707.85   32.36
  -5   1  -1  588.10   29.72
   5   1  -1  578.52   28.08
   5   1   1  607.86   30.56
   5  -1   1  639.10   31.10
   5  -1  -1  616.91   28.49
   5   1  -1  735.04   81.60
   5   1   1  696.03   71.58
   5  -1   1  673.48   37.75
  -5  -1   1  638.90   36.85
  -5  -1  -1  647.27   36.81
  -5   1   1  703.48   40.42
  -5   1  -1  654.87   37.12
  -5  -1   2   62.23    9.28
  -5   1   2   73.41   10.44
  -5  -1  -2   85.33   15.58
   5   1  -2   80.37    9.17
  -5   1  -2   65.44   10.54
   5  -1   2   84.69   12.96
   5  -1  -2   78.05    6.85
   5   1  -2  100.45   18.72
   5  -1  -2   73.63   15.72
   5   1   2   57.89   12.85
  -5  -1   2  103.04   15.68
  -5  -1  -2   66.81   13.39
  -5   1   2   63.83   15.56
  -5   1  -2   74.26   15.99
  -5  -1  -3    7.41    9.49
   5   1  -3   20.55    5.83
  -5   1  -3    8.62    8.54
   5   1  -3    7.83    5.21
   5   1  -3    4.29    9.74
   5  -1  -3   26.96   11.06
   5   1   3   -1.61    8.58
   5  -1   3    3.77   11.80
  -5  -1   3   16.04   13.17
  -5  -1  -3   40.46   11.78
  -5   1   3   10.21   13.00
  -5   1  -3   19.59   15.96
   5   1  -4   64.61    8.43
  -5  -1  -4   39.24   12.33
  -5   1  -4   67.36   15.79
   5   1  -4   41.88    5.35
   5   1  -4   57.53   14.96
   5  -1  -4   88.55   19.80
   5   1   4   79.67   13.46
   5  -1   4   44.26   11.33
  -5  -1   4   70.90   15.99
  -5  -1  -4   80.63   14.78
  -5   1   4   96.98   16.34
  -5   1  -4   61.21   15.61
   5   1  -5  198.53   28.59
  -5  -1  -5  215.90   26.14
  -5   1  -5  195.56   25.68
   5   1  -5  272.70   17.66
   5  -1  -5  242.79   24.55
   5   1   5  204.04   19.64
   5  -1   5  292.10   26.03
  -5  -1   5  324.60   29.23
  -5  -1   5  265.56   27.06
  -5  -1  -5  316.28   26.50
  -5   1   5  252.66   25.36
  -5   1  -5  200.11   20.80
   5   1  -6   64.31    9.53
  -5  -1  -6   43.12   17.16
  -5   1  -6  101.60   17.70
   5   1  -6   63.31    6.67
   5   1   6  134.94   21.11
   5  -1   6   79.67   14.28
  -5  -1   6   89.55   16.67
  -5  -1   6  126.97   19.01
  -5   1   6   72.51   14.19
  -5  -1  -6   79.28   12.63
  -5   1  -6   78.34   14.82
   5   1  -7    7.08    3.07
  -5  -1  -7   -6.99   11.34
  -5   1  -7   17.74   12.49
   5   1  -7    5.97    4.27
   5   1   7   27.09   11.26
   5  -1   7   24.23   13.03
  -5  -1   7   23.62   14.64
  -5   1   7   -0.65   10.95
  -5  -1   7   26.79   15.12
  -5   1   7   19.18   10.23
  -5  -1  -7   24.07   10.10
  -5   1  -7   25.84   14.48
   5   1  -8  147.61   19.39
  -5  -1  -8  200.08   23.20
  -5   1  -8  241.75   25.11
   5   1  -8  172.64   12.58
   5  -1   8  199.47   20.91
   5   1   8  157.43   25.25
  -5  -1   8  144.43   26.21
  -5   1   8  236.35   25.86
  -5  -1   8  210.18   20.32
  -5   1   8  220.49   22.66
  -5  -1  -8  197.69   18.82
  -5   1  -8  169.93   16.60
  -5  -1  -9  103.27   26.53
  -5   1  -9  146.18   22.87
   5   1  -9   97.28   18.82
  -5  -1   9  109.38   20.53
   5  -1   9  118.61   25.50
   5   1   9  129.40   27.46
  -5  -1   9  145.17   22.46
  -5   1   9  133.45   29.76
  -5  -1   9  109.39   23.62
  -5   1   9  155.50   21.31
  -5  -1  -9  109.02   23.20
  -5   1  -9  150.46   17.63
   5  -1 -10   97.31   23.41
  -5  -1 -10  176.80   30.63
  -5   1 -10  247.87   32.55
   5   1 -10  170.90   14.57
  -5   1  10  119.58   20.22
  -5  -1  10  167.72   14.20
   5  -1  10  166.79   23.60
   5   1  10  139.99   25.14
  -5   1  10  135.93   32.10
  -5  -1  10  156.43   18.98
  -5   1  10  172.90   19.97
  -5  -1 -10  131.76   25.62
  -5   1 -10  167.20   16.96
   5  -1 -11   90.45   19.86
  -5  -1 -11   95.59   22.21
  -5   1 -11   97.20   26.06
   5   1 -11  110.19   11.68
   5  -1  11  182.62   28.01
   5   1  11  149.44   21.97
  -5  -1  11  146.31   24.27
  -5   1  11  150.50   28.50
  -5  -1  11  139.74   17.32
  -5   1  11  122.81   16.17
  -5  -1 -11  150.88   17.36
  -5   1 -11  157.21   17.93
  -5  -1 -12  164.66   23.97
  -5   1 -12  249.76   34.07
   5   1 -12  211.70   18.60
   5  -1  12  259.59   30.10
   5   1  12  247.67   30.17
  -5  -1  12  207.94   26.14
  -5   1  12  235.11   31.68
  -5  -1  12  246.82   25.30
  -5   1  12  265.56   26.25
  -5  -1 -12  194.04   18.76
  -5   1 -12  184.67   18.03
  -5  -1 -13   74.95   25.56
  -5   1 -13   90.22   27.04
   5   1 -13   16.60    5.51
   5   1  13   32.58   13.06
   5  -1  13   83.67   25.63
  -5  -1  13   59.76   26.16
  -5   1  13   17.25   17.64
  -5  -1  13   60.01   15.40
  -5   1  13   48.84   13.63
  -5   1 -13   52.60   11.84
  -5   1 -14  117.75   28.67
   5   1  14   56.50   16.34
   5  -1  14   62.41   18.42
  -5  -1  14   61.46   19.92
  -5   1  14  152.51   35.59
  -5  -1  14   73.33   17.51
  -5  -1 -15   72.19   27.51
  -5   1 -15   47.13   24.98
   5  -1  15   27.40   20.37
   5   1  15   80.42   25.98
  -5  -1  15   21.97   16.35
  -5   1  15   45.25   22.59
  -5  -1 -16   25.53   17.12
  -5   1 -16   53.40   24.51
   5   1  16   59.87   23.92
   5  -1  16  100.87   28.97
  -5  -1  16  155.09   45.92
  -5   1  16   68.52   23.08
  -5  -1 -17   37.21   18.66
  -5   1 -17    5.95   15.20
   5   1  17   50.57   24.07
   5  -1  17   22.14   16.29
  -5  -1  17   38.60   31.00
  -5   1  17   16.81   18.58
  -5  -1 -18   37.69   19.17
  -5   1 -18   40.83   18.84
   5   1  18   60.23   25.39
   5  -1  18   33.84   17.07
  -5  -1  18   70.40   29.08
  -5   1  18   30.54   19.14
  -5  -2   0  506.52   65.61
   5   2   0  437.98   24.95
  -5   2   0  383.52   20.90
   5  -2   0  410.12   21.85
   5   2   0  393.33   59.12
   5  -2   0  487.01   76.65
  -5  -2   0  331.44   20.00
  -5  -2   0  409.20   27.95
  -5  -2   1  105.52   18.50
   5   2  -1   91.97   11.29
   5   2   1   92.45   12.06
  -5   2   1   80.30    8.32
  -5   2  -1   76.33    9.96
   5  -2   1   90.46   10.67
   5  -2  -1   90.16    9.23
   5   2  -1   70.83   12.94
   5   2   1  109.54   16.03
   5  -2  -1   97.72   15.51
   5  -2   1  103.48   17.55
  -5  -2  -1   71.97   10.17
  -5  -2   1   36.34   14.90
  -5  -2  -1  113.80   17.05
  -5  -2   2  733.21   34.87
  -5  -2  -2  867.52   65.95
   5   2  -2  658.21   31.26
  -5   2   2  726.44   31.39
  -5   2  -2  731.09   36.85
   5  -2   2  665.00   32.91
   5  -2  -2  748.08   32.04
   5   2  -2  785.31   60.31
   5  -2  -2  822.38  104.06
   5   2   2  836.96   51.65
   5  -2   2  698.58   39.56
  -5  -2  -2  667.28   33.14
  -5  -2   2  807.26   43.68
  -5  -2  -2  723.28   39.20
  -5   2   2  709.67   41.17
  -5   2   3   44.44    4.76
   5   2  -3   51.75    7.41
  -5  -2  -3   84.85   17.69
  -5   2  -3   76.11   12.27
   5  -2  -3   53.19    3.16
   5   2  -3   46.81    8.08
   5   2  -3   66.90   12.94
   5  -2  -3   51.14   19.87
   5   2   3   73.42   14.03
   5  -2   3   58.58   15.71
  -5  -2  -3   59.94   10.08
  -5  -2   3   54.56   15.87
  -5  -2  -3   63.02   14.93
  -5   2   3   82.90   19.24
   5   2  -4   54.89    8.80
  -5  -2  -4   61.04   13.98
  -5   2  -4   38.08    9.84
   5   2  -4   42.45    8.01
   5  -2  -4   62.84   22.91
   5   2   4   52.76   10.44
   5  -2   4   73.01   19.17
  -5  -2   4   78.88   14.11
  -5  -2   4   52.46   15.44
  -5  -2  -4   55.26   16.66
  -5   2   4   41.55   11.14
   5   2  -5  195.93   28.36
  -5  -2  -5  315.84   27.41
  -5   2  -5  282.01   25.85
   5   2  -5  247.53   18.37
   5  -2  -5  227.15   44.30
   5   2   5  275.67   22.29
   5  -2   5  245.85   25.51
  -5  -2   5  207.22   20.43
  -5  -2   5  298.99   26.56
  -5  -2  -5  329.19   26.37
  -5   2   5  344.42   29.81
   5   2  -6   13.93    6.87
  -5  -2  -6   43.66   13.89
  -5   2  -6   30.34   17.78
   5   2  -6   21.93    7.39
   5  -2  -6   32.52   13.53
   5   2   6   34.24   13.71
   5  -2   6   27.44   12.29
  -5  -2   6   24.56   12.17
  -5  -2   6   75.31   20.68
  -5  -2  -6   22.33   10.16
  -5   2   6   -1.04   10.83
   5   2  -7    2.36    4.61
  -5  -2  -7   23.74   12.34
  -5   2  -7    7.17   12.39
   5   2  -7   12.04    4.56
   5   2   7   26.07   11.24
   5  -2   7   69.65   21.40
  -5  -2   7   70.88   22.92
  -5   2   7   17.62   12.37
  -5  -2   7   50.87   17.99
  -5  -2  -7   18.79   13.44
  -5   2   7   12.53   10.29
  -5  -2  -8  277.84   27.15
  -5   2  -8  224.32   24.74
   5   2  -8  218.55   15.05
   5   2   8  214.11   19.67
   5  -2   8  216.49   27.14
  -5  -2   8  251.97   26.96
  -5   2   8  204.75   20.86
  -5  -2   8  273.10   23.50
  -5  -2  -8  184.73   17.83
  -5   2   8  233.42   26.05
  -5  -2  -9   62.98   19.42
  -5   2  -9   42.66   17.77
   5   2  -9   39.83   11.00
  -5  -2   9    8.53    4.75
   5  -2   9   67.29   24.51
   5   2   9    7.18   10.21
  -5  -2   9   52.42   17.89
  -5   2   9   39.04   16.31
  -5  -2   9   41.28   15.92
  -5  -2  -9   61.50   15.93
  -5   2   9  109.59   25.84
   5  -2 -10  173.36   10.93
  -5  -2 -10  211.35   27.17
  -5   2 -10  262.30   32.77
   5   2 -10  234.68   18.53
  -5   2  10  169.22    9.92
   5  -2  10  238.24   28.29
   5   2  10  212.99   23.49
  -5   2  10  273.15   35.31
  -5  -2  10  187.76   19.30
  -5  -2 -10  222.90   19.45
  -5   2  10  233.33   22.55
  -5  -2 -11  192.33   26.37
  -5   2 -11  224.06   31.35
   5   2 -11  216.63   20.87
   5   2  11  194.38   26.04
   5  -2  11  202.02   25.53
  -5  -2  11  169.62   24.22
  -5   2  11  202.01   29.38
  -5  -2  11  164.74   19.99
  -5  -2 -11  168.46   17.22
  -5   2  11  175.73   20.27
  -5   2 -11  178.13   20.50
  -5  -2 -12   44.27   19.17
  -5   2 -12   26.62   17.72
   5   2 -12   29.33   11.85
   5   2  12   33.09   18.75
   5  -2  12   22.71   16.67
  -5  -2  12   22.21   14.34
  -5   2  12   38.08   19.23
  -5  -2  12   12.69    9.89
  -5  -2 -12   30.05   11.27
  -5   2  12   27.90   13.07
  -5   2 -12   15.76    7.88
  -5  -2 -13   80.90   26.05
  -5   2 -13   80.20   29.32
   5   2 -13   44.15   10.71
   5   2  13   30.30   16.85
   5  -2  13   15.50   17.18
  -5   2  13   67.85   25.17
  -5  -2  13   32.48   14.19
  -5   2 -13   11.25    6.54
  -5   2 -14   47.94   16.85
   5   2  14   44.06   16.34
   5  -2  14   32.51   15.03
  -5   2  14   38.72   16.69
  -5  -2  14   57.86   15.52
  -5  -2 -15    7.28   17.40
  -5   2 -15   64.35   25.36
   5  -2  15   21.61   16.50
   5   2  15    0.63   12.64
  -5  -2  15   41.45   18.58
  -5   2  15   53.97   27.36
  -5  -2 -16   42.46   23.12
   5  -2  16   87.72   29.73
   5   2  16   16.13   13.02
  -5  -2  16   60.16   28.17
  -5   2  16   49.94   20.37
  -5  -2 -17   41.93   24.09
  -5   2 -17   12.01   23.49
   5  -2  17   43.70   26.00
   5   2  17    9.38   13.89
  -5  -2  17   48.82   23.32
  -5   2  17   50.93   24.00
  -5  -2 -18   -2.21   15.69
  -5   2 -18   40.25   19.48
   5  -2  18   32.81   17.69
   5   2  18   11.01   13.37
  -5  -2  18   19.41   26.93
  -5   2  18   18.01   17.62
  -5  -3   0   23.06    6.15
  -5   3   0    4.84    5.50
   5  -3   0   10.94    7.87
   5   3   0   47.92   12.99
   5  -3   0   55.32   11.97
  -5  -3   0   28.46   10.22
  -5  -3   0    5.15   11.16
  -5  -3   1  331.11   23.69
  -5  -3  -1  453.86   33.15
   5   3  -1  248.19   45.53
  -5   3   1  382.45   20.65
  -5   3  -1  368.62   22.85
   5  -3   1  354.22   21.55
   5  -3  -1  371.62   20.29
   5   3  -1  346.48   46.22
   5   3   1  433.42   57.49
   5  -3  -1  376.94   63.63
  -5  -3   1  241.17   37.08
   5  -3   1  354.83   27.28
  -5  -3  -1  357.04   21.01
  -5  -3   1  326.16   27.04
  -5  -3  -1  343.98   26.50
  -5  -3  -2  210.24   49.25
   5   3  -2  128.82   24.95
  -5   3   2  195.10   12.17
  -5   3  -2  218.67   18.19
   5  -3  -2  198.86   11.23
   5   3  -2  215.56   17.35
   5  -3  -2  279.47   41.62
   5   3   2  179.93   22.18
   5  -3   2  233.27   21.95
  -5  -3  -2  174.04   15.11
  -5  -3   2  232.00   23.03
  -5  -3  -2  218.14   22.13
   5   3  -3  379.24   51.56
  -5  -3  -3  522.41   58.15
  -5   3   3  459.59   25.73
  -5   3  -3  511.86   35.24
   5   3  -3  455.92   29.56
   5  -3  -3  456.71   65.16
   5   3   3  455.13   34.69
   5  -3   3  457.40   35.46
  -5  -3  -3  421.86   27.71
  -5  -3   3  512.08   34.97
  -5  -3   3  523.97   39.99
  -5  -3  -3  441.33   32.73
   5   3  -4  119.14   15.52
  -5  -3  -4   97.76   15.94
  -5   3  -4  176.25   20.34
   5   3  -4  102.29   11.60
   5  -3  -4  147.39   42.55
   5   3   4  127.89   13.48
   5  -3   4  112.80   18.37
  -5  -3  -4  111.22   11.57
  -5  -3   4  153.01   17.51
  -5  -3   4  148.91   20.12
  -5  -3  -4  140.14   19.01
   5   3  -5  343.78   31.98
  -5  -3  -5  436.39   39.53
  -5   3  -5  333.84   28.08
   5   3  -5  390.23   27.16
   5  -3  -5  456.01   82.68
   5   3   5  360.87   25.33
   5  -3   5  417.44   33.62
  -5  -3  -5  338.18   24.92
  -5  -3   5  425.27   32.67
  -5  -3   5  399.30   31.41
  -5  -3  -5  369.21   29.58
  -5   3   5  330.54   29.26
   5   3  -6   42.33   12.98
  -5  -3  -6   84.23   20.10
  -5   3  -6   79.71   19.26
   5   3  -6   91.46   16.96
   5  -3  -6   75.30   20.63
   5   3   6   91.98   16.35
   5  -3   6  102.87   19.81
  -5  -3   6   79.21   19.20
  -5  -3  -6   77.32   17.08
  -5   3   6   81.88   18.76
   5   3  -7  113.05   26.90
  -5  -3  -7  233.34   24.58
  -5   3  -7  159.08   33.29
   5   3  -7  214.73   17.74
   5   3   7  206.24   20.76
   5  -3   7  169.36   21.57
  -5  -3   7  195.16   21.26
  -5  -3   7  204.24   23.54
  -5  -3  -7  212.74   20.67
  -5   3   7  255.55   22.46
   5   3  -8   65.15   11.59
  -5  -3  -8   86.27   20.47
  -5   3  -8  115.78   24.84
   5   3  -8  111.16   19.14
   5   3   8   83.11   15.64
   5  -3   8   71.46   21.00
  -5   3   8  146.03   25.65
  -5  -3   8  115.23   21.64
  -5  -3  -8  112.56   20.86
  -5   3   8  120.13   20.10
  -5  -3  -9  422.24   42.17
  -5   3  -9  423.42   39.60
   5   3  -9  357.86   26.46
   5   3   9  367.12   29.74
   5  -3   9  358.60   35.78
  -5  -3   9  359.26   35.31
  -5   3   9  413.80   37.85
  -5  -3   9  423.03   38.38
  -5  -3  -9  347.64   27.41
  -5   3   9  297.36   25.87
  -5  -3 -10  248.31   30.71
  -5   3 -10  305.90   32.17
   5   3 -10  246.43   20.98
   5   3  10  292.10   25.53
   5  -3  10  388.77   38.30
  -5  -3  10  286.70   32.21
  -5   3  10  294.58   35.99
  -5  -3  10  256.95   25.97
  -5  -3 -10  275.27   23.42
  -5   3  10  275.15   22.92
  -5  -3 -11  210.36   27.32
  -5   3 -11  186.37   28.26
   5   3 -11  166.04   20.25
   5  -3  11  246.81   33.84
   5   3  11  201.01   25.51
  -5  -3  11  189.82   27.58
  -5   3  11  234.66   30.56
  -5  -3  11  166.45   19.85
  -5  -3 -11  232.37   20.96
  -5   3  11  204.97   22.33
  -5  -3 -12   16.11   15.67
  -5   3 -12   12.99   15.43
   5   3 -12   30.85   11.78
   5   3  12   -7.00    9.52
   5  -3  12   13.32   20.98
  -5  -3  12   46.93   24.01
  -5   3  12   43.44   19.10
  -5  -3  12   18.03   14.99
  -5  -3 -12   18.71    9.20
  -5   3  12   41.64   16.55
  -5  -3 -13  304.40   50.41
  -5   3 -13  146.75   33.80
   5   3 -13  229.45   35.47
   5  -3  13  297.25   50.45
   5   3  13  232.06   38.87
  -5  -3  13  203.85   37.54
  -5   3  13  333.64   57.14
  -5  -3  13  274.43   43.92
  -5   3  13  206.00   31.82
  -5  -3 -14   -6.27   15.12
  -5   3 -14    8.41   12.98
   5   3 -14   18.77    8.45
   5   3  14   28.74   14.66
   5  -3  14   10.89   15.25
  -5  -3  14   25.43   24.80
  -5   3  14   38.03   22.03
  -5  -3  14    8.33    9.02
  -5  -3 -15   31.13   18.80
   5   3  15   35.01   16.95
   5  -3  15   66.31   21.20
  -5  -3  15   66.95   27.89
  -5   3  15   13.85   16.69
  -5  -3 -16   96.53   31.91
  -5   3 -16   58.63   26.40
   5   3  16   68.71   20.85
   5  -3  16   62.24   21.34
  -5  -3  16   22.86   16.75
  -5   3  16  167.95   42.96
  -5  -3 -17   64.91   23.37
  -5   3 -17   22.53   23.18
   5  -3  17   -1.50   14.16
   5   3  17   28.36   12.67
  -5   3  17   65.83   27.65
  -5  -4   0  289.55   41.76
  -5   4   0  293.16   21.13
   5  -4   0  229.10   17.41
   5   4   0  295.86   35.31
   5  -4   0  317.07   73.73
  -5  -4   0  307.41   21.26
  -5  -4   1  168.51   16.36
  -5  -4  -1  188.22   44.08
  -5   4  -1  198.81   18.92
  -5   4   1  191.28   15.53
   5  -4   1  134.52   12.99
   5  -4  -1  192.08   14.89
   5   4  -1  216.73   19.40
   5   4   1  208.74   27.71
   5  -4  -1  233.50   45.07
  -5  -4   1  108.31   21.82
   5  -4   1  147.76   18.65
  -5  -4  -1  145.19   14.30
  -5  -4  -1  156.96   18.76
  -5  -4   1  181.35   23.19
  -5  -4  -2  296.73   37.65
  -5   4   2  216.32   15.25
  -5   4  -2  228.64   19.66
   5  -4  -2  237.90   16.52
   5   4  -2  218.35   19.99
   5   4   2  200.56   30.36
   5  -4  -2  274.10   56.30
   5  -4   2  162.01   18.87
  -5  -4  -2  215.98   16.56
  -5  -4   2  191.72   17.76
  -5  -4   2  264.04   26.52
  -5  -4  -2  198.96   20.95
  -5  -4  -3   24.20   11.95
  -5   4  -3   52.23   14.82
  -5   4   3   28.05    4.94
   5   4  -3   31.52   11.93
   5  -4  -3   22.26    4.07
   5  -4  -3   26.88   11.17
   5   4   3   35.24   11.42
   5  -4   3   14.37   12.74
  -5  -4  -3   47.78    9.54
  -5  -4   3   18.64    8.45
  -5  -4   3   43.79   16.65
  -5  -4  -3   39.55   16.26
  -5   4   4  245.72   19.10
  -5  -4  -4  306.51   48.75
  -5   4   4  256.71   15.08
  -5   4  -4  229.72   22.86
   5   4  -4  289.51   23.40
   5   4   4  252.70   39.84
   5  -4   4  224.89   23.09
  -5  -4  -4  229.90   17.65
  -5  -4   4  317.33   24.89
  -5  -4   4  244.04   22.28
  -5  -4  -4  273.36   24.03
  -5  -4  -5   61.77   13.89
  -5   4  -5   23.85   16.31
   5   4  -5   55.94   12.88
   5  -4  -5   26.23   15.47
   5   4   5   53.31   12.34
   5  -4   5   37.72   13.38
  -5  -4  -5   60.48   12.93
  -5  -4   5   43.99   16.01
  -5  -4   5   44.81   18.43
  -5  -4  -5   14.32   11.16
  -5  -4  -6  156.33   20.95
  -5   4  -6   95.45   20.12
   5   4  -6  104.85   12.80
   5  -4  -6  127.29   18.38
   5   4   6   94.59   15.36
   5  -4   6  134.30   20.44
  -5  -4  -6  114.64   13.16
  -5  -4   6  160.95   19.95
  -5  -4   6   85.02   20.41
  -5  -4  -6  114.44   17.44
  -5  -4  -7  284.70   34.50
  -5   4  -7  179.34   22.92
   5   4  -7  258.01   20.34
   5  -4  -7  270.42   27.09
   5   4   7  250.88   18.42
   5  -4   7  270.58   27.22
  -5  -4   7  207.79   22.78
  -5  -4   7  222.92   22.50
  -5  -4  -7  244.97   22.60
  -5   4   7  239.36   20.98
  -5  -4  -8  211.34   32.50
  -5   4  -8  149.55   23.70
   5   4  -8  150.98   18.42
   5   4   8  103.98   21.31
   5  -4   8  139.87   28.57
  -5  -4   8  216.76   28.53
  -5   4   8  105.44   27.58
  -5  -4   8  121.54   26.64
  -5  -4  -8  113.44   23.30
  -5   4   8  129.71   26.57
  -5  -4  -9  218.85   46.88
  -5   4  -9  114.12   30.84
   5   4  -9  149.38   25.75
   5   4   9  184.54   17.94
   5  -4   9  177.02   25.60
  -5  -4   9  161.07   21.38
  -5   4   9  137.73   30.11
  -5  -4   9  145.96   28.12
  -5  -4  -9  214.72   21.04
  -5   4   9  180.94   22.32
  -5  -4 -10  205.06   53.78
  -5   4 -10  142.48   25.05
   5   4 -10  168.72   18.51
   5   4  10  161.10   17.61
   5  -4  10  190.52   29.91
  -5  -4  10  184.95   27.08
  -5   4  10  134.47   22.41
  -5  -4  10  207.35   26.03
  -5  -4 -10  152.31   18.79
  -5   4  10  111.58   15.99
  -5  -4 -11  122.73   26.30
  -5   4 -11  144.82   25.78
   5   4 -11  126.11   17.47
   5  -4  11  199.29   30.82
   5   4  11  164.33   22.42
  -5  -4  11  165.88   26.64
  -5   4  11  153.78   27.26
  -5  -4  11  139.69   20.90
  -5  -4 -11  139.61   15.03
  -5   4  11  176.44   19.82
  -5  -4 -12   24.20   18.70
  -5   4 -12   28.79   16.09
   5   4 -12   27.35   10.53
   5  -4  12   45.70   21.32
   5   4  12   56.23   17.37
  -5  -4  12   20.08   16.22
  -5   4  12    3.52   16.05
  -5  -4  12   20.05   15.84
  -5  -4 -12   29.14   10.43
  -5   4  12   18.70   14.14
  -5   4 -13  224.43   41.17
   5   4  13  211.55   35.05
   5  -4  13  120.86   31.66
  -5  -4  13  219.78   41.90
  -5   4  13  219.36   41.92
  -5  -4  13  192.68   33.57
  -5   4  13  141.91   24.81
  -5  -4 -14   51.26   31.23
  -5   4 -14   40.39   15.22
   5   4 -14   34.89   14.05
   5  -4  14   53.12   17.83
   5   4  14   67.51   18.94
  -5  -4  14   62.26   24.44
  -5   4  14   71.08   19.30
  -5  -4  14   59.75   17.28
  -5  -4 -15   24.61   13.72
  -5   4 -15   40.68   18.43
   5   4  15   63.17   20.12
   5  -4  15   12.39   16.54
  -5  -4  15   15.15   16.08
  -5   4  15   78.22   30.60
  -5  -4 -16   21.93   14.45
  -5   4 -16   78.72   32.65
   5   4  16   33.81   16.38
   5  -4  16   26.01   17.93
  -5  -4  16   56.34   28.80
  -5   4  16    7.62   15.78
  -5  -4 -17   96.15   32.99
   5  -4  17  120.30   36.99
  -5  -4  17  138.54   28.30
  -5   4  17   81.22   25.54
  -5  -5   0   26.37    8.94
  -5   5   0   32.03    9.53
   5  -5   0   37.40    9.38
  -5  -5   0   19.53    5.42
  -5  -5   0    9.49    5.63
  -5  -5   0   27.25   13.26
  -5  -5   1  252.02   22.92
  -5  -5  -1  330.39   61.58
  -5   5  -1  205.28   17.64
  -5   5   1  220.64   17.65
   5  -5  -1  216.35   16.50
   5   5   1  247.07   18.22
   5  -5  -1  267.49   53.67
  -5  -5   1  191.25   28.11
   5  -5   1  282.63   28.52
  -5  -5  -1  266.80   18.43
  -5  -5   1  201.10   17.00
  -5  -5  -1  252.71   24.78
  -5  -5   1  275.13   28.29
  -5  -5  -2   22.54    8.37
  -5   5  -2   40.36   15.05
  -5   5   2    8.24    6.34
   5  -5  -2    2.65    4.44
   5   5  -2   24.49   10.03
   5   5   2   12.95    6.26
   5  -5  -2   26.91    9.22
  -5  -5   2    3.65    6.32
   5  -5   2   15.47   12.68
  -5  -5  -2   10.12    6.38
  -5  -5   2   12.70    7.05
  -5  -5   2   25.06   12.45
  -5  -5  -2   20.22   10.79
  -5   5   3   42.08    8.03
  -5  -5  -3   24.47    8.83
  -5   5  -3  106.90   17.08
  -5   5   3   55.99   10.81
   5   5  -3   67.89   17.80
   5   5   3   53.73   13.53
   5  -5  -3   70.17   21.28
   5  -5   3   60.23   20.06
  -5  -5  -3   66.41   12.95
  -5  -5   3   60.32   15.28
  -5  -5   3   24.88   17.67
  -5  -5  -3   68.37   20.29
  -5   5   4   14.03    5.07
  -5  -5  -4   -5.80   11.61
  -5   5  -4   39.30   11.88
  -5   5   4   12.95    5.53
   5   5  -4   34.11   15.06
   5  -5  -4   37.12   10.68
   5   5   4    8.10    4.52
   5  -5   4   36.21   17.96
  -5  -5  -4   12.01    4.65
  -5  -5   4   26.50   10.38
  -5  -5   4    0.11   12.85
  -5  -5  -4   29.51   16.52
  -5  -5  -5   53.61   14.59
  -5   5   5   72.70   13.92
  -5   5  -5   91.76   19.26
  -5   5   5   74.28   10.51
   5   5  -5   80.62   17.15
   5  -5  -5   86.57   21.35
   5   5   5   69.85   15.27
   5  -5   5   45.98   16.18
  -5  -5  -5   38.48    7.82
  -5  -5   5  114.26   20.59
  -5  -5   5   53.83   19.65
  -5  -5  -5   63.44   15.66
  -5  -5  -6   42.37   22.80
  -5   5   6   51.98    7.58
  -5   5  -6   48.13   16.13
  -5   5   6   54.02    7.50
   5   5  -6   31.47   14.40
   5  -5  -6   97.48   26.62
   5   5   6   45.24    9.94
   5  -5   6   37.33   14.31
  -5  -5  -6   38.62    8.49
  -5  -5   6   79.06   19.12
  -5  -5   6   87.81   20.20
  -5  -5  -6   71.28   16.04
  -5  -5  -7   79.12   23.88
  -5   5  -7   58.55   18.59
  -5   5   7   36.84    6.95
   5   5  -7   90.81   21.46
   5  -5  -7   55.14   19.27
   5   5   7   48.82   12.11
   5  -5   7   18.03   14.96
  -5  -5  -7   29.33    7.87
  -5  -5   7   81.50   23.41
  -5  -5   7   45.54   15.97
  -5  -5  -7   74.60   20.38
  -5  -5  -8   27.13   19.34
  -5   5  -8   28.23   16.12
  -5   5   8   12.50    2.89
   5   5  -8   20.32    9.76
  -5   5   8    6.02    1.96
   5   5   8   18.35   11.88
   5  -5   8   50.21   18.78
  -5  -5   8   15.70   12.21
  -5  -5   8   12.45   15.16
  -5  -5  -8   15.47    9.39
  -5   5   8   72.42   20.75
  -5  -5  -9   60.13   29.24
  -5   5  -9   63.45   22.25
   5   5  -9   16.83   13.51
  -5   5   9   32.56    5.74
   5   5   9   28.05    8.09
   5  -5   9   62.51   23.36
  -5  -5   9   65.43   21.54
  -5   5   9   24.68   15.73
  -5  -5   9   15.71   14.09
  -5  -5  -9   25.66   10.88
  -5   5   9   53.96   16.51
  -5  -5 -10  694.70  120.82
  -5   5 -10  603.77   50.79
   5   5 -10  640.24   48.36
   5   5  10  691.33   50.13
   5  -5  10  840.26  165.93
  -5  -5  10  634.95   51.51
  -5   5  10  668.85   54.59
  -5  -5  10  717.08   57.69
  -5  -5 -10  698.12   50.65
  -5   5  10  714.10   53.95
  -5  -5 -11   56.55   18.60
  -5   5 -11   69.85   26.95
   5   5 -11   89.85   19.02
   5  -5  11   94.99   28.89
   5   5  11   85.39   17.29
  -5  -5  11   94.93   20.74
  -5   5  11   65.87   19.08
  -5  -5  11   64.64   16.72
  -5  -5 -11   77.93   15.15
  -5   5  11   32.92   11.51
  -5  -5 -12  105.89   27.23
  -5   5 -12  137.38   33.62
   5   5 -12  100.47   20.79
   5  -5  12   45.01   20.50
   5   5  12  100.86   22.88
  -5  -5  12   60.73   18.86
  -5   5  12  136.60   31.52
  -5  -5  12   51.39   13.09
  -5   5  12   93.30   19.22
  -5  -5 -13   50.79   19.33
  -5   5 -13   37.20   16.88
   5   5 -13   30.19   11.37
   5   5  13   90.89   18.90
   5  -5  13   60.24   19.67
  -5  -5  13   55.70   21.59
  -5   5  13   42.07   15.63
  -5  -5  13   28.73    9.73
  -5  -5 -14  347.66   77.02
  -5   5 -14  298.24   46.75
   5   5 -14  279.61   38.94
   5   5  14  240.36   34.09
   5  -5  14  410.44   39.22
  -5  -5  14  248.94   41.46
  -5   5  14  276.56   45.26
  -5  -5  14  289.94   39.40
  -5  -5 -15   15.96   14.12
  -5   5 -15    2.76   16.25
   5   5  15   75.10   19.99
   5  -5  15   46.51   26.73
  -5  -5  15   27.59   17.09
  -5   5  15   32.51   16.08
  -5  -5  15   39.21   10.08
  -5  -5 -16   76.95   37.09
  -5   5 -16  153.35   46.22
   5  -5  16   47.14   21.02
  -5  -5  16  116.54   38.58
  -5   5  16   27.29   16.44
  -5  -5 -17   37.01   21.24
  -5   5 -17    7.12   19.90
   5  -5  17   16.28   17.12
  -5  -5  17   39.97   24.32
  -5  -6   0    9.94    9.40
  -5   6   0    9.71    7.63
   5  -6   0   33.10   12.60
  -5  -6   0    6.16    4.31
  -5  -6   0    5.52    4.57
  -5  -6   0    3.09   11.95
  -5  -6  -1  265.28   49.01
  -5   6  -1  141.86   16.28
  -5   6   1  203.65   18.12
   5  -6  -1  154.49   14.23
   5   6  -1  235.38   23.32
  -5  -6   1  119.15   20.34
   5  -6  -1  250.43   59.11
   5  -6   1  200.53   24.32
  -5  -6  -1  193.51   14.20
  -5  -6   1  185.26   16.82
  -5  -6  -1  223.06   15.70
  -5  -6   1  150.12   20.75
  -5  -6  -1  149.77   20.46
  -5  -6  -2  150.87   28.47
  -5   6  -2  105.24   14.80
  -5   6   2  141.52   14.54
   5  -6  -2  123.11   11.88
   5   6  -2  125.18   17.99
  -5  -6   2   98.88   21.84
   5  -6  -2  163.40   33.91
   5  -6   2  163.06   21.74
  -5  -6  -2  114.57    9.93
  -5  -6   2  121.03   14.43
  -5  -6  -2  145.41   11.61
  -5  -6   2  120.60   18.77
  -5  -6  -2  119.89   17.51
  -5   6   3   10.05    4.68
  -5  -6  -3   24.23   13.59
  -5   6  -3   23.02   10.68
  -5   6   3   10.27    7.19
   5   6  -3   51.62   13.07
   5   6   3   12.75    5.20
   5  -6  -3   22.43    6.79
  -5  -6  -3   36.76    7.64
  -5  -6   3   44.47   14.42
  -5  -6   3   12.94   12.26
  -5  -6  -3   16.04   12.13
  -5   6   4  165.48   27.08
  -5  -6  -4  226.38   42.60
  -5   6  -4  293.04   24.91
  -5   6   4  222.21   15.00
   5   6  -4  197.95   18.91
   5   6   4  198.85   28.79
   5  -6  -4  214.28   31.02
  -5  -6  -4  257.08   14.92
  -5  -6   4  262.76   24.23
  -5  -6   4  205.53   23.50
  -5  -6  -4  209.96   20.67
  -5  -6  -5   19.52   15.55
  -5   6   5    6.09    3.72
  -5   6  -5   38.57   14.00
  -5   6   5   23.95    6.14
   5   6  -5   39.25   12.30
   5  -6  -5   44.93   14.77
   5   6   5   20.50    6.64
   5  -6   5   28.48   13.40
  -5  -6  -5    9.53    4.50
  -5  -6   5   12.83    9.55
  -5  -6   5   30.42   15.42
  -5  -6  -5   33.05   15.16
  -5  -6  -6  156.08   33.24
  -5   6   6  207.60   15.53
  -5   6  -6  277.82   29.07
  -5   6   6  199.59   15.26
   5   6  -6  265.76   26.32
   5  -6  -6  262.94   44.83
   5   6   6  163.86   29.17
   5  -6   6  184.26   22.63
  -5  -6  -6  160.09   14.15
  -5  -6   6  242.99   23.55
  -5  -6   6  245.90   27.65
  -5  -6  -6  251.58   26.86
  -5  -6  -7  135.69   38.40
  -5   6   7   72.14   13.59
  -5   6  -7  117.23   28.91
  -5   6   7   95.02   16.79
   5   6  -7  131.67   27.29
   5  -6  -7   90.89   23.23
   5   6   7  116.97   21.47
   5  -6   7  109.45   27.88
  -5  -6  -7   72.52   14.10
  -5  -6   7   85.41   20.87
  -5  -6   7   73.72   21.70
  -5  -6  -8   63.99   17.64
  -5   6  -8  118.46   22.50
   5   6  -8   98.30   15.33
  -5   6   8   69.70   11.76
   5  -6  -8  153.30   21.74
   5   6   8   90.55   17.28
   5  -6   8  105.79   23.59
  -5  -6   8  158.78   21.33
  -5  -6   8  102.21   21.29
  -5  -6  -8  101.98   19.39
  -5  -6  -9   27.35   12.00
  -5   6  -9   15.81   14.35
   5   6  -9   60.30   17.28
  -5   6   9   66.28   11.63
   5   6   9   88.88   15.99
   5  -6   9   84.10   23.40
  -5  -6   9   51.07   21.51
  -5   6   9   63.05   24.13
  -5  -6  -9   76.75   17.88
  -5  -6   9   59.05   18.07
  -5  -6 -10  267.30   62.64
  -5   6 -10  285.07   33.01
   5   6 -10  202.13   23.80
   5   6  10  229.74   21.12
   5  -6  10  339.76   39.15
  -5  -6  10  267.84   30.62
  -5   6  10  246.08   35.02
  -5  -6 -10  224.64   23.16
  -5  -6  10  196.58   28.44
  -5   6  10  283.08   28.38
  -5  -6 -11   83.16   25.69
  -5   6 -11   65.71   25.21
   5   6 -11    8.53   10.41
   5   6  11   65.60   13.59
   5  -6  11   32.24   18.81
  -5  -6  11   14.71   13.36
  -5   6  11   43.00   17.01
  -5  -6 -11   58.40   15.02
  -5  -6  11   12.39   11.73
  -5   6  11   30.49   12.20
  -5   6 -12   20.35   16.30
   5   6 -12   29.87   11.31
   5   6  12   35.76   11.63
   5  -6  12   44.28   18.85
  -5  -6  12   52.76   25.01
  -5   6  12    1.31   13.50
  -5  -6  12   22.51   15.63
  -5   6  12   39.74   13.36
  -5  -6 -13   67.37   20.55
  -5   6 -13   58.56   20.47
   5   6 -13   31.39   14.82
   5  -6  13   -7.40   18.46
  -5  -6  13    4.38   15.37
  -5   6  13   69.57   20.16
  -5  -6  13   29.10   14.98
  -5  -6 -14   36.49   27.98
  -5   6 -14   57.79   22.82
   5   6 -14   -0.76   11.44
   5  -6  14   32.16   20.35
  -5  -6  14   16.21   18.71
  -5   6  14   26.50   16.07
  -5  -6  14   22.44   12.68
  -5  -6 -15   81.44   40.55
  -5   6 -15   77.06   30.83
   5   6 -15   28.59   12.81
   5  -6  15   68.81   29.70
  -5  -6  15   42.40   17.74
  -5   6  15   41.61   18.26
  -5  -6  15   51.54   18.93
  -5  -6 -16   41.29   31.34
  -5   6 -16   34.49   19.49
   5  -6  16   19.20   16.38
  -5  -6  16   53.67   29.05
  -5   6  16   13.39   15.60
  -5   7   0   20.99   10.27
   5   7   0   25.51   17.15
   5  -7   0   18.55   17.74
  -5  -7   0   36.89    7.82
  -5  -7   0   17.03    6.47
  -5  -7   0   28.58   13.20
  -5  -7  -1  605.11   38.63
  -5   7  -1  555.06   34.13
  -5   7   1  664.83   37.07
   5   7  -1  491.76   33.42
   5  -7  -1  600.06  101.36
   5  -7   1  529.60   38.77
  -5  -7  -1  510.61   25.34
  -5  -7   1  544.78   29.10
  -5  -7  -1  513.77   25.60
  -5  -7  -1  549.39   38.43
  -5  -7   1  554.69   38.63
  -5  -7  -2  154.11   49.07
  -5   7  -2  154.10   26.77
  -5   7   2  127.04   19.96
   5   7  -2  159.50   33.47
  -5  -7   2   71.05   18.85
   5  -7  -2  152.17   36.15
   5  -7   2  104.66   23.52
  -5  -7   2  175.22   16.96
  -5  -7  -2  144.28   18.60
  -5  -7  -2   97.42   18.43
  -5  -7   2   72.08   16.17
  -5   7   3  831.35   41.42
  -5  -7  -3 1059.17   86.83
  -5   7  -3  985.28   54.31
  -5   7   3 1082.86   53.24
   5   7  -3  933.49   52.56
   5  -7  -3 1179.49  134.72
   5  -7   3  980.62   57.23
  -5  -7   3 1019.33   51.76
  -5  -7  -3  959.81   42.64
  -5  -7   3 1021.24   60.06
  -5  -7  -3 1012.89   57.54
  -5   7   4   53.28   15.17
  -5  -7  -4  180.79   30.15
  -5   7  -4   92.98   22.60
  -5   7   4  116.63   22.75
   5   7  -4  119.42   27.31
   5  -7  -4  153.17   33.57
   5  -7   4  123.98   31.19
  -5  -7  -4   87.86   15.38
  -5  -7   4  121.97   24.43
  -5  -7  -4  105.39   18.44
  -5  -7   4  162.39   24.66
  -5  -7  -4  127.67   26.60
  -5  -7  -5  329.65   60.69
  -5   7  -5  343.52   35.42
  -5   7   5  318.12   23.44
   5   7  -5  379.01   35.87
   5   7   5  258.09   15.74
   5  -7  -5  329.69   46.02
   5  -7   5  305.73   32.14
  -5  -7   5  332.99   29.09
  -5  -7   5  350.79   36.18
  -5  -7  -5  314.05   29.12
  -5  -7  -6   33.91   12.19
  -5   7   6    9.17    8.07
  -5   7  -6   33.58   17.28
  -5   7   6   20.31    6.62
   5   7  -6   21.14   12.13
   5  -7  -6   35.64   15.86
   5   7   6   14.48    5.94
   5  -7   6   11.51   13.77
  -5  -7   6   38.37   15.19
  -5  -7   6   39.17   23.00
  -5  -7  -6   29.81   13.25
  -5  -7  -7   82.22   22.96
  -5   7  -7  107.15   22.65
  -5   7   7  104.21   11.18
   5   7  -7  140.42   20.53
   5  -7  -7   79.70   21.23
   5   7   7   65.58   16.02
  -5  -7   7  107.92   25.12
  -5  -7   7   85.43   24.98
  -5  -7  -7  101.13   15.58
  -5  -7  -8   36.29   17.36
  -5   7  -8   12.33   13.94
   5   7  -8   42.17   14.18
  -5   7   8    6.86    3.44
   5  -7  -8   -4.56   11.29
   5   7   8   16.94    5.85
   5  -7   8   38.14   16.99
  -5  -7   8   22.73   19.05
  -5  -7  -8   26.09   16.29
  -5  -7   8   10.50   16.24
  -5  -7  -9  194.63   40.17
  -5   7  -9  144.19   25.63
   5   7  -9  176.54   24.69
   5   7   9  158.06   14.80
   5  -7   9  149.20   23.23
  -5  -7   9  167.71   23.41
  -5   7   9  139.53   23.61
  -5  -7   9  237.24   32.46
  -5  -7  -9  147.24   19.95
  -5  -7 -10  -10.96   15.29
  -5   7 -10   25.84   16.96
   5   7 -10   72.15   23.07
   5  -7  10   19.91   17.47
  -5  -7  10  -18.34   13.26
  -5   7  10   41.40   22.89
  -5  -7  10   31.16   15.16
  -5  -7 -10   11.65    8.15
  -5  -7 -11   73.60   24.21
  -5   7 -11   52.77   18.59
   5   7 -11  103.20   25.80
   5  -7  11   99.67   31.00
  -5  -7  11   80.18   18.98
  -5   7  11   82.37   24.28
  -5  -7 -11   48.84   12.97
  -5  -7  11   66.69   17.21
  -5   7  11   67.12   21.49
  -5  -7 -12   85.27   24.02
  -5   7 -12   66.15   23.95
   5   7 -12   17.21   12.30
   5  -7  12    9.39   15.47
  -5  -7  12   37.73   21.97
  -5   7  12   25.52   20.50
  -5  -7  12   48.84   17.12
  -5   7  12   15.72    7.56
  -5  -7 -13   57.72   16.36
  -5   7 -13  118.05   30.45
   5   7 -13   97.97   21.48
   5  -7  13  146.61   35.01
  -5  -7  13   46.91   16.66
  -5   7  13  108.06   26.89
  -5  -7  13   87.38   23.06
  -5  -7 -14   29.73   15.53
  -5   7 -14   21.84   26.38
   5   7 -14   48.63   17.49
   5  -7  14   52.10   21.74
  -5   7  14   36.39   17.53
  -5  -7  14   31.06   11.50
  -5  -7 -15   25.92   13.36
  -5   7 -15   34.34   19.67
   5   7 -15   32.36   22.17
   5  -7  15   55.70   31.09
  -5  -7  15   27.31   16.35
  -5   7  15    0.82   16.84
  -5  -7  15   16.59   12.10
  -5  -7 -16   27.12    9.75
  -5   7 -16    9.04   19.33
   5  -7  16   42.15   20.11
  -5  -7  16   31.99   18.92
  -5   7  16   15.53   17.78
  -5   8   0  205.86   20.10
   5   8   0  193.41   24.28
   5  -8   0  187.67   50.13
  -5  -8   0  142.95   11.00
  -5  -8   0  191.41   14.10
  -5  -8   0  233.81   28.73
  -5   8  -1  243.50   23.82
  -5   8   1  309.06   26.41
   5   8  -1  255.32   26.49
   5  -8  -1  343.64   72.59
   5  -8   1  361.55   36.73
  -5  -8  -1  283.26   17.96
  -5  -8   1  320.49   22.64
  -5  -8  -1  369.65   36.46
  -5  -8  -2  538.47   42.83
  -5   8  -2  617.11   44.92
  -5   8   2  627.86   42.65
   5   8  -2  661.90   51.69
   5  -8  -2  617.46  100.69
   5  -8   2  696.29   52.00
  -5  -8   2  594.31   38.69
  -5  -8   2  645.24   48.73
  -5  -8  -2  543.52   42.50
  -5  -8  -3  557.13  102.55
  -5   8  -3  455.27   37.65
  -5   8   3  553.72   36.68
   5   8  -3  492.23   39.07
   5  -8  -3  551.66  110.80
   5  -8   3  524.57   42.53
  -5  -8   3  551.73   36.17
  -5  -8   3  548.24   44.17
  -5  -8  -3  482.65   38.43
  -5  -8  -4  211.72   43.35
  -5   8  -4  196.95   27.56
  -5   8   4  215.15   20.50
   5   8  -4  279.14   28.44
   5  -8  -4  196.65   42.33
   5  -8   4  291.89   31.10
  -5  -8   4  176.35   18.20
  -5  -8  -4  209.32   24.74
  -5  -8   4  242.67   29.23
  -5  -8  -5  194.37   44.29
  -5   8  -5  197.56   24.01
  -5   8   5  185.11   17.27
   5   8  -5  197.60   24.33
   5  -8  -5  226.81   41.89
   5  -8   5  259.19   29.58
  -5  -8   5  191.85   21.08
  -5  -8   5  273.62   32.15
  -5  -8  -5  293.21   27.53
  -5  -8  -6  185.92   34.39
  -5   8  -6  113.97   22.15
  -5   8   6  147.92   14.52
   5   8  -6  141.92   19.58
   5  -8  -6  146.66   31.97
   5  -8   6  151.82   25.75
  -5  -8   6  192.45   20.94
  -5  -8   6  129.33   21.94
  -5  -8  -6  120.33   19.34
  -5  -8  -7   89.51   22.63
  -5   8  -7  126.91   23.20
   5   8  -7  104.34   19.38
  -5   8   7  141.85   14.42
   5  -8  -7  157.54   33.37
   5  -8   7  112.64   19.79
  -5  -8   7  153.46   19.98
  -5  -8  -7  110.78   18.75
  -5  -8   7  106.70   22.60
  -5  -8  -8   69.40   18.66
  -5   8  -8  108.38   24.51
   5   8  -8   99.88   21.71
  -5   8   8   57.14   13.65
   5  -8  -8   41.89   15.68
   5  -8   8   96.54   24.27
  -5  -8   8  101.54   19.53
  -5  -8  -8   64.28   16.41
  -5  -8   8   82.21   20.86
  -5  -8  -9   33.91   15.10
  -5   8  -9   48.85   18.80
   5   8  -9   42.26   15.57
   5  -8   9   46.22   15.82
  -5  -8   9   20.77   12.02
  -5   8   9   31.55   13.81
  -5  -8  -9    4.44    8.39
  -5  -8   9    5.14   15.00
  -5  -8 -10   14.04    8.56
  -5   8 -10   30.08   16.82
   5   8 -10   26.91   17.05
  -5  -8  10   48.96   21.49
  -5   8  10   11.52   13.22
  -5  -8 -10    7.19    8.77
  -5  -8  10   53.21   16.41
  -5   8 -11  202.93   36.11
   5   8 -11  163.86   29.66
  -5  -8  11  115.41   25.18
  -5   8  11  172.18   31.74
  -5  -8  11  134.00   26.10
  -5  -8 -12   39.96   22.87
  -5   8 -12   11.08   16.93
   5   8 -12   43.27   18.40
   5  -8  12   89.73   22.45
  -5  -8  12   15.39   16.09
  -5   8  12   33.52   15.67
  -5  -8  12   60.18   22.22
  -5   8  12   32.14   12.46
  -5  -8 -13   30.81   15.17
  -5   8 -13   75.47   27.21
   5   8 -13   44.96   19.20
   5  -8  13   19.01   17.57
  -5  -8  13   56.23   19.42
  -5   8  13   43.32   22.51
  -5  -8  13   11.35   12.71
  -5  -8 -14   10.94    9.70
  -5   8 -14   28.05   24.91
   5   8 -14   18.08   16.62
   5  -8  14   31.17   26.25
  -5  -8  14   -4.40   13.81
  -5   8  14   17.03   14.54
  -5  -8  14   48.98   20.56
  -5  -8 -15   19.56   17.11
  -5   8 -15   41.28   19.97
   5   8 -15   -4.96   11.54
   5  -8  15   44.61   29.85
  -5  -8  15   47.87   29.65
  -5   8  15   -0.81   14.16
  -5  -8  15   13.30   12.49
  -5   9   0  160.46   18.38
   5   9   0  215.87   30.26
   5  -9   0  255.25   53.51
  -5  -9   0  189.85   12.58
  -5  -9   0  223.79   27.56
  -5   9  -1  137.40   26.13
  -5   9   1  128.32   25.21
   5   9  -1  165.69   22.20
   5   9   1  105.68   27.54
   5  -9  -1  105.02   26.09
   5  -9   1  144.72   27.75
  -5  -9   1  147.49   23.31
  -5  -9   1  149.79   30.34
  -5  -9  -1  148.39   31.26
  -5   9  -2  477.21   40.79
  -5   9   2  482.08   37.47
   5   9  -2  396.81   36.40
   5  -9  -2  449.14   91.46
   5  -9   2  366.81   36.31
  -5  -9   2  399.63   29.79
  -5  -9   2  514.34   44.85
  -5  -9  -2  322.38   32.60
  -5  -9  -3   16.45   14.49
  -5   9  -3   33.28   18.27
  -5   9   3   42.28   12.81
   5   9  -3   15.88   13.26
   5  -9  -3   42.83   14.83
   5  -9   3   36.33   15.37
  -5  -9   3    6.44    6.01
  -5  -9  -3   25.37   13.69
  -5  -9   3   85.10   26.08
  -5  -9  -4   15.97    9.47
  -5   9  -4   29.88   15.03
  -5   9   4   15.18    9.70
   5   9  -4   34.81   15.57
   5  -9  -4   34.93   15.41
   5  -9   4   23.01   21.67
  -5  -9   4    6.15    7.30
  -5  -9  -4   -5.50   12.15
  -5  -9   4   63.43   24.91
  -5  -9  -5   40.61   16.54
  -5   9  -5   53.70   22.70
  -5   9   5   18.29    7.07
   5   9  -5   46.69   17.61
   5  -9  -5   70.18   20.30
   5  -9   5   64.90   24.56
  -5  -9   5   55.85   15.93
  -5  -9   5   72.93   21.72
  -5  -9  -5   36.13   13.37
  -5  -9  -6  200.04   37.52
  -5   9  -6  205.08   27.25
  -5   9   6  169.95   18.10
   5   9  -6  186.20   26.03
   5  -9  -6  175.44   43.18
   5  -9   6  277.32   33.37
  -5  -9   6  195.55   22.40
  -5  -9   6  266.29   31.11
  -5  -9  -6  182.59   22.79
  -5  -9  -7   35.29   12.48
  -5   9  -7  117.57   26.41
  -5   9   7   22.58    8.74
   5   9  -7   27.80   14.25
   5  -9  -7   50.93   15.07
   5  -9   7   64.03   22.14
  -5  -9   7   24.30   12.60
  -5  -9  -7   90.53   20.29
  -5  -9   7   83.51   23.63
  -5  -9  -8   18.62   12.11
  -5   9  -8   81.77   25.51
   5   9  -8   19.26   13.85
   5  -9  -8   45.62   20.00
   5  -9   8   61.47   19.80
  -5  -9   8   40.54   13.02
  -5  -9  -8   42.01   17.21
  -5  -9   8   44.43   23.97
  -5  -9  -9   95.68   24.64
  -5   9  -9  155.58   32.81
   5   9  -9   99.05   23.37
   5  -9   9  129.16   33.27
  -5  -9   9   96.24   23.03
  -5   9   9   62.25   20.31
  -5  -9  -9   88.40   19.09
  -5  -9   9  119.56   26.77
  -5  -9 -10   36.85   17.62
  -5   9 -10   37.59   14.93
   5   9 -10   49.62   20.30
   5  -9  10   46.19   27.95
  -5  -9  10    7.26   11.86
  -5   9  10   30.57   13.11
  -5  -9 -10   47.07   14.64
  -5  -9  10   73.08   21.23
  -5  -9 -11   30.07   15.88
  -5   9 -11   31.24   18.64
   5   9 -11   52.34   20.88
   5  -9  11   83.76   28.18
  -5  -9  11   15.64   14.93
  -5   9  11   74.13   23.76
  -5  -9  11   48.29   16.84
  -5  -9 -12   57.46   22.44
  -5   9 -12   71.87   24.15
   5   9 -12   61.17   19.03
   5  -9  12  124.33   35.61
  -5  -9  12   70.45   25.60
  -5   9  12   95.11   27.31
  -5  -9  12  106.86   28.90
  -5  -9 -13   29.04   14.00
  -5   9 -13   53.39   26.83
   5   9 -13   21.07   13.83
   5  -9  13   25.37   17.74
  -5  -9  13   24.74   19.59
  -5   9  13   12.22   14.80
  -5  -9  13   -1.17   12.38
  -5  -9 -14   61.55   22.78
  -5   9 -14   93.02   31.58
   5   9 -14   32.20   13.48
  -5  -9  14   97.58   30.60
  -5   9  14   70.24   26.44
  -5  -9  14   41.25   17.04
  -5  10   0   43.05   16.45
   5  10   0   61.49   24.92
   5 -10   0   32.77   14.83
  -5 -10   0   29.60   16.18
  -5  10  -1  206.94   27.43
  -5  10   1  211.29   22.98
   5  10  -1  173.72   29.50
   5  10   1  145.14   24.15
   5 -10  -1  148.73   33.19
   5 -10   1  207.71   29.67
  -5 -10  -1  150.78   26.57
  -5 -10   1  129.69   23.55
  -5  10  -2  237.82   25.70
  -5  10   2  341.34   33.09
   5  10  -2  238.87   28.55
   5  10   2  301.42   35.50
   5 -10  -2  218.13   64.58
   5 -10   2  299.22   30.96
  -5 -10   2  197.85   17.20
  -5 -10  -2  208.19   27.21
  -5 -10   2  311.20   33.47
  -5  10  -3   11.42   13.66
  -5  10   3   29.61   13.13
   5  10  -3   47.08   22.57
   5 -10  -3   30.59   15.82
   5 -10   3   24.28   19.33
  -5 -10   3   20.61   10.15
  -5 -10   3   38.79   18.20
  -5 -10  -3   25.82   13.03
  -5 -10  -4  112.57   26.95
  -5  10  -4  117.73   26.31
  -5  10   4   64.08   17.54
   5  10  -4   39.88   15.86
   5 -10  -4   81.98   25.73
   5 -10   4   94.06   21.77
  -5 -10   4  103.94   16.47
  -5 -10  -4   56.57   23.67
  -5 -10   4   38.79   18.63
  -5 -10  -5   49.01   19.37
  -5  10  -5   43.88   18.91
  -5  10   5   15.78    8.74
   5  10  -5   24.50   14.86
   5 -10  -5   65.13   13.61
   5 -10   5   50.57   17.10
  -5 -10   5   24.09   11.99
  -5 -10   5   45.62   27.25
  -5 -10  -5   19.55   17.16
  -5 -10  -6   41.50   27.85
  -5  10  -6   27.00   16.53
  -5  10   6   36.74   10.92
   5  10  -6   24.18   12.39
   5 -10  -6   27.18   14.53
   5 -10   6   29.04   13.67
  -5 -10   6   55.05   14.42
  -5 -10  -6   53.77   19.00
  -5 -10   6   41.09   18.62
  -5 -10  -7    9.56   16.98
  -5  10  -7  112.12   26.65
  -5  10   7   14.49    6.17
   5  10  -7   10.16   12.58
   5 -10  -7   14.65    7.39
   5 -10   7   50.13   21.97
  -5 -10   7   33.24   14.48
  -5 -10  -7   25.44   13.06
  -5 -10   7   28.01   17.28
  -5 -10  -8   74.16   26.70
  -5  10  -8   23.46   20.64
   5  10  -8   85.25   21.73
   5 -10   8   35.31   17.12
  -5 -10   8   33.68   15.71
  -5 -10  -8   55.60   14.58
  -5 -10   8   97.59   28.88
  -5 -10  -9   33.39   12.84
  -5  10  -9   51.71   18.56
   5  10  -9   11.63   13.79
   5 -10   9   49.89   24.23
  -5 -10   9   24.76   16.74
  -5  10   9   30.58   13.49
  -5 -10  -9   22.19   14.47
  -5 -10   9   72.58   23.71
  -5  10 -10   40.00   16.76
   5  10 -10   40.24   16.05
   5 -10  10   95.81   24.63
  -5 -10  10   13.99   13.78
  -5  10  10   40.17   20.06
  -5 -10 -10   36.44   10.73
  -5 -10  10   86.86   24.72
  -5 -10 -11   92.89   30.07
  -5  10 -11   46.92   23.80
   5  10 -11    4.58   13.05
   5 -10  11   64.67   27.15
  -5 -10  11   50.65   17.28
  -5  10  11   11.97   16.43
  -5 -10  11   81.43   26.28
  -5 -10 -12   60.31   27.12
  -5  10 -12   89.86   34.43
   5  10 -12   60.27   20.80
   5 -10  12   10.62   18.11
  -5 -10  12   39.30   20.92
  -5 -10  12   50.88   23.84
  -5 -10 -13   63.99   34.58
  -5  10 -13  100.61   29.16
   5  10 -13   96.07   28.63
  -5 -10  13   24.34   14.30
  -5  10  13   74.17   25.18
  -5 -10  13  120.43   36.11
  -5  11   0    4.20   10.94
   5  11   0   34.15   19.12
   5 -11   0   31.13   15.79
  -5 -11   0   38.39   25.05
  -5  11  -1  321.35   38.79
  -5  11   1  402.38   45.69
   5  11  -1  410.75   49.82
   5  11   1  423.59   52.35
   5 -11  -1  345.57   69.11
   5 -11   1  412.01   77.74
  -5 -11   1  375.17   47.09
  -5 -11  -1  377.30   46.58
  -5  11  -2   19.42   13.68
  -5  11   2    4.03    9.50
   5  11  -2   23.14   14.76
   5  11   2   33.06   15.27
   5 -11  -2   11.42    8.88
   5 -11   2   36.50   19.93
  -5 -11   2   27.72   16.37
  -5 -11  -2   60.58   17.50
  -5  11  -3   61.73   17.43
  -5  11   3   49.44   14.04
   5  11  -3   63.58   22.05
   5  11   3   64.63   23.73
   5 -11  -3   81.71   25.93
   5 -11   3   69.48   23.00
  -5 -11   3   62.90   27.86
  -5 -11  -3   14.96   14.21
  -5  11  -4   37.42   18.95
  -5  11   4   31.31   11.18
   5  11  -4   25.36   15.35
   5 -11  -4   23.14   25.37
   5 -11   4   42.21   21.65
  -5 -11   4    2.24    5.45
  -5 -11   4   15.33   16.87
  -5 -11  -4   22.51   17.81
  -5 -11  -5  104.17   27.02
  -5  11  -5  152.21   31.90
  -5  11   5   85.67   17.83
   5  11  -5  188.24   38.70
   5 -11  -5  195.79   52.14
   5 -11   5  156.69   33.71
  -5 -11   5  158.71   27.02
  -5 -11  -5   89.11   24.71
  -5 -11   5  129.10   31.78
  -5 -11  -6   48.18   15.69
  -5  11  -6   39.33   16.22
  -5  11   6   22.24    7.59
   5  11  -6   25.95   15.25
   5 -11   6   26.50   14.41
  -5 -11   6   10.56    8.41
  -5 -11  -6    4.70   12.27
  -5 -11   6    8.97   14.70
  -5 -11  -7   96.97   29.31
  -5  11  -7  184.30   32.82
   5  11  -7  100.86   24.50
   5 -11  -7   87.66   23.91
   5 -11   7  156.17   32.64
  -5 -11   7   64.78   17.28
  -5 -11  -7   80.26   20.49
  -5 -11   7   45.42   16.60
  -5 -11  -8   53.75   20.15
  -5  11  -8   28.09   15.44
   5  11  -8   46.92   24.60
   5 -11  -8   34.16   12.01
   5 -11   8   44.29   19.17
  -5 -11   8   25.61   11.23
  -5 -11  -8   33.20   16.50
  -5 -11   8   47.52   22.12
  -5 -11  -9   45.45   18.94
  -5  11  -9   46.78   25.66
   5  11  -9   81.52   26.25
   5 -11   9   40.20   19.92
  -5 -11   9   39.25   12.86
  -5  11   9   32.80   12.44
  -5 -11  -9   70.02   25.52
  -5 -11   9   72.06   26.77
  -5 -11 -10   22.93   18.83
  -5  11 -10   13.93   15.80
   5  11 -10   27.51   15.58
   5 -11  10   53.34   24.66
  -5 -11  10   49.89   19.99
  -5  11  10   58.99   21.85
  -5 -11 -10   22.69    9.94
  -5 -11  10   13.23   15.61
  -5 -11 -11   42.68   19.59
  -5  11 -11   51.48   21.19
   5  11 -11    4.83   13.29
   5 -11  11   39.38   24.20
  -5 -11  11   29.54   13.52
  -5  11  11   41.14   19.74
  -5 -11  11   52.09   25.59
  -5 -11 -12   49.67   21.30
  -5  11 -12   24.38   17.95
   5  11 -12   34.92   14.33
   5 -11  12   45.00   26.96
  -5 -11  12   18.06   13.75
  -5  11  12   57.83   23.10
  -5 -11  12   51.16   24.36
  -5  12   0   18.31   10.79
   5  12   0   41.43   23.96
   5 -12   0   22.52   12.75
  -5 -12   0   59.60   26.70
  -5  12  -1   28.37   16.08
  -5  12   1   -8.14   10.48
   5  12  -1   93.89   29.02
   5  12   1   92.07   29.33
   5 -12  -1   15.10   12.14
   5 -12   1   20.41   16.12
  -5 -12   1   22.64   16.55
  -5 -12  -1   27.84   15.81
  -5  12  -2  236.96   41.30
  -5  12   2  226.57   39.98
   5  12  -2  238.90   41.45
   5  12   2  190.75   35.16
   5 -12  -2  192.11   46.15
   5 -12   2  219.10   38.95
  -5 -12  -2  141.18   27.01
  -5  12  -3   30.55   12.80
  -5  12   3    4.72    9.06
   5  12  -3   19.72   13.80
   5  12   3   30.00   18.40
   5 -12  -3   19.65   16.81
   5 -12   3   46.35   19.03
  -5 -12  -3   -3.34   15.42
  -5 -12   3  -12.81   14.06
  -5  12  -4   33.98   14.81
  -5  12   4   38.89   14.70
   5  12  -4   31.52   16.66
   5  12   4   34.22   16.61
   5 -12  -4   46.73   22.60
   5 -12   4   25.62   13.73
  -5 -12  -4   90.08   23.24
  -5 -12   4   49.33   17.87
  -5  12  -5   32.93   14.88
  -5  12   5   13.12    9.09
   5  12  -5   50.92   18.51
   5  12   5   33.71   16.91
   5 -12  -5   50.11   18.77
   5 -12   5   11.68   13.16
  -5 -12  -5   37.85   20.12
  -5 -12   5   13.37   16.68
  -5 -12  -6   17.51   21.12
  -5  12  -6   14.95   15.02
  -5  12   6   26.21   11.08
   5  12  -6   42.54   18.59
   5 -12  -6   54.69   19.39
   5 -12   6   22.40   13.54
  -5 -12  -6   19.98   14.42
  -5 -12   6   38.41   17.84
  -5 -12  -7   50.56   23.95
  -5  12  -7   89.15   29.62
   5  12  -7   19.33   13.63
   5 -12  -7   16.60   11.29
   5 -12   7   70.02   24.18
  -5 -12  -7   41.20   14.27
  -5 -12   7   28.41   17.76
  -5 -12  -8   63.48   20.57
  -5  12  -8   78.11   25.80
   5  12  -8   64.19   25.32
   5 -12  -8   32.47   11.42
   5 -12   8   83.84   23.57
  -5 -12   8  151.33   37.34
  -5  12  -9    5.06   16.31
   5  12  -9   37.13   21.25
   5 -12   9   17.36   15.30
  -5 -12   9   24.58   18.16
  -5  12   9   42.76   17.66
  -5 -12  -9   -0.25   11.30
  -5 -12   9    9.18   15.83
  -5 -12 -10   20.27    9.71
  -5  12 -10   14.94   17.65
   5  12 -10   15.26   14.58
   5 -12  10   42.87   25.15
  -5 -12  10   17.97   12.10
  -5  12  10   59.58   20.21
  -5 -12  10   34.46   17.56
  -5 -12 -11   38.03   21.49
  -5  12 -11    0.06   15.41
   5  12 -11   36.92   14.88
   5 -12  11  -13.39   17.30
  -5 -12  11   11.39   12.20
  -5  12  11   53.76   21.56
  -5 -12  11   17.16   21.00
  -5  13   0  136.27   32.95
   5  13   0   67.85   20.52
   5 -13   0   95.47   24.49
  -5 -13   0   90.49   25.33
  -5  13  -1   29.16   18.13
  -5  13   1   36.53   17.50
   5  13  -1   18.66   15.97
   5  13   1   36.88   24.89
   5 -13  -1   -0.19   12.50
   5 -13   1   26.71    9.98
  -5 -13   1   79.48   21.41
  -5 -13  -1   24.19   17.19
  -5  13  -2   55.52   21.69
  -5  13   2   30.97   12.42
   5  13  -2   28.69   16.19
   5  13   2   24.98   18.59
   5 -13  -2   22.26    8.32
   5 -13   2   25.55   13.40
  -5 -13   2   22.86   17.74
  -5 -13  -2   20.56   16.43
  -5  13  -3   38.13   13.89
  -5  13   3   37.59   19.08
   5  13  -3   29.73   17.05
   5 -13  -3   27.14   10.46
   5 -13   3   34.86   14.26
  -5 -13   3  132.45   33.68
  -5 -13  -3   38.89   15.24
  -5  13  -4   30.55   15.17
  -5  13   4   24.56   13.60
   5  13  -4   22.84   17.91
   5  13   4   28.56   17.19
   5 -13  -4   42.88   14.07
   5 -13   4   31.63   14.43
  -5 -13  -4   28.01   15.19
  -5  13  -5   30.56   14.67
  -5  13   5   22.31    8.79
   5  13  -5   44.48   18.89
   5  13   5   66.32   21.90
   5 -13  -5   27.09    9.27
   5 -13   5   19.43   13.50
  -5 -13  -5   28.34   15.13
  -5 -13   5   16.83   19.53
  -5  13  -6    7.59   13.69
   5  13  -6   19.02   17.78
   5  13   6   16.63   15.79
   5 -13  -6   24.91   14.29
   5 -13   6    3.16   14.00
  -5 -13  -6   13.18   12.83
  -5 -13   6   30.83   16.40
  -5  13  -7   57.09   22.45
   5  13  -7   36.69   17.56
   5  13   7    0.91   18.83
   5 -13  -7   20.78   10.77
   5 -13   7   35.74   19.79
  -5 -13  -7   15.40   12.21
  -5 -13   7   47.00   21.92
  -5  13  -8    7.52   14.87
   5  13  -8   29.16   15.18
   5 -13  -8   37.88   15.79
   5 -13   8   39.33   20.17
  -5 -13  -8   -2.35   10.10
  -5 -13   8   46.91   19.91
  -5 -13  -9   23.67   14.59
  -5  13  -9   35.70   23.56
   5  13  -9  -10.50   14.84
   5 -13   9   12.97   17.46
  -5  13   9   36.45   17.64
  -5 -13  -9   16.40   12.49
  -5 -13   9   16.81   16.63
  -5  14   0   19.77   14.19
   5  14   0   59.09   31.93
   5 -14   0   46.35   17.83
  -5 -14   0   22.85   17.37
  -5  14  -1   61.01   22.70
  -5  14   1   37.17   13.86
   5  14  -1   82.13   31.56
   5  14   1   40.13   19.48
   5 -14  -1   39.78   16.45
   5 -14   1   26.93   15.38
  -5 -14   1  113.08   36.56
  -5 -14  -1  123.16   33.59
  -5  14  -2   16.81   14.43
  -5  14   2   27.04   17.41
   5  14  -2   59.13   27.87
   5  14   2   21.51   16.99
   5 -14  -2   23.76   13.07
   5 -14   2   16.26   11.36
  -5 -14   2   19.34   17.40
  -5 -14  -2   37.02   16.83
  -5  14  -3   54.89   24.20
  -5  14   3   31.04   17.76
   5  14  -3   27.83   17.24
   5  14   3   26.03   19.09
   5 -14  -3   25.85   11.96
   5 -14   3   31.88   14.44
  -5 -14  -3    2.01   15.24
  -5 -14   3   63.05   24.58
  -5  14  -4   25.43   14.79
  -5  14   4    9.25   10.01
   5  14  -4    1.39   14.81
   5  14   4   15.48   18.76
   5 -14  -4   -0.72   10.90
   5 -14   4   29.57   13.44
  -5 -14  -4   35.55   16.20
  -5 -14   4   55.66   24.94
  -5  14  -5   26.35   21.65
   5  14  -5   46.91   26.99
   5  14   5   44.96   26.48
   5 -14  -5   28.73   11.72
   5 -14   5   -5.22   12.68
  -5 -14  -5   21.26   15.00
  -5 -14   5   10.34   17.45
  -5  14  -6   28.04   15.55
   5  14  -6   21.85   25.22
   5  14   6    6.82   18.51
   5 -14  -6   16.65   10.29
   5 -14   6   22.07   18.97
  -5 -14  -6   39.12   15.55
  -5 -14   6   70.29   27.72
  -5  14  -7   29.71   17.70
   5  14  -7   85.78   30.38
   5  14   7   48.99   26.14
   5 -14  -7   29.11   11.63
   5 -14   7   31.41   20.46
  -5 -14  -7    4.85   11.54
  -5 -14   7   86.71   29.03
  -5  15   0   15.87   13.11
   5 -15   0   29.15   15.50
  -5 -15   0   13.62   16.74
  -5  15  -1   32.06   18.87
  -5  15   1   17.55   12.24
   5  15  -1   10.98   16.97
   5  15   1  -19.09   16.10
   5 -15  -1   56.30   19.36
   5 -15   1    2.80   11.32
  -5 -15  -1   14.31   19.97
  -5 -15   1   65.04   28.01
  -5  15  -2   20.41   14.27
  -5  15   2   43.30   19.54
   5  15  -2   36.19   18.05
   5 -15  -2   18.71    7.27
   5 -15   2   43.04   14.76
  -5 -15  -2   38.95   19.74
  -5 -15   2   54.49   19.70
  -5  15  -3   70.73   24.73
  -5  15   3   32.85   12.94
   5  15  -3   67.80   22.54
   5  15   3  101.74   33.09
   5 -15  -3   36.50   14.28
   5 -15   3   38.72   22.70
  -5 -15  -3  103.20   32.08
  -5  15  -4   65.45   25.01
   5  15  -4  -11.68   17.68
   5  15   4   12.05   20.46
   5 -15   4   44.33   21.36
  -5 -15  -4   18.05   10.42
  -5 -15   4   36.97   20.73
  -6   0   0  336.69   35.78
   6   0   0  271.05   20.25
   6   0   0  359.20   66.03
  -6   0   0  315.93   28.69
  -6   0   1   20.63    5.52
  -6   0  -1   14.60    6.93
   6   0   1    0.96    6.16
   6   0  -1    6.99    4.80
   6   0  -1   26.40    5.87
   6   0   1   29.39   12.15
  -6   0   1   14.40   12.24
  -6   0   2   60.18   10.36
  -6   0  -2   28.43    8.38
   6   0  -2   61.51    7.76
   6   0  -2   73.71   17.15
   6   0   2   65.82   21.35
  -6   0   2   44.53   12.70
  -6   0  -2   79.56   20.03
  -6   0  -3  579.82   38.89
   6   0  -3  557.07   31.94
   6   0  -3  679.80   87.48
   6   0   3  640.38   43.80
  -6   0   3  494.76   36.52
  -6   0  -3  552.80   38.51
  -6   0  -4   35.07   12.22
   6   0  -4   18.78    4.27
   6   0  -4    8.22   10.04
   6   0   4   29.71   11.49
  -6   0   4   24.04   13.25
  -6   0  -4    1.26   11.28
  -6   0  -5  278.10   26.31
   6   0  -5  287.99   28.08
   6   0   5  248.47   23.03
  -6   0   5  242.69   23.82
  -6   0  -5  305.18   27.18
  -6   0  -6  788.91   46.93
   6   0   6  740.89   43.97
  -6   0   6  748.68   45.15
  -6   0   6  758.06   44.35
  -6   0  -6  691.11   40.50
  -6   0  -7  377.98   31.24
   6   0   7  285.50   24.79
  -6   0   7  290.50   28.99
  -6   0   7  430.77   32.64
  -6   0  -7  325.62   24.93
  -6   0  -8  480.20   40.34
   6   0   8  405.98   35.14
  -6   0   8  345.07   32.27
  -6   0   8  416.37   37.73
  -6   0  -8  346.58   29.82
  -6   0  -9 1613.49  234.79
   6   0   9 1501.70   93.70
  -6   0   9 1531.14  221.80
  -6   0  -9 1412.86   85.96
  -6   0 -10  129.96   25.50
   6   0  10  103.87   20.49
  -6   0  10   71.22   22.23
  -6   0  10  120.29   19.58
  -6   0 -10   98.64   15.68
  -6   0 -11   45.82   19.08
   6   0  11   38.46   22.04
  -6   0  11   39.64   23.27
  -6   0  11   -1.30   11.01
  -6   0 -11   73.04   17.94
  -6   0 -12   21.15   21.40
   6   0  12   37.65   20.15
  -6   0  12   52.88   25.50
  -6   0  12   19.93   10.28
  -6   0 -12   23.14   11.11
  -6   0 -13   22.28   14.61
   6   0  13   33.16   18.87
  -6   0  13   21.67   16.24
  -6   0  13    6.17    9.81
  -6   0 -14   29.05   16.45
   6   0  14   31.24   14.99
  -6   0  14   34.44   17.73
  -6   0  14    1.58    6.86
  -6   0 -15   64.49   23.31
   6   0  15   76.10   25.96
  -6   0  15  168.83   42.66
  -6   0 -16   53.78   29.67
   6   0  16   52.64   27.95
  -6   0  16   11.15   19.95
  -6   0 -17   42.95   21.55
   6   0  17   56.16   23.02
  -6   0  17   10.22   18.27
  -6  -1   0  275.83   52.15
  -6   1   0  270.33   19.91
   6   1   0  219.14   17.46
   6  -1   0  248.32   18.04
   6   1   0  265.09   47.69
   6  -1   0  264.59   46.45
  -6  -1   0  326.16   29.79
  -6   1   0  303.00   30.08
  -6  -1   1   35.49    7.18
  -6  -1  -1   32.61   12.16
  -6   1   1   17.27    6.78
  -6   1  -1   38.05   10.16
   6   1  -1   34.55    9.95
   6  -1   1   13.67    8.15
   6  -1  -1   19.79    5.15
   6   1  -1   54.06   16.00
   6  -1  -1   33.37   11.29
   6   1   1   44.66   13.46
   6  -1   1   45.80   13.73
  -6  -1  -1    4.38   12.89
  -6  -1   1   25.44   13.53
  -6   1   1   44.01   13.86
  -6  -1   2   27.50    4.90
  -6   1   2   31.33    5.92
  -6  -1  -2   24.91   11.68
  -6   1  -2   20.15    7.76
   6   1  -2   22.84    6.82
   6  -1  -2   19.41    4.66
   6   1  -2    9.99    8.97
   6  -1  -2   31.44   10.44
   6   1   2   13.92   10.26
   6  -1   2   39.86   17.66
  -6  -1   2   41.53   15.97
  -6  -1  -2   22.50   12.93
  -6   1   2   19.03   12.30
  -6   1  -2   36.86   18.95
  -6   1   3  247.40   19.79
  -6  -1  -3  308.56   26.30
  -6   1  -3  295.32   23.57
   6   1  -3  244.51   16.80
   6   1  -3  258.32   17.82
   6   1  -3  289.79   38.12
   6  -1  -3  276.86   47.34
   6   1   3  321.08   31.55
   6  -1   3  287.30   27.15
  -6  -1   3  334.17   29.72
  -6  -1  -3  270.06   24.74
  -6   1   3  275.91   25.62
  -6   1  -3  221.72   23.28
  -6  -1  -4   40.06   15.58
   6   1  -4   43.42    8.69
  -6   1  -4   64.45   19.11
   6   1  -4   28.59    7.50
   6   1  -4   54.36   16.11
   6  -1  -4   42.51   14.06
   6   1   4   41.00   15.52
   6  -1   4   27.54   12.80
  -6  -1   4   44.14   20.24
  -6  -1  -4   38.65   14.26
  -6   1   4   56.41   21.05
  -6   1  -4   77.41   22.28
  -6  -1  -5   35.14   12.43
   6   1  -5   34.63    6.80
  -6   1  -5   -4.77   10.89
   6   1  -5   26.00    5.91
   6  -1  -5   22.33   16.99
   6   1   5   66.21   15.99
   6  -1   5   23.14   13.08
  -6  -1   5   17.69   12.75
  -6  -1  -5   33.65   13.38
  -6   1   5    8.91   16.60
  -6   1  -5   43.03   14.03
   6   1  -6  275.25   14.66
  -6  -1  -6  315.01   26.25
  -6   1  -6  350.63   27.01
   6   1  -6  332.26   17.40
   6  -1  -6  347.09   28.96
   6   1   6  352.03   26.72
   6  -1   6  296.63   27.31
  -6  -1   6  425.34   32.55
  -6  -1   6  320.37   26.20
  -6  -1  -6  351.85   28.81
  -6   1   6  357.25   28.23
  -6   1  -6  352.79   28.08
  -6  -1  -7  337.81   32.22
  -6   1  -7  279.96   28.11
   6   1  -7  369.63   23.17
   6   1   7  323.32   28.78
   6  -1   7  370.31   35.00
  -6  -1   7  410.35   37.76
  -6   1   7  340.92   35.56
  -6  -1   7  287.04   27.40
  -6  -1  -7  364.88   32.27
  -6   1   7  415.03   39.89
  -6   1  -7  322.12   27.92
  -6  -1  -8    0.17   13.54
  -6   1  -8   23.18   15.34
   6   1  -8    6.25    3.65
   6   1   8   45.78   16.41
   6  -1   8   22.16   15.76
  -6  -1   8    0.14   13.80
  -6   1   8   44.20   16.43
  -6  -1   8   49.39   19.25
  -6   1   8    1.80   10.32
  -6  -1  -8    8.20    9.81
  -6   1  -8    0.68   10.46
  -6  -1  -9  135.92   31.92
  -6   1  -9  100.96   26.97
   6   1  -9   95.59   16.92
   6   1   9  139.59   26.67
   6  -1   9   96.74   26.08
  -6  -1   9  107.43   27.53
  -6   1   9  139.99   27.14
  -6  -1   9  106.54   25.14
  -6   1   9  127.22   27.07
  -6  -1  -9  112.65   23.30
  -6   1  -9  101.68   21.37
  -6  -1 -10  312.07   36.76
  -6   1 -10  299.64   33.64
   6   1 -10  273.19   19.76
   6   1  10  259.93   29.60
   6  -1  10  301.28   31.04
  -6  -1  10  325.80   35.35
  -6   1  10  328.16   36.95
  -6  -1  10  311.80   31.05
  -6   1  10  298.24   31.27
  -6  -1 -10  295.86   27.62
  -6   1 -10  275.13   26.69
  -6  -1 -11   70.65   24.10
  -6   1 -11   61.88   22.35
   6   1  11   89.42   21.60
   6  -1  11   70.45   23.35
  -6  -1  11   60.56   19.89
  -6   1  11   50.29   20.09
  -6  -1  11   52.83   17.71
  -6   1  11   43.82   15.55
  -6  -1 -11   98.19   17.34
  -6   1 -11   54.84   17.38
  -6  -1 -12  260.46   45.11
  -6   1 -12  205.74   40.13
   6  -1  12  165.02   33.23
   6   1  12  145.80   28.59
  -6  -1  12  181.23   35.86
  -6   1  12  222.87   45.57
  -6  -1  12  163.18   28.00
  -6   1  12  189.63   31.93
  -6  -1 -12  200.91   31.64
  -6   1 -12  163.76   26.71
  -6  -1 -13   62.77   23.41
  -6   1 -13  184.87   38.94
   6  -1  13  107.13   26.03
   6   1  13   51.25   16.29
  -6   1  13  126.95   33.95
  -6  -1  13  117.59   26.14
  -6   1  13   96.90   20.76
  -6   1 -13   33.52    9.01
  -6  -1 -14    8.32   15.39
  -6   1 -14  -11.76   15.25
   6  -1  14    8.64   14.38
   6   1  14   -1.03   14.04
  -6  -1  14   38.04   18.01
  -6   1  14   17.38   17.47
  -6  -1  14   39.18   14.05
  -6  -1 -15  157.59   40.32
  -6   1 -15  165.87   42.66
   6   1  15   64.48   19.47
   6  -1  15  170.65   40.32
  -6  -1  15  218.78   34.15
  -6   1  15   86.83   26.56
  -6  -1 -16   43.57   20.98
  -6   1 -16   50.98   23.05
   6   1  16   14.01   15.15
   6  -1  16   47.65   21.31
  -6  -1  16   96.29   37.09
  -6   1  16   22.60   17.85
  -6   1 -17   29.14   20.00
   6   1  17    4.63   14.16
   6  -1  17   20.22   16.10
  -6  -1  17    7.18   20.07
  -6   1  17   14.98   17.98
  -6  -2   0   59.64   10.77
  -6   2   0   34.82    7.60
   6  -2   0   49.03    7.38
   6   2   0   52.34   10.67
   6  -2   0   58.98   14.50
  -6  -2   0   95.15   20.82
  -6   2   0   50.14   17.15
  -6  -2   1    6.21    3.93
  -6  -2  -1    2.25    9.61
  -6   2   1    9.34    5.55
   6   2  -1    8.46    8.45
  -6   2  -1    8.90    6.20
   6  -2   1   13.58    6.71
   6  -2  -1    7.71    4.22
   6   2  -1   18.68   12.15
   6   2   1   16.53   10.03
   6  -2  -1   20.28   10.06
   6  -2   1   30.19    8.19
  -6  -2   1   25.19   18.24
  -6  -2  -1   -9.25   13.23
  -6   2   1   44.25   19.28
  -6   2  -1   13.91   14.03
  -6  -2   2  149.89   27.73
  -6  -2  -2  137.76   34.68
  -6   2   2  141.91   21.53
   6   2  -2  139.23   13.46
  -6   2  -2  148.76   16.47
   6  -2  -2  132.05   10.66
   6   2  -2  162.92   26.06
   6  -2  -2  140.99   24.76
   6   2   2  126.55   23.31
   6  -2   2  199.74   23.15
  -6  -2   2   92.69   18.83
  -6  -2  -2  115.83   18.33
  -6   2   2  109.56   19.10
  -6   2  -2  187.73   24.07
  -6   2   3   81.01   15.79
  -6  -2  -3  128.40   26.00
   6   2  -3   88.06   16.04
  -6   2  -3   87.56   18.05
   6   2  -3   99.49   16.18
   6   2  -3  107.48   15.97
   6  -2  -3   82.36   20.86
   6   2   3  103.25   19.00
   6  -2   3  131.16   18.81
  -6  -2   3  119.96   20.65
  -6  -2  -3  103.08   15.89
  -6   2   3   73.70   19.18
  -6  -2  -4  443.45   65.19
   6   2  -4  285.33   19.61
  -6   2  -4  318.93   28.41
   6   2  -4  361.98   23.54
   6   2  -4  409.40   31.43
   6  -2  -4  401.84   41.95
   6   2   4  381.00   30.68
   6  -2   4  308.53   28.58
  -6  -2   4  329.36   29.11
  -6  -2  -4  293.12   25.87
  -6   2   4  341.56   29.46
   6   2  -5  247.94   35.85
  -6  -2  -5  367.95   42.33
  -6   2  -5  313.37   27.54
   6   2  -5  326.67   21.42
   6  -2  -5  394.01   74.86
   6   2   5  353.56   26.59
   6  -2   5  451.35   36.52
  -6  -2   5  450.55   35.25
  -6  -2   5  401.05   32.16
  -6  -2  -5  399.24   34.25
  -6   2   5  491.91   37.38
   6   2  -6  169.02   24.93
  -6   2  -6  208.93   21.51
   6   2  -6  218.20   14.45
   6  -2  -6  210.90   27.81
   6   2   6  216.80   18.98
   6  -2   6  258.74   24.87
  -6  -2   6  225.10   23.20
  -6  -2   6  280.64   24.29
  -6  -2  -6  220.89   20.47
  -6   2   6  230.05   22.11
   6   2  -7   79.77   18.41
  -6  -2  -7  100.23   24.85
  -6   2  -7  112.95   26.45
   6   2  -7  111.64   21.07
   6  -2  -7  180.67   25.27
   6   2   7   84.84   19.66
   6  -2   7  172.51   28.47
  -6  -2   7  162.55   24.32
  -6  -2   7  113.25   27.20
  -6  -2  -7  105.45   23.94
  -6   2   7  118.81   28.00
  -6   2  -7  186.99   25.25
   6   2  -8   11.33    4.64
  -6  -2  -8   36.41   16.30
  -6   2  -8   65.15   24.80
   6   2  -8   18.29    6.65
   6   2   8   28.24   11.45
   6  -2   8   68.75   25.06
  -6  -2   8   43.62   17.82
  -6   2   8   26.63   16.19
  -6  -2   8   44.59   19.90
  -6  -2  -8   21.68   10.86
  -6   2   8   37.86   13.62
  -6   2  -8   26.08   11.96
  -6  -2  -9  436.81   40.60
  -6   2  -9  379.01   38.38
   6   2  -9  358.30   26.69
   6   2   9  422.21   35.75
   6  -2   9  329.82   33.54
  -6  -2   9  353.34   35.79
  -6   2   9  408.07   39.64
  -6  -2   9  321.58   31.02
  -6  -2  -9  397.64   34.38
  -6   2   9  325.15   29.79
  -6   2  -9  413.63   34.66
  -6  -2 -10  599.56   52.22
  -6   2 -10  591.79   51.28
   6   2 -10  712.85   49.38
   6   2  10  725.89   55.64
   6  -2  10  685.36   56.08
  -6  -2  10  737.04   64.25
  -6   2  10  700.67   62.88
  -6  -2  10  638.91   50.04
  -6  -2 -10  639.10   48.80
  -6   2  10  714.61   54.78
  -6   2 -10  734.02   56.11
  -6  -2 -11   19.70   16.57
  -6   2 -11    3.34   15.35
   6   2 -11    7.18    3.97
   6  -2  11   51.22   19.65
   6   2  11   27.84   15.15
  -6  -2  11   21.99   15.96
  -6   2  11  -11.68   15.54
  -6  -2  11   36.78   14.13
  -6  -2 -11   33.28   14.33
  -6   2  11   13.32   10.39
  -6   2 -11    5.18    8.99
  -6  -2 -12  141.13   30.85
  -6   2 -12   65.96   20.64
   6  -2  12  155.65   33.59
   6   2  12  127.40   24.07
  -6  -2  12   52.20   18.83
  -6   2  12   79.65   27.26
  -6  -2  12  108.22   23.52
  -6  -2 -12  107.16   20.20
  -6   2  12   63.48   17.46
  -6   2 -12   77.63   18.16
  -6  -2 -13   50.30   20.99
  -6   2 -13   73.05   24.49
   6  -2  13   44.98   19.66
   6   2  13   27.06   12.20
  -6  -2  13   20.02   18.32
  -6   2  13   43.49   17.95
  -6  -2  13   49.49   17.41
  -6   2  13    1.40    7.69
  -6   2 -13   -4.65    7.70
  -6  -2 -14   57.63   17.78
  -6   2 -14   92.22   29.99
   6  -2  14  105.64   27.00
   6   2  14   45.05   20.48
  -6  -2  14  175.02   38.55
  -6   2  14   78.79   20.80
  -6  -2 -15   24.45   16.41
  -6   2 -15   57.68   28.21
   6  -2  15  -17.25   14.69
   6   2  15   -0.97   11.04
  -6  -2  15   19.02   16.57
  -6   2  15   25.93   17.03
  -6  -2 -16  110.51   38.82
  -6   2 -16   68.83   26.09
   6   2  16  148.09   39.96
   6  -2  16  142.51   42.10
  -6   2  16   69.82   26.03
  -6  -2 -17   44.73   26.28
  -6   2 -17   42.48   22.20
   6  -2  17   17.07   16.02
   6   2  17    0.28   13.10
  -6  -2  17    6.31   19.76
  -6   2  17   43.48   20.44
  -6  -3   0   19.55   10.99
  -6   3   0   46.17   12.24
   6  -3   0   13.99    5.99
   6   3   0   26.03   12.30
   6  -3   0   38.44   21.54
  -6  -3   0   15.43   12.41
  -6  -3   1   31.23   11.63
  -6  -3  -1   34.37   13.35
  -6   3   1   62.50   12.21
  -6   3  -1   46.17   10.80
   6  -3   1   39.39   10.34
   6  -3  -1   30.56    7.86
   6   3  -1   33.31   17.45
   6   3   1   57.99   15.45
   6  -3  -1   22.64    6.80
   6  -3   1   41.64   14.47
  -6  -3   1   42.60   16.76
  -6  -3  -1   31.69   20.26
  -6  -3  -2  208.25   39.47
  -6   3   2  169.58   12.80
  -6   3  -2  154.21   15.52
   6  -3  -2  169.79   11.72
   6   3  -2  156.39   19.04
   6  -3  -2  194.57   34.67
   6   3   2  159.54   34.83
   6  -3   2  194.09   23.49
  -6  -3   2  149.72   21.69
  -6  -3  -2  195.96   21.87
  -6  -3  -3   87.98   22.53
  -6   3   3   78.96   16.15
  -6   3  -3  128.22   16.96
   6   3  -3  150.04   15.47
   6  -3  -3  146.15   37.96
   6   3   3  110.15   19.27
   6  -3   3  128.86   20.24
  -6  -3   3  153.52   22.49
  -6  -3  -3  135.82   18.30
  -6   3   3  115.29   19.92
   6   3  -4   54.69   13.50
  -6  -3  -4  124.28   22.31
  -6   3  -4   75.70   17.01
   6   3  -4   43.13   11.65
   6  -3  -4   82.74   20.47
   6   3   4   90.47   19.18
   6  -3   4   81.38   20.57
  -6  -3   4   60.88   16.68
  -6  -3   4   87.70   21.94
  -6  -3  -4   71.39   18.95
  -6   3   4   48.44   14.63
   6   3  -5   61.45   12.91
  -6  -3  -5  142.55   36.07
  -6   3  -5   70.90   16.81
   6   3  -5   74.37   13.76
   6  -3  -5  109.87   22.97
   6   3   5   80.09   16.13
   6  -3   5  110.50   22.93
  -6  -3   5  150.12   24.48
  -6  -3   5  123.84   23.70
  -6  -3  -5  129.96   24.28
  -6   3   5   75.51   18.22
   6   3  -6   57.82   11.95
  -6  -3  -6   95.56   25.72
  -6   3  -6  130.37   23.61
   6   3  -6  132.17   20.09
   6  -3  -6   49.97   15.61
   6   3   6   69.89   14.42
   6  -3   6  120.85   25.87
  -6  -3   6   76.07   17.84
  -6  -3   6  115.38   24.32
  -6  -3  -6  121.17   21.58
  -6   3   6   94.73   22.69
   6   3  -7   43.68   12.06
  -6  -3  -7  110.82   28.57
  -6   3  -7  106.28   26.37
   6   3  -7   86.35   18.04
   6  -3  -7  103.14   26.63
   6   3   7   91.24   21.17
   6  -3   7   90.98   28.28
  -6  -3   7  109.05   25.47
  -6  -3   7   97.07   24.75
  -6  -3  -7   98.26   22.61
  -6   3   7   58.60   21.04
   6   3  -8   15.22    5.82
  -6  -3  -8   34.79   15.64
  -6   3  -8   37.34   22.69
   6   3  -8   17.93    8.14
   6   3   8   15.96    9.58
   6  -3   8   45.91   22.38
  -6  -3   8   23.88   14.29
  -6   3   8   31.17   16.94
  -6  -3   8   34.13   19.26
  -6  -3  -8   75.38   19.09
  -6   3   8   19.10   12.06
  -6  -3  -9  264.20   30.83
  -6   3  -9  345.28   36.29
   6   3  -9  319.91   25.51
   6   3   9  284.82   26.32
   6  -3   9  245.87   29.19
  -6  -3   9  307.20   33.22
  -6   3   9  297.02   33.65
  -6  -3   9  260.57   28.52
  -6  -3  -9  279.39   27.92
  -6   3   9  255.87   28.29
  -6  -3 -10   14.38   15.35
  -6   3 -10   17.07   14.53
   6   3 -10   10.85    6.04
   6   3  10   15.99    9.82
   6  -3  10    1.33   15.03
  -6  -3  10   42.69   17.15
  -6   3  10   36.43   18.84
  -6  -3  10   15.91   12.19
  -6  -3 -10    2.86    9.04
  -6   3  10   34.65   15.15
  -6  -3 -11  192.44   33.93
  -6   3 -11  162.53   31.57
   6   3 -11  120.57   16.86
   6   3  11  171.80   26.52
   6  -3  11  235.54   38.87
  -6  -3  11  106.55   26.30
  -6   3  11  157.94   32.68
  -6  -3  11  136.86   23.70
  -6  -3 -11  180.59   24.44
  -6   3  11  141.98   21.94
  -6  -3 -12   17.69   15.35
  -6   3 -12   15.78   16.39
   6   3  12    0.26   10.36
   6  -3  12   23.24   16.66
  -6  -3  12   34.62   18.30
  -6   3  12    9.36   16.26
  -6  -3  12   33.34   17.26
  -6  -3 -12   14.34    8.86
  -6   3  12   33.94   15.70
  -6   3 -12   17.07    9.95
  -6  -3 -13   77.15   22.99
  -6   3 -13   87.18   26.05
   6   3  13   58.36   16.51
   6  -3  13   60.92   23.38
  -6  -3  13   35.33   17.03
  -6   3  13   36.10   16.83
  -6  -3  13  119.80   24.54
  -6   3  13   81.64   17.15
  -6   3 -13   47.43   14.28
  -6  -3 -14   41.15   24.12
  -6   3 -14   11.40   18.28
   6  -3  14   21.98   16.84
   6   3  14   34.42   13.08
  -6  -3  14   41.11   19.41
  -6   3  14   79.30   28.50
  -6  -3  14   31.96   13.63
  -6  -3 -15   38.54   24.09
  -6   3 -15   67.44   22.56
   6  -3  15  159.35   37.91
   6   3  15   66.00   18.23
  -6  -3  15   85.46   26.73
  -6   3  15   92.85   25.80
  -6   3 -16   29.56   19.07
   6   3  16   71.82   23.80
  -6   3  16   47.30   26.10
  -6  -4   0    5.31    6.01
  -6   4   0   17.61    6.21
   6  -4   0    9.12    5.83
   6   4   0   18.40    9.71
   6  -4   0   28.01    9.59
  -6  -4   1  342.78   28.23
  -6  -4  -1  367.13   55.55
  -6   4   1  348.67   23.15
  -6   4  -1  448.77   30.84
   6  -4  -1  332.14   22.83
   6   4  -1  354.19   27.35
   6   4   1  359.98   29.73
   6  -4  -1  478.41   75.81
   6  -4   1  426.51   64.55
  -6  -4  -1  348.38   32.26
  -6  -4   1  348.63   30.33
  -6  -4  -2   70.43   18.61
  -6   4   2   82.65   14.45
  -6   4  -2  105.32   13.39
   6  -4  -2   89.48   15.37
   6   4  -2   72.30   15.74
   6   4   2   79.44   25.02
   6  -4  -2   83.44   25.11
   6  -4   2  115.96   18.60
  -6  -4   2   71.28   15.53
  -6  -4   2   57.82   18.11
  -6  -4  -2   70.40   18.73
  -6  -4  -3  359.43   48.81
  -6   4   3  338.18   17.42
  -6   4  -3  310.42   23.70
   6   4  -3  312.76   22.77
   6  -4  -3  283.04   14.63
   6  -4  -3  368.66   65.19
   6   4   3  276.84   43.77
   6  -4   3  319.62   28.04
  -6  -4   3  306.41   23.54
  -6  -4   3  286.61   25.31
  -6  -4  -3  296.07   25.98
  -6  -4  -4   44.79   12.25
  -6   4  -4   25.72   11.04
   6   4  -4   16.07   10.12
   6  -4  -4   60.16   20.11
   6   4   4   27.07    9.89
   6  -4   4   48.96   14.88
  -6  -4   4   42.75   12.39
  -6  -4   4   26.84   17.99
  -6  -4  -4   50.68   12.71
  -6  -4  -5  241.68   46.59
  -6   4  -5  242.36   21.69
   6   4  -5  220.50   17.98
   6  -4  -5  207.63   44.58
   6   4   5  279.43   25.56
   6  -4   5  228.95   24.44
  -6  -4   5  252.96   26.08
  -6  -4   5  221.70   23.82
  -6  -4  -5  237.59   23.51
  -6   4   5  227.07   24.52
  -6  -4  -6   33.80   13.93
  -6   4  -6   83.43   24.18
   6   4  -6   16.53    8.08
   6   4   6   37.25   12.49
   6  -4   6   17.74   14.73
  -6  -4   6   70.13   19.65
  -6  -4   6   70.14   25.93
  -6  -4  -6   19.78   11.41
  -6   4   6   21.58   13.83
  -6  -4  -7  126.22   34.87
  -6   4  -7  142.22   29.61
   6   4  -7   88.77   18.14
   6  -4  -7   94.46   21.28
   6   4   7   89.23   17.91
   6  -4   7  126.90   31.27
  -6  -4   7  122.06   26.56
  -6  -4   7  161.78   26.37
  -6  -4  -7  143.96   27.70
  -6   4   7   69.15   21.40
  -6  -4  -8   71.48   20.29
  -6   4  -8   62.32   17.98
   6   4  -8   95.94   15.40
   6   4   8   51.84   12.28
   6  -4   8   46.84   19.78
  -6  -4   8   27.26   13.88
  -6  -4   8   31.30   15.21
  -6  -4  -8   80.95   19.45
  -6   4   8   77.90   18.85
  -6  -4  -9   38.18   21.00
  -6   4  -9   51.29   23.16
   6   4  -9   55.00   14.10
   6   4   9   97.43   18.19
   6  -4   9   83.71   22.54
  -6  -4   9   67.75   16.59
  -6   4   9   97.73   25.49
  -6  -4   9   43.34   16.52
  -6  -4  -9   61.12   15.90
  -6   4   9   21.62   11.58
  -6  -4 -10   40.01   15.99
  -6   4 -10   33.52   17.37
   6   4 -10   31.68   10.91
   6   4  10   57.13   18.16
   6  -4  10   50.40   18.66
  -6  -4  10   47.21   20.10
  -6   4  10   97.00   24.45
  -6  -4  10   37.63   15.09
  -6  -4 -10   35.32   12.18
  -6   4  10   24.47   11.27
  -6  -4 -11   29.25   14.13
  -6   4 -11   35.67   17.22
   6   4 -11   34.33   11.51
   6   4  11   43.46   15.28
   6  -4  11   22.51   16.48
  -6  -4  11   31.15   18.72
  -6   4  11   60.38   25.83
  -6  -4  11   56.88   16.61
  -6  -4 -11   36.23   11.48
  -6   4  11   60.43   17.44
  -6  -4 -12   31.97   10.21
  -6   4 -12   44.96   16.86
   6   4 -12   50.70   13.24
   6   4  12   48.45   17.70
   6  -4  12    2.61   15.79
  -6  -4  12   31.20   15.31
  -6   4  12   10.81   17.83
  -6  -4  12   42.43   16.95
  -6   4  12   40.96   15.97
  -6  -4 -13   47.66   24.66
  -6   4 -13   46.99   16.72
   6   4  13   13.83   10.45
   6  -4  13   48.93   17.78
  -6  -4  13   40.60   17.19
  -6   4  13   49.80   23.66
  -6  -4  13   13.12    9.93
  -6   4  13   40.01   11.12
  -6  -4 -14   24.07   13.94
  -6   4 -14   53.12   28.70
   6   4  14   28.81   10.57
   6  -4  14   26.70   17.43
  -6  -4  14   32.66   22.04
  -6   4  14   93.47   30.75
  -6  -4  14   45.10   18.08
  -6  -4 -15   35.89   20.13
  -6   4 -15   54.31   24.29
   6  -4  15   19.75   18.89
   6   4  15   31.18   11.99
  -6  -4  15   37.70   21.00
  -6   4  15  126.89   38.57
  -6  -4 -16    3.10   16.46
  -6   4 -16   44.34   20.91
   6  -4  16   37.75   26.36
  -6  -4  16   39.03   24.66
  -6   4  16   62.62   23.83
  -6  -5   0   12.44   12.34
  -6   5   0    7.96    6.53
   6  -5   0   19.51    7.03
   6   5   0   14.46    6.32
   6  -5   0   33.54   10.13
  -6  -5   0   39.06   14.63
  -6  -5   1  152.33   23.47
  -6  -5  -1  194.13   45.97
  -6   5  -1  208.17   19.01
  -6   5   1  171.87   14.26
   6  -5  -1  161.24   29.82
   6   5   1  152.67   29.24
   6  -5  -1  181.13   32.35
   6  -5   1  209.65   25.01
  -6  -5  -1  137.25   19.96
  -6  -5   1  173.88   15.97
  -6  -5   1  211.69   24.60
  -6  -5  -1  186.98   23.28
  -6  -5  -2  807.84   68.67
  -6   5  -2  927.20   49.62
  -6   5   2  683.06   34.19
   6  -5  -2  760.61   37.10
   6   5  -2  833.14   45.32
   6   5   2  680.83   68.13
   6  -5   2  862.35   50.96
  -6  -5  -2  774.62   40.11
  -6  -5   2  717.92   39.46
  -6  -5   2  650.95   43.58
  -6  -5  -2  802.80   46.81
  -6  -5  -3   65.46   16.83
  -6   5  -3   86.06   17.44
  -6   5   3   96.50   14.00
   6   5  -3   96.91   18.42
   6  -5  -3   55.17    8.58
   6   5   3   75.07   17.06
   6  -5  -3  107.43   30.82
   6  -5   3   75.98   19.19
  -6  -5  -3   92.11   15.31
  -6  -5   3   96.01   21.16
  -6  -5   3  133.60   25.71
  -6  -5  -3  115.16   23.10
  -6   5   4   32.32    8.82
  -6  -5  -4   20.51   10.50
  -6   5   4   48.43    9.75
  -6   5  -4   28.11   12.49
   6   5  -4   52.16   14.98
   6  -5  -4   35.20   16.15
   6   5   4   39.78   12.70
   6  -5   4   36.95   15.71
  -6  -5  -4   44.52   11.43
  -6  -5   4   60.33   18.05
  -6  -5   4   38.94   20.94
  -6  -5  -4   38.38   14.05
  -6  -5  -5  168.27   34.03
  -6   5  -5  205.67   22.83
   6   5  -5  173.14   19.04
   6  -5  -5  148.38   28.57
   6   5   5  128.17   41.80
   6  -5   5  148.81   25.60
  -6  -5  -5  144.65   13.99
  -6  -5   5  221.93   25.97
  -6  -5   5  226.75   27.37
  -6  -5  -5  197.17   24.06
  -6  -5  -6  327.54   46.44
  -6   5  -6  306.09   29.93
   6   5  -6  223.25   20.85
   6  -5  -6  264.76   44.78
   6   5   6  303.89   24.77
   6  -5   6  270.51   32.14
  -6  -5   6  335.53   29.83
  -6  -5   6  298.40   31.93
  -6  -5  -6  302.75   31.97
  -6  -5  -7   43.82   25.49
  -6   5  -7   15.21   15.90
   6   5  -7   54.72   14.70
   6  -5  -7   67.56   24.40
   6   5   7   51.72   12.85
   6  -5   7   84.68   26.76
  -6  -5   7   64.96   19.96
  -6  -5   7   41.29   21.42
  -6  -5  -7    8.99    9.91
  -6   5   7   10.26   13.23
  -6  -5  -8  159.90   35.43
  -6   5  -8  188.52   26.39
   6   5  -8  220.09   21.85
   6  -5  -8  179.63   25.47
   6   5   8  219.13   20.75
   6  -5   8  206.02   30.71
  -6  -5   8  149.85   22.94
  -6  -5   8  164.24   25.07
  -6  -5  -8  157.43   19.99
  -6   5   8  173.05   21.72
  -6  -5  -9   26.83   13.08
  -6   5  -9   27.36   15.62
   6   5  -9   20.26   12.70
   6   5   9   30.71   11.22
   6  -5   9   29.28   19.91
  -6  -5   9   41.79   20.00
  -6   5   9   48.50   24.91
  -6  -5   9   22.11   15.19
  -6  -5  -9   13.35   13.19
  -6   5   9   26.95   12.34
  -6  -5 -10  107.83   23.30
  -6   5 -10  107.73   22.50
   6   5 -10  151.68   22.79
   6   5  10  131.55   20.47
   6  -5  10   85.79   23.25
  -6  -5  10  153.40   27.38
  -6   5  10  106.43   26.71
  -6  -5  10  106.11   23.63
  -6  -5 -10  132.46   22.20
  -6   5  10  102.84   20.02
  -6  -5 -11   39.67   10.93
  -6   5 -11   26.42   17.40
   6   5 -11   31.59   13.67
   6   5  11   50.11   14.44
   6  -5  11   91.31   28.77
  -6  -5  11   13.08   14.88
  -6   5  11   77.83   26.26
  -6  -5  11   10.62   12.05
  -6  -5 -11    0.53    6.29
  -6   5  11   78.12   21.03
  -6  -5 -12   31.80   10.36
  -6   5 -12  141.49   29.27
   6   5 -12   34.59   10.40
   6   5  12   18.62    8.16
   6  -5  12    8.76   15.74
  -6  -5  12   59.78   17.34
  -6   5  12   41.85   15.87
  -6  -5  12   82.08   19.13
  -6   5  12   74.66   18.21
  -6  -5 -13    9.15   10.44
  -6   5 -13   34.62   16.45
   6   5  13   13.73    8.77
   6  -5  13   37.76   18.70
  -6  -5  13   35.50   18.57
  -6   5  13   30.48   25.16
  -6  -5  13   48.48   19.55
  -6  -5 -14   24.67   23.02
  -6   5 -14   33.12   16.45
   6  -5  14   85.03   25.09
  -6  -5  14   46.92   24.33
  -6   5  14   46.74   24.95
  -6  -5  14   56.00   16.79
  -6   5 -15   33.71   19.73
   6  -5  15   33.42   24.01
  -6  -5  15   45.70   16.50
  -6   5  15   36.48   18.70
  -6  -5  15   33.09   14.64
  -6  -5 -16   64.06   24.82
  -6   5 -16   34.08   18.98
   6  -5  16  100.99   29.43
  -6  -5  16   38.72   17.92
  -6   5  16   38.46   17.18
  -6  -6   0   33.36   12.68
  -6   6   0   27.65   11.77
   6  -6   0   21.19   14.85
  -6  -6   0    5.16    5.01
  -6  -6   0   15.77   10.30
  -6  -6   0    4.56   12.76
  -6  -6  -1  417.81   87.50
  -6   6  -1  425.62   31.72
  -6   6   1  472.71   33.65
   6  -6  -1  388.72   27.93
   6   6  -1  551.40   42.28
   6  -6  -1  539.51   97.59
  -6  -6  -1  353.25   24.70
  -6  -6   1  446.80   32.30
  -6  -6  -1  492.58   33.25
  -6  -6  -1  481.30   39.53
  -6  -6   1  437.84   36.89
  -6  -6  -2  131.53   39.77
  -6   6  -2  154.18   17.98
  -6   6   2  187.92   15.83
   6  -6  -2  124.25   23.58
   6   6  -2  187.38   20.83
   6   6   2  181.39   15.85
   6  -6  -2  203.49   39.82
   6  -6   2  261.53   29.86
  -6  -6  -2  173.40   14.58
  -6  -6   2  198.36   19.06
  -6  -6  -2  197.24   23.03
  -6  -6   2  129.80   28.59
  -6   6   3   70.02   14.12
  -6  -6  -3  119.56   32.13
  -6   6  -3   52.62   15.45
  -6   6   3   71.09   14.91
   6   6  -3   74.51   18.34
   6   6   3   60.86   15.47
   6  -6  -3   85.36   23.41
   6  -6   3  145.84   21.50
  -6  -6  -3   53.48   12.03
  -6  -6   3  122.80   26.06
  -6  -6   3   70.44   23.97
  -6  -6  -3   92.39   22.61
  -6   6   4   79.70   27.11
  -6  -6  -4  251.40   45.20
  -6   6  -4  234.34   25.73
  -6   6   4  169.71   13.90
   6   6  -4  188.22   20.63
   6   6   4  137.83   32.04
   6  -6  -4  201.82   51.17
   6  -6   4  145.72   19.44
  -6  -6  -4  156.30   13.67
  -6  -6   4  235.59   22.16
  -6  -6   4  173.05   29.19
  -6  -6  -4  199.08   27.13
  -6  -6  -5  272.11   60.05
  -6   6  -5  276.34   29.00
  -6   6   5  238.10   15.63
   6   6  -5  211.84   23.87
   6  -6  -5  239.09   60.33
   6   6   5  226.68   40.97
   6  -6   5  300.93   34.20
  -6  -6  -5  213.97   16.89
  -6  -6   5  258.32   25.74
  -6  -6   5  228.66   29.08
  -6  -6  -5  303.13   29.06
  -6  -6  -6   29.55   12.35
  -6   6  -6   16.27   14.10
   6   6  -6   22.36   10.78
   6  -6  -6   25.55    9.40
   6   6   6    3.60    5.65
   6  -6   6   47.61   23.96
  -6  -6   6    3.66   11.61
  -6  -6   6   16.97   15.30
  -6  -6  -6    6.00   11.04
  -6  -6  -7  170.73   50.92
  -6   6  -7  196.62   29.15
   6   6  -7  195.05   23.34
   6  -6  -7  232.89   46.47
   6   6   7  144.54   30.80
   6  -6   7  156.81   22.31
  -6  -6   7  184.81   25.20
  -6  -6   7  174.45   24.35
  -6  -6  -7  202.19   25.07
  -6  -6  -8   37.77   13.75
  -6   6  -8   60.94   18.91
   6   6  -8   15.72    9.52
   6  -6  -8   22.83   14.95
   6   6   8   25.34    8.54
   6  -6   8   67.17   22.00
  -6  -6   8   24.28   12.47
  -6  -6   8   12.18   15.40
  -6  -6  -8   64.05   20.27
  -6  -6  -9   29.06   12.88
  -6   6  -9   47.14   19.07
   6   6  -9   39.54   14.87
   6   6   9   42.68   13.15
   6  -6   9   -1.29   15.80
  -6  -6   9   35.21   19.69
  -6   6   9   36.30   16.67
  -6  -6   9   42.31   18.08
  -6  -6  -9   36.50   14.81
  -6   6   9   10.97   11.66
  -6  -6 -10   55.05   15.30
  -6   6 -10   24.59   16.48
   6   6 -10   35.41   13.61
   6   6  10   24.10   10.93
   6  -6  10   23.94   17.65
  -6  -6  10   31.37   14.13
  -6   6  10   25.06   17.78
  -6  -6  10    9.29   14.08
  -6  -6 -10   66.82   18.00
  -6   6  10   21.06   15.68
  -6  -6 -11  101.74   42.63
  -6   6 -11   49.67   19.54
   6   6 -11   87.84   22.06
   6  -6  11  198.39   40.08
  -6  -6  11   95.62   25.11
  -6   6  11  149.48   34.17
  -6  -6  11   64.57   19.20
  -6  -6 -11   29.79    9.15
  -6   6  11   77.58   18.88
  -6  -6 -12   79.43   20.00
  -6   6 -12   34.87   21.47
   6   6 -12   80.61   20.83
   6  -6  12   61.94   19.30
  -6  -6  12   80.33   22.70
  -6   6  12   60.54   16.20
  -6  -6  12   30.36   13.02
  -6   6  12   77.34   17.14
  -6   6 -13  135.05   38.53
   6  -6  13   80.25   30.68
  -6  -6  13   84.04   27.01
  -6   6  13   21.92   15.81
  -6  -6  13   55.50   16.33
  -6   6 -14   45.46   17.12
   6  -6  14   54.93   20.85
  -6  -6  14  127.55   33.81
  -6   6  14   70.86   27.85
  -6  -6  14   50.81   19.61
  -6  -6 -15   11.28    7.44
  -6   6 -15   42.03   19.09
   6  -6  15   24.61   18.38
  -6  -6  15   20.04   17.04
  -6   6  15   39.10   22.42
  -6  -6  15   19.94   12.12
  -6   7   0   36.16   14.96
   6  -7   0   46.92   16.38
  -6  -7   0   16.87    6.83
  -6  -7   0   40.96   10.81
  -6  -7   0   50.25   21.06
  -6  -7  -1  554.31   44.38
  -6   7  -1  498.04   36.46
  -6   7   1  553.48   37.44
   6   7  -1  508.42   39.40
   6  -7  -1  592.51   84.67
   6  -7   1  521.34   41.13
  -6  -7  -1  409.76   26.69
  -6  -7   1  562.59   36.27
  -6  -7  -1  515.26   32.25
  -6  -7  -1  509.18   41.26
  -6  -7  -2  509.89   85.03
  -6   7  -2  495.84   36.31
  -6   7   2  457.60   31.76
   6   7  -2  471.58   36.72
   6  -7  -2  480.27   91.35
   6  -7   2  466.28   39.02
  -6  -7   2  470.77   33.31
  -6  -7  -2  466.71   28.94
  -6  -7   2  409.76   35.51
  -6  -7  -2  614.93   47.69
  -6   7   3  145.14   23.12
  -6  -7  -3  155.69   30.94
  -6   7  -3  242.17   24.44
  -6   7   3  140.80   24.17
   6   7  -3  196.55   22.57
   6  -7  -3  163.82   42.82
   6  -7   3  176.85   22.97
  -6  -7  -3  127.56   22.38
  -6  -7   3  161.31   17.09
  -6  -7  -3  181.41   13.76
  -6  -7   3  233.29   30.26
  -6  -7  -3  169.85   25.35
  -6  -7  -4    4.53    8.01
  -6   7  -4   43.17   14.97
   6   7  -4   60.35   20.53
   6   7   4    6.36    3.54
   6  -7  -4   29.37   13.40
  -6  -7   4   42.28   15.85
  -6  -7  -4   29.82   18.88
  -6  -7   4   26.06   20.73
  -6  -7  -5   45.96   15.82
  -6   7  -5   41.81   19.68
  -6   7   5   18.89    6.51
   6   7  -5   25.04   16.92
   6   7   5   24.26    6.80
   6  -7  -5   58.38   21.75
   6  -7   5   63.96   17.09
  -6  -7   5   30.12   11.29
  -6  -7   5  114.54   29.53
  -6  -7  -5   41.16   13.85
  -6  -7  -6  235.28   40.41
  -6   7  -6  253.65   29.50
  -6   7   6  254.57   19.10
   6   7  -6  252.97   26.05
   6  -7  -6  254.76   46.63
   6   7   6  194.13   29.39
   6  -7   6  209.27   28.13
  -6  -7   6  279.14   27.49
  -6  -7   6  288.52   32.41
  -6  -7  -6  225.05   25.69
  -6  -7  -7   30.72   17.57
  -6   7  -7   65.95   21.60
   6   7  -7   16.98   11.73
   6  -7  -7   50.03   21.96
   6  -7   7  115.31   25.42
  -6  -7   7   69.55   19.39
  -6  -7   7   65.34   25.20
  -6  -7  -7   16.68   16.70
  -6  -7  -8   96.86   29.83
  -6   7  -8  142.22   23.06
   6   7  -8   94.82   18.69
   6  -7  -8  191.91   30.00
   6  -7   8   98.31   21.11
  -6  -7   8  137.40   22.20
  -6  -7   8  113.00   25.54
  -6  -7  -8  154.94   28.46
  -6  -7  -9   77.15   24.73
  -6   7  -9   82.41   20.99
   6   7  -9  155.94   28.72
   6  -7   9  116.17   25.95
  -6  -7   9  168.52   34.63
  -6   7   9   95.19   22.63
  -6  -7   9  187.88   36.79
  -6  -7  -9   86.82   20.00
  -6  -7 -10   87.45   21.16
  -6   7 -10  130.52   30.04
   6   7 -10   71.64   17.56
   6  -7  10  180.79   36.80
  -6  -7  10   66.84   21.74
  -6   7  10  165.79   32.70
  -6  -7 -10   85.98   21.54
  -6  -7  10   53.28   18.79
  -6   7  10   99.57   21.89
  -6  -7 -11   24.35   16.22
  -6   7 -11   63.04   18.83
   6   7 -11   48.13   17.38
   6  -7  11   95.04   23.19
  -6  -7  11   64.68   23.60
  -6   7  11   85.41   19.64
  -6  -7  11   77.51   19.82
  -6  -7 -11   49.79   14.34
  -6   7  11   50.66   17.15
  -6  -7 -12   65.98   35.02
  -6   7 -12  139.49   39.19
   6   7 -12   90.68   24.06
   6  -7  12  173.82   45.37
  -6  -7  12   98.49   30.27
  -6   7  12   59.24   26.85
  -6  -7  12   98.35   27.44
  -6   7  12   94.18   22.72
  -6  -7 -13   63.42   20.52
  -6   7 -13   10.20   17.23
   6   7 -13   33.14   12.21
   6  -7  13   77.16   24.88
  -6  -7  13   66.93   27.51
  -6   7  13   46.75   23.16
  -6  -7  13   56.69   18.18
  -6   7 -14   62.82   28.06
   6  -7  14   80.94   32.13
  -6   7  14   53.88   20.64
  -6  -7  14   24.20   15.55
  -6  -7 -15   50.18   18.27
  -6   7 -15   49.67   19.47
   6  -7  15   58.88   21.20
  -6  -7  15   53.11   21.26
  -6   7  15   29.55   16.15
  -6  -7  15   58.47   20.61
  -6   8   0   15.40   10.97
   6   8   0   19.65   13.36
   6  -8   0   57.85   19.55
  -6  -8   0   11.74    6.13
  -6  -8   0   35.86   20.64
  -6  -8  -1  121.32   22.73
  -6   8  -1   74.20   18.47
  -6   8   1   57.04   13.43
   6   8  -1   85.81   19.61
   6  -8  -1  109.32   30.93
   6  -8   1   58.35   17.12
  -6  -8  -1   54.45   10.11
  -6  -8   1   95.09   11.49
  -6  -8   1  103.73   22.37
  -6  -8  -1   46.42   22.55
  -6  -8  -2  540.07   46.26
  -6   8  -2  607.56  101.22
  -6   8   2  480.88   37.11
   6   8  -2  505.24   43.39
   6  -8  -2  595.10  111.08
   6  -8   2  543.56   47.71
  -6  -8   2  590.15   43.73
  -6  -8  -2  521.10   34.58
  -6  -8   2  576.58   53.89
  -6  -8  -2  569.12   53.01
  -6  -8  -3  347.54   53.36
  -6   8  -3  358.03   33.02
  -6   8   3  348.73   27.86
   6   8  -3  301.82   29.75
   6  -8  -3  297.34   63.65
   6  -8   3  326.37   36.06
  -6  -8   3  295.76   25.97
  -6  -8  -3  332.82   33.62
  -6  -8   3  425.51   43.70
  -6  -8  -4   37.62   16.49
  -6   8  -4   37.17   20.05
  -6   8   4   42.96   11.04
   6   8  -4   56.81   19.19
   6  -8  -4   15.43    7.04
   6  -8   4   61.11   22.77
  -6  -8   4   51.31   14.60
  -6  -8   4   56.42   24.89
  -6  -8  -4   77.68   25.26
  -6  -8  -5  140.85   26.09
  -6   8  -5  190.77   24.59
  -6   8   5  105.88   11.97
   6   8  -5  120.57   20.12
   6  -8  -5  163.68   34.28
   6  -8   5   98.74   22.36
  -6  -8   5  169.34   21.72
  -6  -8   5  254.70   34.41
  -6  -8  -5  154.20   24.87
  -6  -8  -6   60.96   28.76
  -6   8  -6   40.92   16.33
  -6   8   6    0.56    3.70
   6   8  -6   35.28   17.70
   6  -8  -6   82.44   19.59
   6  -8   6   39.64   17.00
  -6  -8   6   66.79   15.78
  -6  -8  -6   15.84   12.15
  -6  -8  -7   52.80   16.45
  -6   8  -7  117.75   25.69
   6   8  -7   50.74   20.03
   6  -8  -7   84.00   18.04
   6  -8   7   81.98   22.55
  -6  -8   7   34.30   17.26
  -6  -8   7  110.92   27.59
  -6  -8  -7   56.62   20.52
  -6  -8  -8  153.09   41.40
  -6   8  -8  101.26   22.82
   6   8  -8  101.83   22.85
   6  -8  -8   39.43   20.06
  -6  -8   8   94.05   21.56
  -6  -8  -8  109.70   25.39
  -6  -8   8  123.34   29.58
  -6  -8  -9   64.86   22.50
  -6   8  -9   99.91   25.77
   6   8  -9   99.14   25.24
   6  -8   9   55.72   18.36
  -6  -8   9   96.70   24.78
  -6  -8   9   81.86   20.74
  -6  -8  -9   89.17   19.41
  -6  -8 -10   59.36   15.00
  -6   8 -10   31.40   14.80
   6   8 -10   23.54   12.81
   6  -8  10  105.51   27.99
  -6  -8  10   21.98   18.42
  -6   8  10   -2.22   13.94
  -6  -8  10   -2.66   12.46
  -6  -8 -10    1.63    9.18
  -6  -8 -11   95.94   25.64
  -6   8 -11   59.60   24.85
   6   8 -11   87.65   22.62
   6  -8  11   87.42   26.91
  -6  -8  11   36.07   14.61
  -6   8  11   71.55   19.33
  -6  -8  11   56.08   23.63
  -6   8  11   95.92   20.14
  -6  -8 -12   42.54   15.88
  -6   8 -12   15.45   16.20
   6   8 -12   54.12   19.73
   6  -8  12   36.77   18.02
  -6  -8  12   19.81   15.24
  -6   8  12   48.91   23.32
  -6  -8  12   37.44   19.99
  -6   8  12   31.92   11.75
  -6  -8 -13   28.32   17.69
  -6   8 -13   68.30   31.94
   6   8 -13   14.99   17.34
   6  -8  13   10.98   18.99
  -6  -8  13   -3.99   14.47
  -6   8  13    5.20   14.89
  -6  -8  13   72.21   26.19
  -6  -8 -14   45.74   17.74
  -6   8 -14   83.39   28.78
   6  -8  14   57.67   23.35
  -6  -8  14   44.48   18.06
  -6   8  14   18.98   17.70
  -6  -8  14    6.45   13.43
  -6   9   0  101.20   17.33
   6   9   0   88.14   17.92
   6  -9   0   97.46   22.74
  -6  -9   0  124.11   27.36
  -6   9  -1  117.91   16.29
  -6   9   1  122.11   18.22
   6   9  -1  103.29   19.13
   6   9   1  150.49   26.19
   6  -9  -1  127.30   25.60
   6  -9   1  112.95   28.95
  -6  -9   1  107.88   12.59
  -6  -9  -1  129.80   25.82
  -6  -9   1  126.29   23.22
  -6  -9  -2  308.60   32.81
  -6   9  -2  299.42   28.94
  -6   9   2  294.43   27.77
   6   9  -2  374.77   38.74
   6  -9  -2  234.11   61.93
   6  -9   2  368.71   38.60
  -6  -9   2  344.22   27.33
  -6  -9  -2  303.76   32.97
  -6  -9   2  233.00   32.96
  -6  -9  -3   13.94   13.98
  -6   9  -3   15.25   12.42
  -6   9   3   58.34   15.65
   6   9  -3   11.59   15.68
   6  -9  -3   22.34   11.85
   6  -9   3    5.26   14.34
  -6  -9   3    8.71    5.68
  -6  -9  -3   52.13   19.50
  -6  -9   3  -13.51   15.62
  -6  -9  -4  193.42   47.76
  -6   9  -4  169.68   26.61
  -6   9   4  182.93   22.82
   6   9  -4  228.84   31.64
   6  -9  -4  173.70   52.60
   6  -9   4  116.06   23.07
  -6  -9   4  149.10   19.70
  -6  -9  -4  116.53   27.42
  -6  -9   4  145.09   28.91
  -6  -9  -5   51.88   28.37
  -6   9  -5   29.70   15.09
  -6   9   5   56.39   14.72
   6   9  -5   91.78   20.83
   6  -9  -5   71.50   29.24
   6  -9   5  106.05   28.40
  -6  -9   5   36.56   13.76
  -6  -9  -5   91.57   22.72
  -6  -9   5   28.91   18.43
  -6  -9  -6  137.73   48.84
  -6   9  -6  184.31   36.88
   6   9  -6  127.74   26.13
   6  -9  -6   89.42   32.73
   6  -9   6  127.70   28.01
  -6  -9   6   59.47   16.07
  -6  -9   6  116.73   31.11
  -6  -9  -6  121.18   24.80
  -6  -9  -7   32.73   13.55
  -6   9  -7   46.33   20.47
   6   9  -7   38.78   14.48
   6  -9  -7   49.51   16.95
   6  -9   7   16.59   15.66
  -6  -9   7    3.96    9.44
  -6  -9  -7   35.71   17.26
  -6  -9   7   26.41   16.42
  -6  -9  -8   82.92   25.50
  -6   9  -8   46.05   20.23
   6   9  -8   21.87   12.57
   6  -9  -8   26.01   13.78
   6  -9   8   31.84   16.53
  -6  -9   8   25.14   12.67
  -6  -9   8   24.12   15.81
  -6  -9  -8   24.86   15.91
  -6  -9  -9    7.06   16.30
  -6   9  -9   30.78   14.71
   6   9  -9   21.54   12.20
   6  -9   9   33.33   20.19
  -6  -9   9   10.74   11.58
  -6  -9   9  -13.74   14.34
  -6  -9  -9   37.12   11.42
  -6  -9 -10   21.79   11.21
  -6   9 -10   69.54   22.72
   6   9 -10   52.20   21.82
   6  -9  10   12.89   17.20
  -6  -9  10   56.79   21.26
  -6   9  10   27.44   15.91
  -6  -9 -10   10.09   10.12
  -6  -9  10   70.26   21.00
  -6  -9 -11   12.47    9.49
  -6   9 -11   -0.64   16.37
   6   9 -11   17.05   12.12
   6  -9  11   -8.74   14.37
  -6  -9  11   -0.84   13.13
  -6   9  11   28.39   15.43
  -6  -9  11   21.07   16.09
  -6  -9 -12   30.12   13.09
  -6   9 -12   36.16   17.59
   6   9 -12   31.40   17.29
  -6  -9  12   -1.76   13.48
  -6   9  12   59.69   25.99
  -6  -9  12   29.81   14.78
  -6   9 -13   12.01   17.02
   6   9 -13   28.16   13.24
   6  -9  13   20.37   18.98
  -6  -9  13   17.22   14.68
  -6   9  13   22.35   14.97
  -6  -9  13   20.36   13.49
  -6  10   0   30.69   15.45
   6  10   0   56.15   22.52
   6 -10   0   11.77    9.81
  -6 -10   0   -2.86   15.46
  -6  10  -1  136.37   24.06
  -6  10   1  146.89   24.44
   6  10  -1  126.34   26.34
   6  10   1  160.22   27.06
   6 -10  -1  113.76   30.67
   6 -10   1  158.72   41.58
  -6 -10  -1  133.72   27.52
  -6 -10   1  111.14   23.15
  -6  10  -2   33.21   19.19
  -6  10   2   24.05   13.39
   6  10  -2   29.05   22.23
   6  10   2   38.58   22.33
   6 -10  -2   -0.62   13.92
   6 -10   2    4.72   13.36
  -6 -10  -2   -3.41   12.37
  -6 -10   2   24.29   16.26
  -6 -10  -3   72.96   23.58
  -6  10  -3  100.19   24.40
  -6  10   3   97.90   21.24
   6  10  -3   59.13   22.45
   6 -10  -3  105.55   28.61
   6 -10   3   81.01   23.58
  -6 -10   3   31.42    8.08
  -6 -10   3   52.71   18.31
  -6 -10  -3   80.77   22.35
  -6 -10  -4   69.67   24.06
  -6  10  -4   33.94   13.96
  -6  10   4   30.78    8.60
   6  10  -4   84.29   22.98
   6 -10  -4   47.87   12.08
   6 -10   4   62.53   18.08
  -6 -10   4   19.87    9.12
  -6 -10   4   88.31   26.64
  -6 -10  -4   99.77   24.40
  -6 -10  -5  131.88   39.06
  -6  10  -5  145.13   32.94
   6  10  -5  112.27   25.72
   6 -10  -5  131.04   38.18
   6 -10   5  146.44   31.35
  -6 -10   5  169.55   28.74
  -6 -10   5  100.52   23.61
  -6 -10  -5  140.63   29.37
  -6 -10  -6  122.42   26.22
  -6  10  -6   69.41   21.71
   6  10  -6   72.96   21.52
   6 -10  -6   60.51   19.70
   6 -10   6  107.62   29.94
  -6 -10   6   62.21   18.54
  -6 -10  -6   54.16   18.71
  -6 -10   6   75.44   25.04
  -6 -10  -7   49.58   27.06
  -6  10  -7   44.65   21.45
   6  10  -7   55.44   20.09
   6 -10  -7   29.91   11.02
   6 -10   7  132.40   29.67
  -6 -10   7   39.50   10.89
  -6 -10  -7   18.98   13.54
  -6 -10   7  147.62   34.73
  -6 -10  -8   67.46   27.76
  -6  10  -8   48.37   18.87
   6  10  -8   32.98   14.44
   6 -10  -8    1.05   13.28
   6 -10   8   58.47   17.92
  -6 -10   8   41.56   18.48
  -6 -10   8   38.81   23.28
  -6 -10  -8  106.90   25.58
  -6 -10  -9   25.19   13.44
  -6  10  -9   23.03   15.19
   6  10  -9   36.34   13.51
   6 -10   9   19.91   17.07
  -6 -10   9   18.92   12.41
  -6 -10  -9   22.72   15.81
  -6 -10   9   38.89   16.28
  -6 -10 -10   73.09   20.94
  -6  10 -10   66.88   22.65
   6  10 -10   60.75   22.55
   6 -10  10  118.66   35.43
  -6 -10  10   39.88   13.39
  -6  10  10   72.71   22.08
  -6 -10 -10   52.81   18.65
  -6 -10  10   45.74   17.64
  -6 -10 -11   82.06   53.86
  -6  10 -11  209.84   56.95
   6  10 -11   58.14   23.44
   6 -10  11   68.32   30.80
  -6 -10  11   44.96   15.32
  -6  10  11   63.72   22.69
  -6 -10 -12   27.19   22.29
  -6  10 -12   53.42   21.31
   6  10 -12   18.04   12.18
   6 -10  12   43.70   19.64
  -6 -10  12    4.08   13.00
  -6  10  12   45.24   24.90
  -6 -10  12   18.06   20.51
  -6  11   0   67.53   17.57
   6  11   0   46.42   15.63
   6 -11   0   57.78   18.32
  -6 -11   0   95.10   31.09
  -6  11  -1   26.90   11.29
  -6  11   1   16.95   10.04
   6  11  -1   -8.35   12.45
   6  11   1   16.78   14.99
   6 -11  -1    0.43    8.13
   6 -11   1   29.73   13.20
  -6 -11   1    5.63   16.27
  -6 -11  -1   36.19   21.18
  -6  11  -2   25.57   11.57
  -6  11   2   10.18   10.30
   6  11  -2   15.26   16.82
   6  11   2    5.87   15.96
   6 -11  -2   30.82    9.30
   6 -11   2   28.99   20.95
  -6 -11  -2    9.27   14.20
  -6  11  -3   12.59   12.21
  -6  11   3   26.45    9.33
   6  11  -3   50.80   18.05
   6  11   3   57.13   25.52
   6 -11  -3   30.69   11.36
   6 -11   3   11.06   15.41
  -6 -11   3   26.70   14.97
  -6 -11  -3   34.75   17.92
  -6  11  -4   18.80   18.31
  -6  11   4   41.22   10.38
   6  11  -4   75.65   22.76
   6 -11  -4   69.16   19.12
   6 -11   4   43.14   16.18
  -6 -11  -4   44.00   21.24
  -6 -11   4   89.53   26.50
  -6 -11  -5    0.63   13.08
  -6  11  -5   26.62   14.21
   6  11  -5   16.53   15.34
   6 -11  -5   19.99   14.94
   6 -11   5   13.24   14.77
  -6 -11   5   47.68   24.42
  -6 -11  -5   39.47   21.69
  -6 -11  -6   13.47   15.13
  -6  11  -6   44.99   17.28
   6  11  -6   19.55   15.25
   6 -11  -6    8.93   12.14
   6 -11   6   38.55   17.77
  -6 -11  -6   29.33   15.06
  -6 -11   6   79.61   25.29
  -6 -11  -7   27.17   16.39
  -6  11  -7   15.10   14.65
   6  11  -7    6.44   12.89
   6 -11  -7   27.25   12.07
   6 -11   7    2.63   16.95
  -6 -11  -7   17.05   12.93
  -6 -11   7   93.33   29.84
  -6 -11  -8   49.35   14.24
  -6  11  -8   11.30   15.13
   6  11  -8    8.08   14.09
   6 -11  -8   37.52   18.43
   6 -11   8   14.65   16.57
  -6 -11   8   12.65   10.17
  -6 -11  -8   24.46   13.82
  -6 -11   8   53.03   21.15
  -6 -11  -9   91.11   26.60
  -6  11  -9  118.43   37.54
   6  11  -9  152.06   42.60
   6 -11   9  154.37   44.90
  -6 -11   9  131.23   39.17
  -6 -11  -9   38.29   13.90
  -6 -11   9   99.23   32.81
  -6 -11 -10   69.58   24.99
  -6  11 -10   29.30   16.20
   6  11 -10   19.17   12.42
   6 -11  10   22.49   17.43
  -6 -11  10   52.46   21.64
  -6  11  10   -3.59   13.21
  -6 -11  10   -0.47   16.01
  -6 -11 -11   41.88   26.09
  -6  11 -11   77.89   31.08
   6  11 -11   20.65   13.48
   6 -11  11   49.72   19.44
  -6 -11  11   16.48   12.52
  -6  11  11   28.46   15.04
  -6 -11  11   35.45   15.47
  -6  12   0   26.14   13.51
   6  12   0   76.82   26.10
   6 -12   0   24.06   19.09
  -6 -12   0   -7.31   13.96
  -6  12  -1   54.23   18.85
  -6  12   1    3.45    9.70
   6  12  -1   11.42   16.97
   6  12   1   55.54   18.09
   6 -12  -1   29.03    8.05
   6 -12   1   77.01   27.90
  -6 -12   1   81.77   23.25
  -6 -12  -1   43.84   23.83
  -6  12  -2   52.67   19.82
  -6  12   2   42.04   13.44
   6  12  -2    0.00   15.11
   6  12   2   26.84   15.33
   6 -12  -2   38.55   16.55
   6 -12   2   34.15   15.43
  -6 -12   2   51.14   26.28
  -6 -12  -2   14.49   16.19
  -6  12  -3   35.47   14.16
  -6  12   3   21.23   14.80
   6  12  -3   26.42   19.71
   6  12   3   26.56   15.69
   6 -12  -3   27.36   17.53
   6 -12   3   70.62   21.16
  -6 -12   3   45.30   23.86
  -6 -12  -3   26.59   15.62
  -6  12  -4   24.69   19.18
   6  12  -4    3.76   12.93
   6  12   4   -3.21   16.47
   6 -12  -4   34.30   15.50
   6 -12   4   -4.40   12.24
  -6 -12  -4   49.28   22.73
  -6 -12   4   13.16   16.67
  -6  12  -5  109.84   28.66
   6  12  -5   53.03   24.17
   6  12   5   32.64   21.52
   6 -12  -5   43.42   21.15
   6 -12   5   42.46   15.33
  -6 -12  -5   41.78   14.98
  -6 -12   5   34.10   20.08
  -6 -12  -6   49.70   18.64
  -6  12  -6   47.38   21.95
   6  12  -6   37.98   14.62
   6 -12  -6   35.69   13.24
   6 -12   6   80.54   27.80
  -6 -12   6   56.66   21.47
  -6 -12  -6   68.12   20.96
  -6 -12  -7   27.97   15.67
  -6  12  -7   36.91   17.87
   6  12  -7   12.28   15.06
   6 -12  -7   22.92    8.21
   6 -12   7   -3.78   15.33
  -6 -12  -7   29.75   17.82
  -6 -12   7   17.21   16.18
  -6 -12  -8   73.85   25.97
  -6  12  -8   46.69   19.79
   6  12  -8   -0.98   12.06
   6 -12  -8   96.45   28.82
   6 -12   8   32.87   17.81
  -6 -12  -8   79.92   26.61
  -6 -12   8    7.02   16.74
  -6 -12  -9   60.70   28.08
  -6  12  -9   78.02   29.11
   6  12  -9   88.01   30.33
   6 -12   9   77.15   32.52
  -6  12   9   53.78   19.43
  -6 -12  -9   37.58   18.85
  -6 -12   9   51.23   24.40
  -6 -12 -10  158.47   50.83
  -6  12 -10  121.57   33.29
   6  12 -10  135.85   31.57
   6 -12  10  214.16   45.64
  -6  12  10  123.41   29.94
  -6 -12  10  125.40   28.85
  -6  13   0  183.48   40.55
   6  13   0  198.16   46.84
   6 -13   0  211.37   51.39
  -6 -13   0  215.59   30.02
  -6  13  -1   39.57   16.33
  -6  13   1   66.68   21.58
   6  13  -1   28.33   17.59
   6  13   1   32.08   17.53
   6 -13  -1   41.58   10.54
   6 -13   1   13.05   11.58
  -6 -13  -1   60.57   21.19
  -6 -13   1    4.00   17.04
  -6  13  -2   29.87   15.09
  -6  13   2   43.13   11.81
   6  13  -2   33.90   16.29
   6  13   2   34.27   19.21
   6 -13  -2   40.40   13.54
   6 -13   2   15.20   14.17
  -6 -13   2    0.07   14.51
  -6 -13  -2   50.77   24.39
  -6  13  -3    8.82   13.55
   6  13  -3    9.96   15.54
   6  13   3   10.67   18.94
   6 -13  -3    7.09    8.89
   6 -13   3   49.71   21.50
  -6 -13  -3   25.59   17.83
  -6 -13   3   57.99   25.69
  -6  13  -4   89.01   30.04
   6  13  -4   74.32   25.03
   6  13   4   76.26   29.66
   6 -13  -4   48.08   24.89
   6 -13   4  143.00   42.96
  -6 -13  -4  108.83   35.17
  -6 -13   4   45.33   18.48
  -6  13  -5   29.94   15.83
   6  13  -5   37.08   21.38
   6  13   5   24.06   17.60
   6 -13  -5   29.12   10.86
   6 -13   5   25.44   14.88
  -6 -13   5   54.52   28.99
  -6 -13  -5   10.22   13.30
  -6  13  -6   41.23   18.72
   6  13  -6   22.43   19.74
   6  13   6   40.06   19.38
   6 -13  -6    4.20    6.92
   6 -13   6   30.97   15.15
  -6 -13  -6   15.13   14.40
  -6 -13   6   28.77   17.22
  -6  13  -7   44.31   18.62
   6  13  -7   38.96   16.78
   6  13   7   36.09   20.41
   6 -13   7   28.10   17.66
  -6 -13  -7   23.54   14.80
  -6 -13   7   28.56   18.19
  -6 -13  -8   19.81   17.62
  -6  13  -8    8.20   15.51
   6  13  -8   74.57   24.46
   6 -13  -8   22.69   12.18
   6 -13   8   40.25   19.73
  -6 -13  -8   12.68   13.62
  -6 -13   8   -0.40   15.96
  -6  14   0   60.79   21.56
   6  14   0   58.66   23.22
   6 -14   0   26.97   13.09
  -6 -14   0    9.56   17.95
  -6  14  -1   39.38   17.70
  -6  14   1   64.60   23.22
   6  14  -1   50.63   29.37
   6  14   1   42.62   20.78
   6 -14  -1   27.90   14.41
   6 -14   1   48.26   21.21
  -6 -14   1   93.90   31.88
  -6 -14  -1    7.43   18.68
  -6  14  -2   10.98   13.78
   6  14  -2   27.29   19.42
   6  14   2   23.37   22.16
   6 -14  -2    5.41    7.13
   6 -14   2   25.41    8.95
  -6 -14   2   23.98   20.00
  -6 -14  -2   14.44   16.02
  -6  14  -3   57.43   22.62
   6  14  -3    9.56   16.34
   6 -14  -3   29.95    9.91
   6 -14   3    3.18   11.07
  -6 -14   3   26.20   18.00
  -6 -14  -3   32.85   16.26
  -6  14  -4   56.71   22.71
   6  14  -4   60.94   21.21
   6  14   4   58.13   21.25
   6 -14  -4   20.92    7.75
   6 -14   4   20.32   20.49
  -6 -14   4   38.92   20.52
  -6 -14  -4   24.85   15.69
  -6  14  -5   39.05   16.46
   6  14  -5   59.44   26.63
   6 -14  -5   39.61   18.95
   6 -14   5   13.37   15.25
  -6 -14  -5   40.79   17.45
  -6 -14   5   66.90   28.99
  -7   0   0   13.82    5.28
   7   0   0    7.51    5.63
   7   0   0   18.97   11.37
  -7   0   0  -20.83   11.97
  -7   0   1   17.50    7.51
  -7   0  -1   33.59   11.75
   7   0  -1   23.47    7.16
   7   0  -1   31.32   14.46
   7   0   1   26.50    6.64
  -7   0   1   45.53   14.21
  -7   0  -1   61.33   19.04
  -7   0   2   18.27    6.28
  -7   0  -2   51.37   14.56
   7   0  -2   28.57    7.68
   7   0  -2   46.17   17.40
   7   0   2   49.20   17.59
  -7   0   2   39.00   19.25
  -7   0  -2   31.26   15.03
  -7   0  -3    2.51    7.83
   7   0  -3    1.20    3.05
   7   0  -3   29.96   12.02
   7   0   3   17.67    7.09
  -7   0   3   12.06   13.77
  -7   0  -3   14.47   13.70
  -7   0  -4   99.57   22.84
   7   0  -4  113.19   20.41
   7   0  -4  120.31   30.51
   7   0   4  102.07   24.48
  -7   0   4  135.33   31.57
  -7   0  -4  121.92   28.19
  -7   0  -5  474.96   37.15
   7   0  -5  355.03   33.36
   7   0   5  421.68   34.74
  -7   0   5  412.08   38.57
  -7   0  -5  378.94   33.67
  -7   0  -6   10.86   13.97
   7   0  -6   33.42   17.16
   7   0   6   31.81   18.06
  -7   0   6    4.10   13.23
  -7   0  -6   23.47   17.44
  -7   0  -7  119.42   26.97
   7   0   7   54.43   16.97
  -7   0   7   61.37   21.03
  -7   0   7  105.93   27.11
  -7   0  -7   76.55   19.58
  -7   0  -8   30.44   15.78
   7   0   8   49.65   15.00
  -7   0   8   18.47   14.59
  -7   0   8   18.92   13.85
  -7   0  -8   27.34   14.15
  -7   0  -9   71.68   22.29
   7   0   9  115.12   22.65
  -7   0   9  135.32   26.63
  -7   0   9  102.31   20.31
  -7   0  -9   65.90   16.44
  -7   0 -10   48.85   19.21
   7   0  10   20.80   21.31
  -7   0  10   61.71   23.69
  -7   0  10   36.01   14.71
  -7   0 -10   37.94   16.14
  -7   0 -11  653.59   96.91
   7   0  11  831.29   94.21
  -7   0  11  596.72   85.10
  -7   0 -11  681.81   95.91
  -7   0 -12   46.04   23.38
   7   0  12   18.40   12.35
  -7   0  12   13.19   10.27
  -7   0 -12   12.11   11.92
  -7   0 -13   59.44   23.33
   7   0  13  159.79   30.44
  -7   0  13  135.73   30.65
  -7   0  13  120.16   23.37
   7   0  14   86.42   24.23
  -7   0  14   93.51   25.64
  -7   0  14  110.78   26.16
  -7   0 -15  126.59   40.19
   7   0  15   75.72   24.31
  -7   0  15  116.64   41.14
  -7   0 -16   40.64   19.52
   7   0  16   49.30   22.43
  -7   0  16   -1.61   19.97
  -7  -1   0  130.28   26.80
  -7   1   0  138.18   27.28
   7  -1   0   89.34   14.25
   7   1   0   95.29   19.81
   7  -1   0  133.81   29.53
  -7  -1   0   48.84   14.58
  -7   1   0  114.47   23.31
  -7  -1   1  108.14   22.60
  -7  -1  -1   95.01   26.58
  -7   1   1  141.64   30.55
  -7   1  -1  109.07   17.12
   7   1  -1   72.42   13.18
   7  -1  -1   97.41   14.82
   7   1  -1  205.51   42.71
   7  -1  -1  136.95   30.01
   7   1   1  120.12   26.24
   7  -1   1  158.21   29.15
  -7  -1   1  148.84   25.97
  -7  -1  -1   68.39   18.21
  -7   1   1  108.15   22.53
  -7  -1   2  171.05   32.30
  -7   1   2  206.92   29.93
  -7  -1  -2  206.43   36.98
  -7   1  -2  301.57   23.22
   7   1  -2  191.49   14.03
   7  -1  -2  241.84   15.08
   7   1  -2  291.88   62.04
   7  -1  -2  238.48   37.48
   7   1   2  202.39   31.82
   7  -1   2  336.46   53.06
  -7  -1   2  250.97   26.27
  -7  -1  -2  238.67   25.80
  -7   1   2  277.71   27.95
  -7   1  -2  271.78   26.29
  -7   1   3  142.83   26.81
  -7  -1  -3  172.69   29.24
  -7   1  -3  195.85   18.97
   7   1  -3  156.39   21.09
   7  -1  -3  164.59   10.45
   7   1  -3  157.08   21.40
   7   1  -3  257.87   36.23
   7  -1  -3  233.72   44.09
   7   1   3  176.60   37.19
   7  -1   3  189.36   21.10
  -7  -1   3  203.31   25.59
  -7  -1  -3  200.36   22.57
  -7   1   3  223.55   25.14
  -7   1  -3  268.25   30.34
  -7  -1  -4  111.23   25.75
  -7   1  -4   66.87   18.00
   7   1  -4   48.88   10.56
   7   1  -4   82.35   16.26
   7   1  -4   70.41   21.96
   7  -1  -4   71.53   28.71
   7   1   4   88.84   23.22
   7  -1   4  112.18   27.82
  -7  -1   4   16.92   15.67
  -7  -1  -4   66.93   19.11
  -7   1   4   98.85   28.08
  -7   1  -4  121.11   28.13
  -7  -1  -5  118.47   26.06
  -7   1  -5   95.43   22.82
   7   1  -5   67.59   12.85
   7   1  -5   90.89   17.12
   7   1  -5  128.36   31.67
   7  -1  -5   70.15   28.36
   7   1   5   74.56   20.70
   7  -1   5  125.95   27.30
  -7  -1   5  140.17   31.58
  -7   1   5  104.39   28.45
  -7   1  -5   87.70   22.89
  -7  -1  -6 1091.47   73.48
  -7   1  -6 1046.95   68.76
   7   1  -6 1056.25   59.21
   7  -1  -6 1120.23   73.71
   7   1   6 1082.22   68.19
   7  -1   6  998.87   67.82
  -7  -1   6 1107.54   74.17
  -7  -1   6 1105.14   75.13
  -7   1   6 1182.61   78.08
  -7  -1  -6  958.96   62.82
  -7   1  -6 1202.40   78.03
  -7  -1  -7  310.13   33.02
  -7   1  -7  315.59   36.13
   7   1  -7  249.43   16.47
   7   1   7  293.64   29.95
   7  -1   7  300.08   33.86
  -7  -1   7  331.33   37.49
  -7   1   7  289.00   31.32
  -7  -1   7  243.90   28.84
  -7  -1  -7  332.36   33.79
  -7   1   7  308.71   31.66
  -7   1  -7  316.44   29.86
  -7  -1  -8   72.55   21.57
  -7   1  -8   74.75   21.25
   7   1   8   75.21   18.97
   7  -1   8   78.61   19.18
  -7  -1   8   76.46   19.72
  -7  -1   8  102.17   22.52
  -7   1   8  104.75   20.01
  -7  -1  -8   85.22   22.02
  -7   1  -8  115.12   21.97
  -7  -1  -9  153.49   24.96
  -7   1  -9  123.71   21.36
   7   1   9  158.17   24.93
   7  -1   9   59.13   23.85
  -7  -1   9  108.74   26.38
  -7   1   9  132.03   25.32
  -7  -1   9   69.72   24.05
  -7   1   9  123.65   22.19
  -7   1  -9  115.85   19.88
  -7  -1 -10   66.61   22.04
  -7   1 -10  136.43   28.25
   7   1  10   53.11   19.84
   7  -1  10   58.58   19.58
  -7  -1  10   92.87   24.85
  -7   1  10  150.44   35.60
  -7  -1  10   34.66   14.91
  -7   1  10   86.87   19.79
  -7  -1 -10   43.07   13.31
  -7   1 -10   65.59   18.57
  -7  -1 -11   52.42   18.16
  -7   1 -11   29.20   17.47
   7   1  11   19.09   12.07
   7  -1  11   50.55   20.05
  -7  -1  11   34.73   18.00
  -7   1  11   27.64   17.14
  -7  -1  11   43.80   17.66
  -7   1  11    7.93   10.39
  -7  -1 -11   43.28   13.86
  -7   1 -11   27.70   11.11
  -7  -1 -12  191.01   34.36
  -7   1 -12  253.01   42.41
   7  -1  12  160.89   29.76
   7   1  12  220.44   35.00
  -7  -1  12  178.69   36.68
  -7   1  12  164.03   32.25
  -7  -1  12  220.14   34.38
  -7   1  12  222.37   33.39
  -7  -1 -12  213.57   32.62
  -7   1 -12  169.58   28.14
  -7  -1 -13   41.11   23.28
  -7   1 -13   52.27   22.52
   7  -1  13   -3.15   15.33
   7   1  13   27.23   13.64
  -7  -1  13   30.48   20.11
  -7   1  13   36.69   17.60
  -7  -1  13   27.02   15.28
  -7   1  13   28.01   10.14
  -7  -1 -14   29.71   17.03
  -7   1 -14   89.44   24.64
   7  -1  14   11.44   14.16
   7   1  14   63.45   23.85
  -7  -1  14   15.61   16.92
  -7   1  14   42.11   25.32
  -7  -1  14   32.22   10.95
  -7  -1 -15  156.97   48.28
  -7   1 -15   81.24   30.01
   7  -1  15   72.56   27.66
   7   1  15   76.30   23.60
  -7   1  15  145.66   46.46
  -7  -1 -16   -8.17   18.32
  -7   1 -16    4.03   15.53
   7  -1  16   -0.46   13.67
   7   1  16   15.48   13.21
  -7  -1  16   11.55   21.10
  -7   1  16   31.83   19.06
  -7  -2   0  322.32   54.87
  -7   2   0  357.33   23.24
   7  -2   0  238.86   16.88
   7   2   0  348.73   50.28
   7  -2   0  344.66   47.84
  -7  -2   0  269.18   27.64
  -7   2   0  347.65   29.35
  -7  -2   1  227.63   41.64
  -7  -2  -1  274.39   42.73
  -7   2   1  242.04   16.52
  -7   2  -1  218.11   18.02
   7  -2  -1  199.32   13.88
   7   2  -1  231.13   48.33
   7   2   1  184.98   25.95
   7  -2  -1  350.02   76.50
   7  -2   1  301.19   43.83
  -7  -2   1  213.78   23.72
  -7  -2  -1  215.20   23.36
  -7   2   1  215.83   23.65
  -7   2  -1  150.08   28.20
  -7  -2   2  833.93   42.40
  -7   2   2  804.95   40.25
  -7   2  -2  871.92   46.46
   7   2  -2  723.88   38.81
   7  -2  -2  772.61   37.13
   7   2  -2 1022.72   72.69
   7  -2  -2  821.95  124.97
   7   2   2  894.09   55.28
   7  -2   2  858.54  126.13
  -7  -2   2  867.87   51.41
  -7  -2  -2  781.04   49.06
  -7   2   2  734.88   47.32
  -7   2  -2  818.37   49.25
  -7   2   3  148.65   27.26
  -7  -2  -3  211.36   36.34
  -7   2  -3  280.36   22.72
   7   2  -3  171.58   14.31
   7   2  -3  251.24   17.17
   7   2  -3  302.59   30.31
   7  -2  -3  373.88   53.36
   7   2   3  188.86   47.27
   7  -2   3  203.47   25.02
  -7  -2   3  259.76   27.53
  -7  -2  -3  217.67   24.35
  -7   2   3  211.62   25.46
  -7   2  -3  233.53   27.92
  -7  -2  -4  270.28   38.01
  -7   2  -4  213.00   21.94
   7   2  -4  238.42   18.14
   7   2  -4  248.64   26.37
   7  -2  -4  284.36   54.87
   7   2   4  222.38   42.25
   7  -2   4  182.81   26.50
  -7  -2   4  278.94   30.50
  -7  -2  -4  239.89   26.63
  -7   2   4  258.22   28.95
  -7   2  -4  189.98   23.89
  -7  -2  -5  532.72   46.99
   7   2  -5  357.55   24.36
  -7   2  -5  337.89   29.24
   7   2  -5  368.91   25.45
   7  -2  -5  351.14   62.23
   7   2   5  406.24   32.49
   7  -2   5  392.82   35.99
  -7  -2   5  399.68   36.25
  -7  -2   5  443.54   40.46
  -7  -2  -5  379.76   35.33
  -7   2   5  521.05   43.78
  -7   2  -5  357.51   33.09
  -7  -2  -6  694.00   65.16
  -7   2  -6  673.50   48.89
   7   2  -6  561.52   34.30
   7  -2  -6  756.21   56.94
   7   2   6  629.91   43.76
   7  -2   6  627.10   48.49
  -7  -2   6  689.51   51.70
  -7  -2   6  570.48   44.30
  -7  -2  -6  658.75   47.30
  -7   2   6  657.40   51.34
  -7   2  -6  704.00   50.44
  -7  -2  -7   86.48   23.53
  -7   2  -7  205.86   25.87
   7   2  -7  138.27   13.56
   7  -2  -7   92.97   24.74
   7   2   7  180.06   22.75
   7  -2   7  121.70   22.10
  -7  -2   7   98.73   22.46
  -7  -2   7  174.69   26.98
  -7  -2  -7  156.42   25.83
  -7   2   7  164.65   22.59
  -7   2  -7  143.18   23.82
  -7  -2  -8   20.02   13.42
  -7   2  -8  128.30   23.94
   7   2  -8   84.96   17.94
   7   2   8   59.17   18.41
   7  -2   8   94.35   19.93
  -7  -2   8   34.00   17.84
  -7   2   8  115.57   26.34
  -7  -2   8   66.45   21.68
  -7  -2  -8   47.65   14.35
  -7   2   8   84.90   23.99
  -7   2  -8   36.62   14.14
  -7  -2  -9   33.56   21.99
  -7   2  -9   70.76   23.78
   7   2   9   30.26   11.60
   7  -2   9   48.89   17.50
  -7  -2   9   33.71   16.13
  -7   2   9   55.73   20.04
  -7  -2   9   30.13   18.66
  -7  -2  -9   38.37   13.17
  -7   2   9   34.01   14.03
  -7   2  -9    7.67   11.98
  -7  -2 -10   38.85   22.94
  -7   2 -10   58.51   24.77
   7   2  10   61.25   15.04
   7  -2  10   19.09   15.36
  -7  -2  10   44.91   19.36
  -7   2  10    7.58   15.94
  -7  -2  10   16.22   13.36
  -7  -2 -10   22.89   10.01
  -7   2  10   60.31   18.71
  -7   2 -10   53.30   19.80
  -7  -2 -11   53.99   21.81
  -7   2 -11    2.92   15.56
   7   2  11   21.28   11.80
   7  -2  11   35.72   14.65
  -7  -2  11   22.30   17.90
  -7   2  11   21.51   20.94
  -7  -2  11    6.77   11.70
  -7  -2 -11   10.46    9.91
  -7   2  11   32.09   16.49
  -7   2 -11    2.51    9.67
  -7  -2 -12   41.57   18.52
  -7   2 -12    2.28   16.47
   7   2  12  -12.18   11.72
   7  -2  12   26.89   15.33
  -7  -2  12   13.56   16.96
  -7   2  12   31.57   17.09
  -7  -2  12   13.05   11.56
  -7  -2 -12   16.60    8.73
  -7   2  12   29.42   11.33
  -7   2 -12   11.14   10.08
  -7  -2 -13   31.91   23.26
  -7   2 -13   13.04   20.03
   7   2  13   28.11   13.13
   7  -2  13   21.87   19.60
  -7  -2  13   78.42   21.17
  -7   2  13   49.46   20.57
  -7  -2  13   18.65   11.54
  -7   2  13   78.44   18.94
  -7   2 -13   44.59   14.54
  -7  -2 -14   61.95   26.10
  -7   2 -14   28.69   17.07
   7   2  14   20.78   11.78
   7  -2  14   47.34   16.00
  -7  -2  14   22.84   19.45
  -7   2  14   41.21   19.61
  -7  -2  14   22.18   11.43
  -7  -2 -15   -8.95   16.80
  -7   2 -15   71.96   28.50
   7   2  15   26.41   17.16
   7  -2  15   35.05   21.06
  -7  -2  15   49.92   26.81
  -7   2  15   23.13   18.67
  -7  -2 -16   38.59   27.28
  -7   2 -16   65.71   27.35
   7  -2  16   34.19   21.73
   7   2  16   22.35   12.14
  -7  -2  16   28.77   19.98
  -7   2  16   17.24   16.82
  -7  -3   0  189.68   32.25
  -7   3   0  136.64   19.81
   7  -3   0   95.70   16.39
   7   3   0  157.55   31.17
   7  -3   0  193.88   46.68
  -7   3   0  175.87   21.99
  -7  -3   1  149.83   28.59
  -7  -3  -1  130.11   31.51
  -7   3   1  140.23   20.03
  -7   3  -1  134.81   20.96
   7  -3  -1   77.86   12.26
   7   3  -1  198.59   36.18
   7   3   1  117.45   40.31
   7  -3  -1   76.92   19.30
   7  -3   1  130.93   26.88
  -7  -3   1   63.31   17.41
  -7  -3  -1  139.58   25.85
  -7   3   1  110.95   25.38
  -7   3  -1  162.53   35.18
  -7  -3   2  211.03   19.92
  -7  -3  -2  332.88   48.97
  -7   3   2  311.21   21.39
  -7   3  -2  285.34   24.72
   7  -3  -2  246.96   17.42
   7   3  -2  266.59   26.27
   7  -3  -2  298.25   50.47
   7   3   2  277.63   37.45
   7  -3   2  295.15   51.35
  -7  -3   2  331.71   31.19
  -7  -3  -2  273.55   32.38
  -7   3   2  322.93   31.50
  -7   3   3  240.38   21.79
  -7  -3  -3  231.31   49.87
  -7   3  -3  289.75   27.48
   7   3  -3  269.90   22.37
   7   3  -3  315.47   29.87
   7  -3  -3  348.38   64.01
   7   3   3  225.10   34.12
   7  -3   3  251.20   30.72
  -7  -3   3  219.18   27.42
  -7  -3  -3  306.74   29.41
  -7   3   3  328.60   34.92
  -7  -3  -4  152.44   30.80
  -7   3  -4  172.41   18.95
   7   3  -4  169.96   16.42
   7  -3  -4  234.26   38.84
   7   3   4  201.96   30.16
   7  -3   4  193.02   25.21
  -7  -3   4  193.21   22.60
  -7  -3   4  241.78   30.58
  -7  -3  -4  226.39   26.22
  -7   3   4  217.96   26.19
  -7  -3  -5  620.37   59.60
  -7   3  -5  568.72   42.23
   7   3  -5  576.24   36.70
   7  -3  -5  659.67   94.04
   7   3   5  597.69   75.50
   7  -3   5  703.80   51.90
  -7  -3   5  654.34   46.64
  -7  -3   5  681.31   51.14
  -7  -3  -5  632.24   47.07
  -7   3   5  595.37   45.35
  -7  -3  -6  267.49   53.04
  -7   3  -6  215.46   26.85
   7   3  -6  223.63   18.20
   7  -3  -6  189.38   35.85
   7   3   6  258.46   24.76
   7  -3   6  177.66   26.45
  -7  -3   6  218.19   26.26
  -7  -3   6  192.24   26.53
  -7  -3  -6  173.14   20.89
  -7   3   6  211.76   28.28
  -7  -3  -7  385.19   64.59
  -7   3  -7  357.19   35.45
   7   3  -7  475.06   34.74
   7  -3  -7  333.36   35.42
   7   3   7  366.84   31.81
   7  -3   7  374.89   35.34
  -7  -3   7  403.71   37.66
  -7  -3   7  477.21   45.07
  -7  -3  -7  430.07   39.08
  -7   3   7  416.85   41.55
  -7  -3  -8  149.42   34.87
  -7   3  -8  112.36   18.22
   7   3  -8  126.36   14.47
   7   3   8  138.57   23.25
   7  -3   8  103.21   23.97
  -7  -3   8  175.35   24.05
  -7   3   8  165.47   29.73
  -7  -3   8  118.78   21.68
  -7  -3  -8   79.84   20.23
  -7   3   8  128.37   21.98
  -7   3  -8  130.17   21.09
  -7  -3  -9  220.51   47.05
  -7   3  -9  322.92   42.18
   7   3  -9  310.90   32.81
   7   3   9  332.74   40.71
   7  -3   9  292.35   40.76
  -7  -3   9  312.69   40.82
  -7   3   9  302.35   42.21
  -7  -3   9  282.29   39.84
  -7  -3  -9  270.17   33.86
  -7   3   9  230.52   32.71
  -7   3  -9  207.34   30.45
  -7  -3 -10   50.77   17.42
  -7   3 -10  100.39   27.13
   7   3  10   58.25   17.54
   7  -3  10   61.29   23.86
  -7  -3  10   42.20   15.92
  -7   3  10   75.70   24.39
  -7  -3  10   83.88   23.07
  -7  -3 -10   81.05   20.82
  -7   3  10   56.89   16.70
  -7   3 -10   50.45   13.86
  -7  -3 -11   87.43   30.74
  -7   3 -11   39.37   22.42
   7   3  11   24.54   10.80
   7  -3  11   54.02   18.75
  -7  -3  11   62.62   18.63
  -7   3  11   82.41   21.60
  -7  -3  11   75.59   20.01
  -7  -3 -11   36.49   14.20
  -7   3  11   66.52   18.71
  -7   3 -11   21.48   11.36
  -7  -3 -12   14.63    9.59
  -7   3 -12   45.79   21.59
   7  -3  12   15.63   14.62
  -7  -3  12   60.94   25.16
  -7   3  12   11.87   16.23
  -7  -3  12   55.78   19.74
  -7   3 -12   24.59   12.07
  -7  -3 -13   62.22   30.46
  -7   3 -13   86.96   31.11
   7   3  13   25.83   17.05
   7  -3  13   57.12   24.59
  -7  -3  13    9.09   13.72
  -7   3  13   59.24   21.62
  -7  -3  13   28.00   13.14
  -7   3  13    8.09    9.41
  -7   3 -13   47.89   17.17
  -7  -3 -14   90.28   37.39
  -7   3 -14   53.68   20.85
   7   3  14   57.48   19.44
   7  -3  14   21.50   21.87
  -7  -3  14   36.45   25.26
  -7   3  14   25.77   18.11
  -7  -3  14   12.17   10.96
  -7  -3 -15   26.57   20.49
   7   3  15   13.74   12.12
   7  -3  15   33.97   18.26
  -7  -3  15   43.78   21.00
  -7   3  15   30.42   18.97
  -7  -4   0  104.55   23.84
  -7   4   0  152.98   16.35
   7  -4   0   57.93   13.96
   7   4   0   95.25   24.17
   7  -4   0  130.18   30.38
  -7  -4   0   77.49   22.82
  -7  -4  -1   -1.55   10.03
  -7   4   1   19.31    7.78
  -7   4  -1    6.86    7.34
   7  -4  -1   14.07    6.04
   7   4  -1   22.80   14.45
   7   4   1   15.12    6.81
   7  -4  -1   35.54   22.12
   7  -4   1   39.51   13.48
  -7  -4   1   39.49   15.72
  -7  -4  -1   58.33   22.38
  -7  -4  -2   21.08   10.67
  -7   4   2   34.36    8.71
  -7   4  -2   27.98   12.18
   7  -4  -2   10.46    5.31
   7   4  -2   16.36   13.77
   7   4   2   22.17    8.33
   7  -4  -2   28.59   11.93
   7  -4   2   79.12   24.99
  -7  -4   2   35.22   19.89
  -7  -4  -2   35.53   17.29
  -7  -4  -3  243.14   49.60
  -7   4   3  213.42   14.38
  -7   4  -3  233.65   21.93
   7   4  -3  196.57   18.73
   7  -4  -3  192.99   34.68
   7   4   3  201.78   29.31
   7  -4   3  242.10   31.27
  -7  -4   3  268.78   25.41
  -7  -4   3  164.72   26.53
  -7  -4  -3  185.01   24.50
  -7   4   3  263.84   32.00
  -7  -4  -4   62.07   22.97
  -7   4  -4   38.58   17.61
   7   4  -4   75.26   17.67
   7  -4  -4   40.34   17.77
   7   4   4   37.39   15.71
   7  -4   4   59.88   18.58
  -7  -4   4   42.46   13.78
  -7  -4   4   50.00   17.06
  -7  -4  -4   34.87   15.12
  -7   4   4   92.31   27.20
  -7  -4  -5  637.34   58.65
  -7   4  -5  616.12   44.96
   7   4  -5  476.95   32.68
   7  -4  -5  603.54  106.17
   7   4   5  531.76   59.85
   7  -4   5  664.45   51.58
  -7  -4   5  485.29   37.75
  -7  -4   5  531.06   42.60
  -7  -4  -5  495.24   39.78
  -7   4   5  532.17   44.36
  -7  -4  -6   20.61   10.19
  -7   4  -6   18.75   14.21
   7   4  -6   22.55    8.93
   7  -4  -6   43.04   13.32
   7   4   6   45.21   13.30
   7  -4   6   -5.30   17.15
  -7  -4   6   55.19   19.81
  -7  -4   6   26.79   19.97
  -7  -4  -6   -2.25   10.58
  -7   4   6   37.79   15.99
  -7  -4  -7  160.23   42.52
  -7   4  -7  111.76   21.46
   7   4  -7  121.11   15.86
   7  -4  -7  138.25   23.74
   7   4   7  141.39   17.76
   7  -4   7  142.51   24.73
  -7  -4   7  120.18   27.18
  -7  -4   7   94.05   20.77
  -7  -4  -7   90.49   21.31
  -7   4   7  118.50   24.02
  -7  -4  -8  153.06   30.84
  -7   4  -8  178.52   25.20
   7   4  -8  136.56   15.73
   7   4   8  157.33   18.88
   7  -4   8  112.90   23.98
  -7  -4   8  141.30   24.62
  -7  -4   8  119.17   22.28
  -7  -4  -8  179.04   24.38
  -7   4   8  214.34   25.92
  -7  -4  -9   50.26   18.77
  -7   4  -9   59.34   24.44
   7   4  -9   37.46   12.80
   7   4   9   30.85   15.15
   7  -4   9   39.90   24.22
  -7  -4   9   19.85   14.41
  -7   4   9   39.64   20.50
  -7  -4   9   43.21   16.75
  -7  -4  -9   -2.13   10.00
  -7   4   9   52.34   20.71
  -7  -4 -10   24.61   14.64
  -7   4 -10   31.01   23.06
   7   4  10   22.87   15.48
   7  -4  10   25.53   17.62
  -7  -4  10   40.41   21.71
  -7   4  10   27.26   17.37
  -7  -4  10   16.62   13.19
  -7  -4 -10   33.86   14.16
  -7   4  10    5.10   11.24
  -7  -4 -11   95.66   24.43
  -7   4 -11   43.10   22.49
   7   4  11   32.14   11.78
   7  -4  11   70.95   24.58
  -7  -4  11  117.33   31.72
  -7   4  11   65.73   19.50
  -7  -4  11   74.35   25.13
  -7  -4 -11   88.12   21.91
  -7   4  11   77.17   19.19
  -7  -4 -12   52.75   16.04
  -7   4 -12   60.93   21.61
   7   4  12   47.83   15.10
   7  -4  12  148.68   32.07
  -7  -4  12   51.41   19.89
  -7   4  12   89.06   26.14
  -7  -4  12   70.18   21.85
  -7   4  12   70.71   17.08
  -7   4 -12   37.77   12.53
  -7  -4 -13   59.13   24.10
  -7   4 -13   46.35   27.23
   7   4  13   87.86   21.35
   7  -4  13  164.91   41.45
  -7  -4  13   98.94   32.22
  -7   4  13   72.37   30.21
  -7  -4  13   48.59   15.70
  -7   4  13  102.31   25.52
  -7   4 -13  117.96   28.74
  -7  -4 -14   47.25   24.76
  -7   4 -14   39.64   19.49
   7  -4  14   58.82   23.56
  -7  -4  14   25.56   16.69
  -7   4  14   49.86   22.53
  -7  -4  14   49.25   21.93
  -7  -4 -15   82.48   33.37
  -7   4 -15   37.55   16.25
   7  -4  15   28.45   16.80
  -7  -4  15   92.85   29.93
  -7   4  15   76.52   24.95
  -7  -5   0  219.21   50.19
  -7   5   0  290.82   23.74
   7   5   0  251.37   21.24
   7  -5   0  306.89   57.96
  -7  -5   0  309.66   30.99
  -7  -5   1   22.95   10.58
  -7  -5  -1   36.04   13.07
  -7   5   1   13.41    7.61
  -7   5  -1   19.26    7.84
   7  -5  -1   11.62    5.33
   7   5   1   19.08   10.43
   7  -5  -1   40.06   14.27
   7  -5   1   36.24   14.85
  -7  -5   1   18.89    8.93
  -7  -5   1   18.54   14.28
  -7  -5  -1   -3.17   13.43
  -7  -5  -2   80.17   35.30
  -7   5   2   81.72   15.91
  -7   5  -2  115.49   24.56
   7  -5  -2   88.12   16.87
   7   5  -2   72.08   17.63
   7   5   2   74.47   19.20
   7  -5  -2   61.18   36.68
   7  -5   2   64.36   19.30
  -7  -5   2   86.45   21.81
  -7  -5   2   93.51   24.48
  -7  -5  -2  113.82   31.36
  -7  -5  -3  253.34   51.36
  -7   5   3  226.08   15.65
  -7   5  -3  269.81   25.84
   7   5  -3  248.01   22.43
   7   5   3  209.00   40.45
   7  -5  -3  241.52   45.63
   7  -5   3  181.21   26.27
  -7  -5   3  251.36   24.80
  -7  -5   3  227.44   28.04
  -7  -5  -3  228.74   26.40
  -7  -5  -4   76.38   21.75
  -7   5  -4  113.39   24.31
   7   5  -4   74.30   20.40
   7  -5  -4   71.11   20.68
   7   5   4   52.42   17.62
   7  -5   4  124.87   27.66
  -7  -5   4   79.61   20.90
  -7  -5   4   74.00   26.75
  -7  -5  -4  127.74   31.18
  -7  -5  -5  157.29   30.53
  -7   5  -5   83.11   19.51
   7   5  -5   88.85   17.56
   7   5   5   53.63   16.30
   7  -5   5  123.96   23.92
  -7  -5   5  110.01   21.33
  -7  -5   5   94.26   25.20
  -7  -5  -5  128.03   21.62
  -7   5   5   74.81   22.01
  -7  -5  -6  493.16   50.27
  -7   5  -6  374.32   36.52
   7   5  -6  305.49   27.04
   7  -5  -6  462.77   86.59
   7   5   6  312.80   43.65
   7  -5   6  356.49   36.82
  -7  -5   6  386.75   38.07
  -7  -5   6  436.26   44.51
  -7  -5  -6  388.29   35.74
  -7   5   6  406.14   40.00
  -7  -5  -7  116.91   24.84
  -7   5  -7  117.18   19.72
   7   5  -7  159.12   17.33
   7  -5  -7  190.81   25.81
   7   5   7   91.07   20.35
   7  -5   7  173.19   27.61
  -7  -5   7  142.39   26.17
  -7  -5   7  170.25   25.21
  -7  -5  -7  145.84   24.14
  -7   5   7  173.88   24.94
  -7  -5  -8   23.97   15.70
  -7   5  -8   22.81   16.97
   7   5  -8    6.42    7.35
   7  -5  -8   19.71   14.41
   7   5   8    2.52    7.83
   7  -5   8   66.26   20.06
  -7  -5   8   -2.09   12.56
  -7  -5   8   31.45   16.73
  -7  -5  -8   14.73   12.59
  -7   5   8   31.76   20.06
  -7  -5  -9   38.64   13.80
  -7   5  -9   52.25   17.58
   7   5  -9   44.71   14.19
   7   5   9   30.35   11.77
   7  -5   9   41.51   17.73
  -7  -5   9   28.89   18.25
  -7   5   9   12.56   16.27
  -7  -5   9   43.14   19.69
  -7  -5  -9   23.24   11.37
  -7   5   9   63.92   20.60
  -7  -5 -10   25.79   14.34
  -7   5 -10   51.00   19.10
   7   5 -10   28.23   13.42
   7   5  10   24.79   10.05
   7  -5  10   55.27   26.75
  -7  -5  10   19.76   15.64
  -7   5  10    8.94   16.69
  -7  -5  10   48.29   16.14
  -7  -5 -10   30.58   12.97
  -7   5  10   27.41   15.91
  -7  -5 -11   35.09   13.15
  -7   5 -11   57.49   20.85
   7   5  11   26.71    7.79
   7  -5  11    2.77   15.23
  -7  -5  11   18.92   15.56
  -7   5  11   23.23   15.80
  -7  -5  11    6.57   12.70
  -7  -5 -11   27.04   15.24
  -7   5  11    9.65    9.77
  -7  -5 -12   61.80   25.38
  -7   5 -12   28.08   20.93
   7  -5  12   61.45   26.58
  -7  -5  12   67.40   24.11
  -7   5  12   48.41   24.40
  -7  -5  12   17.56   14.61
  -7   5  12  111.12   27.82
  -7  -5 -13   62.14   23.42
  -7   5 -13   77.64   27.11
   7  -5  13   24.51   16.05
  -7  -5  13   17.62   15.94
  -7   5  13   65.90   21.56
  -7  -5  13   49.48   18.29
  -7  -5 -14   19.65   17.46
  -7   5 -14  105.71   37.75
   7  -5  14   62.16   28.12
  -7  -5  14   -7.71   16.18
  -7   5  14   22.42   16.92
  -7  -5  14   21.31   12.00
  -7  -5 -15   38.81   29.58
  -7   5 -15   74.90   28.11
   7  -5  15   70.73   22.48
  -7  -5  15  144.07   36.82
  -7  -6   0   44.52   14.75
  -7   6   0   66.48   16.42
   7  -6   0   84.66   27.81
  -7  -6   0   65.12   16.37
  -7  -6   0   64.53   22.05
  -7  -6  -1  103.38   35.04
  -7   6  -1   71.22   15.92
  -7   6   1  128.36   24.60
   7   6  -1  117.81   25.88
   7  -6   1   41.78   13.33
  -7  -6   1  126.85   23.92
  -7  -6  -1   95.83   22.02
  -7  -6   1  165.12   23.61
  -7  -6  -2  226.19   47.13
  -7   6  -2  244.13   24.64
   7   6  -2  347.81   32.54
   7   6   2  240.02   21.35
   7  -6  -2  271.61   49.37
   7  -6   2  209.85   28.47
  -7  -6   2  206.97   21.89
  -7  -6  -2  221.59   29.50
  -7  -6   2  232.71   29.78
  -7  -6  -3   31.70   15.30
  -7   6   3   10.41    4.57
  -7   6  -3   18.13   10.96
   7   6  -3   13.76    8.98
   7  -6  -3   24.84    9.58
   7  -6   3   48.44   17.89
  -7  -6   3   30.95   11.28
  -7  -6   3   21.19   16.48
  -7  -6  -3   42.19   14.63
  -7  -6  -4  136.59   24.02
  -7   6   4   72.79   12.00
  -7   6  -4   79.26   20.39
   7   6  -4  105.14   15.29
   7   6   4   62.09   18.67
   7  -6  -4   56.23   16.30
   7  -6   4   58.49   19.74
  -7  -6   4   54.86   17.21
  -7  -6   4   32.39   15.76
  -7  -6  -4   63.71   16.63
  -7  -6  -5   54.28   20.18
  -7   6  -5   64.24   21.08
   7   6  -5   46.18   19.59
   7  -6  -5   96.42   20.26
   7   6   5   39.32   15.11
   7  -6   5   72.68   25.99
  -7  -6   5   52.40   17.21
  -7  -6   5  119.10   24.45
  -7  -6  -5   26.47   13.88
  -7  -6  -6   22.55   11.38
  -7   6  -6   37.17   19.33
   7   6  -6   51.60   16.32
   7  -6  -6   78.52   28.17
   7   6   6   43.27   15.65
   7  -6   6  115.36   25.67
  -7  -6   6   30.08   13.68
  -7  -6   6   27.28   20.52
  -7  -6  -6   32.98   13.31
  -7  -6  -7   30.52   14.43
  -7   6  -7   34.22   15.76
   7   6  -7   76.12   18.82
   7  -6  -7   37.96   19.84
   7   6   7   22.22    8.12
   7  -6   7   26.71   16.54
  -7  -6   7   55.80   20.90
  -7  -6   7   47.35   18.86
  -7  -6  -7   19.30   15.66
  -7   6   7   21.02   14.38
  -7  -6  -8   52.91   25.37
  -7   6  -8   24.75   16.20
   7   6  -8   36.41   10.05
   7  -6  -8   66.26   25.31
   7   6   8   30.65   10.37
   7  -6   8   84.54   27.45
  -7  -6   8   43.04   16.18
  -7  -6   8   64.92   22.55
  -7  -6  -8   39.97   16.67
  -7   6   8   63.10   22.02
  -7  -6  -9   18.37    8.70
  -7   6  -9   41.37   15.79
   7  -6   9   78.81   27.80
  -7  -6   9   38.15   18.44
  -7   6   9   68.57   25.36
  -7  -6   9   35.29   14.71
  -7  -6  -9   29.43   14.68
  -7   6   9   37.44   13.99
  -7  -6 -10   20.91   12.45
  -7   6 -10   14.42   13.58
   7   6 -10   21.88   13.07
   7  -6  10   60.43   24.09
  -7  -6  10    7.46   13.39
  -7   6  10   59.31   17.68
  -7  -6  10   29.13   18.84
  -7   6  10   24.26   17.83
  -7  -6 -11   34.92   15.55
  -7   6 -11   27.33   21.34
   7  -6  11   16.54   16.38
  -7  -6  11   51.12   22.96
  -7   6  11   29.68   17.29
  -7  -6  11   66.68   22.03
  -7  -6 -11   34.30   13.48
  -7   6  11   37.44   12.48
  -7  -6 -12   30.51   16.06
  -7   6 -12   43.22   20.47
   7  -6  12   38.57   17.91
  -7  -6  12   23.70   15.94
  -7   6  12    8.12   17.43
  -7  -6  12   44.34   21.00
  -7   6  12   34.86   15.70
  -7  -6 -13   38.05   21.57
  -7   6 -13   60.69   26.93
   7  -6  13   26.53   24.87
  -7  -6  13   20.64   14.60
  -7   6  13   21.15   17.17
  -7  -6  13   58.52   25.60
  -7  -6 -14   -0.14   17.14
  -7   6 -14   48.97   27.04
   7  -6  14   55.53   22.32
  -7  -6  14   77.61   30.13
  -7   6  14   54.34   21.92
  -7  -6  14   17.04   12.09
  -7   7   0   91.42   20.24
   7  -7   0   79.94   19.58
  -7  -7   0   13.96    7.00
  -7  -7   0   22.96   14.99
  -7  -7  -1   27.98   18.83
  -7   7   1   29.21    9.45
  -7   7  -1   46.69   12.49
   7   7  -1   42.40   16.37
   7  -7  -1   25.07   16.90
   7  -7   1   71.82   22.42
  -7  -7   1   44.84   12.87
  -7  -7  -1   41.12   10.43
  -7  -7  -1   82.14   22.05
  -7  -7  -2   24.62   12.11
  -7   7   2   21.21    6.58
  -7   7  -2   32.72   10.64
   7   7  -2   34.62   14.07
   7  -7  -2   32.64   22.29
  -7  -7   2   44.57   14.06
  -7  -7  -2   28.83    8.80
  -7  -7   2  105.58   24.79
  -7  -7  -2    7.87   14.35
  -7  -7  -3  270.35   56.75
  -7   7   3  284.56   22.31
  -7   7  -3  306.23   30.99
   7   7  -3  330.31   35.09
   7  -7  -3  339.42   90.89
   7  -7   3  290.17   32.71
  -7  -7   3  299.23   27.37
  -7  -7   3  295.11   34.67
  -7  -7  -3  390.25   37.86
  -7  -7  -4   27.30   20.26
  -7   7  -4   11.97   12.02
   7   7  -4   31.26   12.94
   7   7   4   25.58    7.16
   7  -7  -4   17.69    9.56
   7  -7   4   21.89   16.31
  -7  -7   4    0.22    8.38
  -7  -7   4   23.39   15.99
  -7  -7  -4   33.28   19.48
  -7  -7  -5   43.10   17.12
  -7   7  -5   75.62   20.50
   7   7  -5   62.69   20.96
   7  -7  -5  110.24   33.45
   7  -7   5  111.67   26.54
  -7  -7   5  100.87   17.59
  -7  -7   5   43.21   20.13
  -7  -7  -5   40.05   15.60
  -7  -7  -6  167.44   44.86
  -7   7  -6  122.90   23.85
   7   7  -6  212.03   30.20
   7  -7  -6  160.00   32.94
   7  -7   6  238.76   39.32
  -7  -7   6  147.57   24.07
  -7  -7   6  161.84   30.95
  -7  -7  -6  109.25   20.85
  -7  -7  -7   44.65   18.77
  -7   7  -7   44.16   15.19
   7   7  -7   70.03   19.16
   7  -7  -7   45.57   15.25
   7  -7   7   68.43   26.57
  -7  -7   7   18.90   10.93
  -7  -7   7   65.52   20.27
  -7  -7  -7   45.32   12.42
  -7  -7  -8   11.60   17.56
  -7   7  -8   29.11   18.78
   7   7  -8   40.53   16.65
   7  -7  -8   27.51   14.94
   7  -7   8   37.22   16.95
  -7  -7   8   53.71   18.14
  -7  -7   8   10.02   15.44
  -7  -7  -8   32.31   12.38
  -7   7   8   15.13   14.34
  -7  -7  -9   20.22   15.80
  -7   7  -9   36.40   21.45
   7   7  -9   41.80   14.53
   7  -7  -9   82.52   22.83
   7  -7   9   52.39   18.27
  -7  -7   9   75.75   20.20
  -7  -7   9   71.99   23.44
  -7  -7  -9   23.63   12.15
  -7   7   9   34.47   16.89
  -7  -7 -10   22.31   22.40
  -7   7 -10   44.27   17.10
   7   7 -10   45.89   16.72
   7  -7  10   69.60   27.11
  -7  -7  10   84.33   20.72
  -7   7  10   16.55   15.70
  -7  -7  10   37.02   21.98
  -7  -7 -10   55.06   19.33
  -7   7  10   12.61   13.43
  -7  -7 -11   52.26   15.52
  -7   7 -11    9.40   15.75
   7  -7  11  128.12   39.40
  -7  -7  11   24.79   12.09
  -7   7  11   49.56   24.76
  -7  -7  11    4.67   13.46
  -7   7  11   67.19   23.45
  -7  -7 -12   15.97   12.95
  -7   7 -12   41.26   18.54
   7  -7  12   53.94   28.68
  -7  -7  12   23.96   15.68
  -7   7  12   16.47   15.02
  -7  -7  12   38.44   20.73
  -7   7  12   21.09   13.44
  -7  -7 -13    5.40   13.44
  -7   7 -13   52.60   25.39
   7  -7  13   26.35   17.10
  -7  -7  13   32.71   21.52
  -7   7  13    9.46   14.53
  -7  -7  13   18.11   12.49
  -7  -7 -14   32.52   14.19
  -7   7 -14   15.73   15.73
   7  -7  14   40.38   25.39
  -7  -7  14   17.33   15.27
  -7   7  14    6.61   14.49
  -7  -7  14   23.75   13.97
  -7   8   0   61.46   16.97
   7   8   0   74.61   23.59
   7  -8   0   50.11   19.98
  -7  -8   0   61.89   14.97
  -7  -8   0   80.06   23.50
  -7  -8  -1   36.32   16.04
  -7   8  -1   49.34   15.94
  -7   8   1   40.05   13.19
   7   8  -1   80.85   16.20
   7  -8  -1   59.46   29.28
   7  -8   1   53.09   22.03
  -7  -8   1   57.57   15.27
  -7  -8  -1   29.19    8.29
  -7  -8  -1   37.75   18.12
  -7  -8   1   63.30   24.29
  -7  -8  -2   77.05   20.70
  -7   8  -2  115.08   22.37
  -7   8   2  122.63   18.49
   7   8  -2  102.64   19.16
   7  -8  -2  108.54   21.69
   7  -8   2  140.26   28.72
  -7  -8   2   50.16   14.01
  -7  -8   2   65.35   23.56
  -7  -8  -2   52.66   19.09
  -7  -8  -3   29.26   13.64
  -7   8  -3   17.67   11.46
  -7   8   3   15.50    6.16
   7   8  -3   10.73   11.20
   7  -8  -3   53.70   23.71
   7  -8   3   19.86   14.85
  -7  -8   3   21.89   11.70
  -7  -8   3   78.23   20.13
  -7  -8  -3    7.17   14.10
  -7  -8  -4  126.86   35.34
  -7   8  -4  123.81   25.58
   7   8  -4  120.46   24.31
   7  -8  -4   94.16   20.54
   7  -8   4  138.88   27.69
  -7  -8   4  116.25   17.63
  -7  -8  -4  115.21   24.00
  -7  -8   4  129.85   27.47
  -7  -8  -5   27.86   17.12
  -7   8  -5   21.64   17.40
   7   8  -5   18.12   11.11
   7  -8  -5   24.19   14.18
   7  -8   5   17.05   14.73
  -7  -8   5   14.43   13.48
  -7  -8  -5    2.69   12.47
  -7  -8   5   49.43   19.05
  -7  -8  -6   31.97   11.17
  -7   8  -6   70.13   20.93
   7   8  -6   83.61   20.01
   7  -8  -6   23.41   11.22
  -7  -8   6   55.97   17.25
  -7  -8   6   54.89   20.50
  -7  -8  -6   39.61   15.73
  -7  -8  -7   35.51   20.45
  -7   8  -7   46.88   15.46
   7   8  -7   80.06   21.18
   7  -8  -7   22.44   10.95
   7  -8   7   53.79   18.70
  -7  -8   7   59.73   18.87
  -7  -8   7   62.21   21.90
  -7  -8  -7   61.62   17.70
  -7  -8  -8   30.54   10.82
  -7   8  -8   32.91   18.51
   7   8  -8   14.03   11.54
   7  -8  -8   26.29   15.30
   7  -8   8   36.89   20.07
  -7  -8   8   27.32   15.80
  -7  -8  -8   19.68   17.18
  -7  -8   8   22.04   15.15
  -7  -8  -9   40.79   16.72
  -7   8  -9   41.09   17.49
   7   8  -9   19.58   11.41
   7  -8  -9   -1.59   13.59
   7  -8   9   43.97   19.73
  -7  -8   9   47.82   21.59
  -7  -8   9    2.59   16.59
  -7  -8  -9   15.38   11.75
  -7   8   9   32.22   22.54
  -7  -8 -10   52.02   23.99
  -7   8 -10   29.92   16.77
   7   8 -10    6.66   12.05
   7  -8  10   93.37   31.34
  -7  -8  10   42.17   18.28
  -7   8  10   25.38   16.51
  -7  -8 -10   20.27   14.44
  -7   8  10   18.42   11.98
  -7  -8 -11    8.59    5.76
  -7   8 -11   14.07   15.76
   7   8 -11   27.94   12.54
   7  -8  11   84.10   25.81
  -7  -8  11   16.94   13.33
  -7   8  11   20.53   17.12
  -7  -8  11   34.56   16.74
  -7   8  11   29.07   13.46
  -7  -8 -12   29.85   20.32
  -7   8 -12   19.63   17.58
   7  -8  12   37.24   21.38
  -7  -8  12    3.02   14.97
  -7   8  12    5.02   16.47
  -7  -8  12   47.28   22.90
  -7  -8 -13   30.07   16.21
  -7   8 -13   13.39   15.40
   7  -8  13   51.61   27.26
  -7  -8  13   26.32   15.30
  -7   8  13   41.64   24.15
  -7  -8  13   21.11   13.78
  -7   9   0    4.92    8.26
   7   9   0    0.41   13.11
   7  -9   0   57.03   21.42
  -7  -9   0   17.87   16.96
  -7   9  -1   26.20   10.22
  -7   9   1   28.43    9.59
   7   9  -1   22.85   13.84
   7   9   1   33.39   16.89
   7  -9  -1   44.06   26.02
   7  -9   1   66.59   20.87
  -7  -9  -1   34.79   18.67
  -7  -9   1   17.94   14.28
  -7  -9  -2    7.23   13.28
  -7   9  -2   -0.80    9.92
  -7   9   2    7.86    6.68
   7   9  -2    5.22   12.48
   7  -9  -2   25.84   11.50
   7  -9   2   -2.51   16.51
  -7  -9  -2   31.51   14.55
  -7  -9   2   52.38   24.10
  -7  -9  -3  174.10   34.76
  -7   9  -3  278.06   44.77
   7   9  -3  276.47   45.29
   7  -9  -3  225.06   42.03
   7  -9   3  190.38   39.69
  -7  -9   3  203.17   31.80
  -7  -9   3  178.34   34.81
  -7  -9  -3  160.36   33.78
  -7  -9  -4   50.72   20.21
  -7   9  -4   67.85   19.75
   7   9  -4   40.45   15.06
   7  -9  -4   29.61   15.00
   7  -9   4   48.26   18.33
  -7  -9   4   13.30    7.86
  -7  -9  -4   42.18   20.43
  -7  -9   4   38.07   17.85
  -7  -9  -5   25.82   16.65
  -7   9  -5   23.88   19.79
   7   9  -5   34.07   13.84
   7  -9  -5    7.49   11.98
   7  -9   5    0.99   14.57
  -7  -9   5   15.85    8.75
  -7  -9  -5   25.82   17.36
  -7  -9   5   30.40   18.40
  -7  -9  -6   68.56   25.96
  -7   9  -6   69.46   21.05
   7   9  -6   41.43   13.94
   7  -9  -6   32.02   15.88
   7  -9   6   36.89   25.89
  -7  -9   6   29.21   14.65
  -7  -9   6   98.44   26.02
  -7  -9  -6   27.54   13.16
  -7  -9  -7   30.74    9.98
  -7   9  -7    6.02   15.32
   7   9  -7   26.28   17.20
   7  -9  -7   32.27   15.94
   7  -9   7   64.09   28.50
  -7  -9   7    6.64   10.02
  -7  -9  -7   33.13   19.93
  -7  -9   7   40.04   17.91
  -7  -9  -8   41.26   11.33
  -7   9  -8   47.81   23.31
   7   9  -8   11.17   12.39
   7  -9  -8   37.77   18.42
   7  -9   8   19.76   17.45
  -7  -9   8   31.58   15.66
  -7  -9   8   30.64   17.31
  -7  -9  -8   25.91   11.66
  -7  -9  -9   33.43   11.53
  -7   9  -9   47.59   21.08
   7   9  -9    7.93   11.40
   7  -9  -9   26.76   14.53
  -7  -9   9   19.29   17.06
  -7  -9  -9    6.25   11.77
  -7  -9   9   -1.97   14.26
  -7  -9 -10   32.84   17.25
  -7   9 -10    9.08   17.39
   7   9 -10    3.90   12.23
   7  -9  10   75.41   24.24
  -7  -9  10   15.26   12.85
  -7   9  10   66.82   20.77
  -7  -9 -10   34.60   15.12
  -7  -9  10   53.46   24.17
  -7   9  10   23.16   17.45
  -7  -9 -11   34.88   22.19
  -7   9 -11  171.70   32.78
   7  -9  11   77.96   32.10
  -7  -9  11   28.95   13.42
  -7   9  11   86.28   30.66
  -7  -9  11   80.02   28.87
  -7   9  11   52.36   22.84
  -7  -9 -12   33.45   19.69
  -7   9 -12   -3.70   15.53
   7  -9  12   37.22   29.06
  -7  -9  12   20.34   14.03
  -7   9  12   21.41   15.95
  -7  -9  12   12.63   13.85
  -7  10   0    6.28   10.03
   7  10   0    6.50   15.94
   7 -10   0  -22.38   13.28
  -7 -10   0   11.17   16.07
  -7  10  -1   24.93   11.00
  -7  10   1   39.31   11.09
   7  10  -1   35.95   15.33
   7  10   1   32.67   16.86
   7 -10  -1   34.83   16.50
   7 -10   1   37.33   18.28
  -7 -10  -1  111.54   28.69
  -7 -10   1   49.60   19.73
  -7  10  -2   24.66   14.91
  -7  10   2    8.95    6.93
   7  10  -2   15.32   12.03
   7  10   2    4.88   14.08
   7 -10  -2   34.69   11.87
   7 -10   2   27.75   18.20
  -7 -10  -2   23.04   15.70
  -7 -10   2   25.45   16.57
  -7 -10  -3   35.72   18.51
  -7  10  -3   36.84   13.50
   7  10  -3   55.31   17.59
   7 -10  -3   44.21   27.21
   7 -10   3   57.09   18.86
  -7 -10   3   54.68   23.88
  -7 -10  -3   27.19   17.56
  -7 -10  -4   52.71   16.58
  -7  10  -4   36.33   16.32
   7  10  -4   32.32   14.98
   7 -10  -4   39.48   17.95
   7 -10   4   48.26   22.85
  -7 -10  -4   47.89   22.06
  -7 -10   4   40.37   17.51
  -7 -10  -5   51.56   15.25
  -7  10  -5   51.16   16.42
   7  10  -5   68.16   22.28
   7 -10  -5   49.48   14.61
   7 -10   5  130.13   27.13
  -7 -10  -5   75.79   23.37
  -7 -10   5   54.00   19.39
  -7 -10  -6   42.87   18.30
  -7  10  -6   43.72   20.48
   7  10  -6    9.33   18.40
   7 -10  -6   18.08   10.77
   7 -10   6    1.90   14.49
  -7 -10   6    8.50    8.42
  -7 -10   6   54.27   24.68
  -7 -10  -6    4.65   12.54
  -7 -10  -7  114.62   39.89
  -7  10  -7   85.39   26.23
   7  10  -7  105.43   28.63
   7 -10  -7   30.17   15.73
   7 -10   7  108.15   31.79
  -7 -10   7   78.96   21.25
  -7 -10   7   57.03   21.32
  -7 -10  -7   48.63   19.49
  -7 -10  -8   62.65   25.83
  -7  10  -8   47.03   24.23
   7  10  -8   56.38   21.51
   7 -10  -8   54.00   22.40
   7 -10   8   40.35   26.67
  -7 -10   8   97.93   24.34
  -7 -10  -8   60.03   20.81
  -7 -10   8   30.03   17.90
  -7 -10  -9   30.35   21.47
  -7  10  -9   23.39   15.72
   7  10  -9   13.17   12.10
   7 -10  -9   20.85   16.83
   7 -10   9   39.95   25.72
  -7 -10   9   20.09   11.73
  -7 -10  -9   18.13   12.41
  -7 -10   9   25.65   16.13
  -7 -10 -10   56.22   18.54
  -7  10 -10    4.64   15.90
   7  10 -10   17.91   12.40
   7 -10  10   17.62   15.76
  -7 -10  10   -4.57   12.14
  -7  10  10   38.43   17.60
  -7 -10  10   20.00   23.59
  -7 -10 -11   56.98   21.15
  -7  10 -11   39.39   16.84
   7  10 -11    5.17   12.03
   7 -10  11   32.18   25.00
  -7 -10  11   13.62   13.25
  -7  10  11   30.44   16.99
  -7 -10  11    9.31   14.91
  -7  10  11   29.09   18.55
   7  11   0   26.12   14.81
   7 -11   0   32.38   10.56
  -7 -11   0   54.59   23.09
  -7  11  -1    4.52    9.84
  -7  11   1   13.18    9.26
   7  11  -1   51.31   19.97
   7  11   1   33.16   21.69
   7 -11  -1   27.07   12.42
   7 -11   1   28.09    8.39
  -7 -11   1   39.15   24.45
  -7 -11  -1   23.74   16.81
  -7  11  -2    9.10   11.00
   7  11  -2   21.72   13.74
   7  11   2   33.54   17.24
   7 -11  -2   11.46   11.27
   7 -11   2   48.62   18.21
  -7 -11  -2   57.17   25.55
  -7  11  -3   56.53   16.68
   7  11  -3    9.55   15.12
   7  11   3   82.19   28.22
   7 -11  -3   59.46   20.86
   7 -11   3   75.12   21.18
  -7 -11   3   61.78   19.60
  -7 -11  -3   57.55   20.80
  -7  11  -4   35.38   15.03
   7  11  -4    3.74   12.14
   7 -11  -4    1.74    7.22
   7 -11   4   13.69   18.96
  -7 -11   4   46.77   27.05
  -7 -11  -4   69.74   24.96
  -7 -11  -5   16.31   14.13
  -7  11  -5   55.84   19.94
   7  11  -5   31.89   14.43
   7 -11  -5   91.73   26.27
   7 -11   5   61.71   27.15
  -7 -11   5   83.67   29.52
  -7 -11  -5  118.59   34.31
  -7 -11  -6   48.00   16.99
  -7  11  -6   47.97   21.85
   7  11  -6   27.02   13.48
   7 -11  -6   52.48   22.53
   7 -11   6   15.52   16.80
  -7 -11   6   40.68   17.20
  -7 -11  -6    5.70   14.47
  -7 -11  -7   82.88   39.44
  -7  11  -7   47.86   18.87
   7  11  -7   53.14   24.01
   7 -11  -7   50.71   19.89
   7 -11   7   32.88   17.34
  -7 -11  -7   92.46   30.01
  -7 -11   7   77.17   26.28
  -7 -11  -8   42.82   20.09
  -7  11  -8   13.46   16.39
   7  11  -8    7.56   12.94
   7 -11  -8   39.48   15.81
   7 -11   8   46.85   28.02
  -7 -11   8   51.74   21.77
  -7 -11  -8   16.01   13.08
  -7 -11  -9   23.71   17.74
  -7  11  -9   21.24   15.44
   7  11  -9   42.22   20.91
   7 -11  -9    2.19   12.17
   7 -11   9   35.08   18.63
  -7 -11  -9    6.15   12.03
  -7 -11   9   27.11   15.42
  -7 -11 -10   32.04   18.08
  -7  11 -10   25.96   17.82
   7  11 -10   41.74   18.26
   7 -11  10   33.73   18.10
  -7  11  10   43.82   17.80
  -7 -11  10    9.24   15.64
  -7  12   0   16.20   14.82
   7  12   0   46.95   23.72
   7 -12   0   47.36   12.55
  -7 -12   0   48.55   17.66
  -7  12  -1  114.79   28.18
  -7  12   1   48.86   12.25
   7  12  -1   58.48   21.79
   7  12   1   88.96   28.25
   7 -12  -1   53.45   19.29
   7 -12   1   44.49   20.01
  -7 -12   1   64.52   22.87
  -7 -12  -1  101.34   28.49
  -7  12  -2   41.75   16.54
   7  12  -2   26.65   18.06
   7  12   2   -3.80   14.46
   7 -12  -2   66.40   26.44
   7 -12   2    9.23   11.10
  -7 -12   2   84.28   23.81
  -7 -12  -2   15.80   16.44
  -7  12  -3   50.84   15.87
   7  12  -3   10.82   14.54
   7  12   3   26.62   16.16
   7 -12  -3   37.05    8.31
   7 -12   3    1.01   15.73
  -7 -12   3   52.74   26.36
  -7 -12  -3   36.62   18.13
  -7  12  -4   59.11   24.57
   7  12  -4   98.06   32.16
   7  12   4   64.64   24.45
   7 -12  -4   42.19   20.42
   7 -12   4   46.22   20.16
  -7 -12   4   98.77   35.84
  -7 -12  -4   22.56   22.08
  -7  12  -5   10.57   17.06
   7  12  -5   16.82   13.82
   7  12   5   17.64   19.36
   7 -12  -5   -8.49   13.97
   7 -12   5    8.52   16.54
  -7 -12   5    8.19   18.26
  -7 -12  -5   39.90   21.25
  -7 -12  -6   46.61   25.41
  -7  12  -6   58.34   20.35
   7  12  -6   64.65   24.89
   7 -12  -6   10.78    9.76
   7 -12   6   23.65   17.45
  -7 -12  -6   24.84   15.06
  -7 -12   6   63.08   26.99
  -7 -12  -7   26.98   14.82
  -7  12  -7   53.07   26.46
   7  12  -7   45.17   21.51
   7 -12  -7   26.07   13.88
   7 -12   7   18.95   18.77
  -7 -12   7    2.76   17.45
  -7 -12  -7   18.60   14.42
  -7 -12  -8   87.95   23.07
  -7  12  -8   47.97   19.60
   7  12  -8   -4.21   11.81
   7 -12  -8   46.23   16.58
   7 -12   8   27.16   16.21
  -7 -12  -8   46.41   21.83
  -7 -12   8   88.93   28.77
   7  13   0   -5.59   15.40
   7 -13   0  110.93   30.86
  -7 -13   0   13.12   17.45
  -7  13  -1    9.83   12.78
   7  13  -1   52.73   19.92
   7  13   1   23.06   17.79
   7 -13  -1   13.32   14.31
   7 -13   1   19.85   17.27
  -7 -13   1   -4.75   14.40
  -7 -13  -1   20.62   19.06
  -7  13  -2   13.15   12.94
   7  13  -2   18.33   15.05
   7  13   2   53.68   26.75
   7 -13  -2   -4.77   14.25
   7 -13   2   38.54   10.26
  -7 -13   2   38.64   17.24
  -7 -13  -2   -0.85   15.78
  -7  13  -3    5.00   11.75
   7  13  -3   24.40   17.67
   7  13   3  103.79   34.67
   7 -13  -3   24.50   13.62
   7 -13   3   27.83   16.57
  -7 -13   3   14.83   17.95
  -7 -13  -3   17.68   16.19
  -7  13  -4   17.11   13.34
   7  13  -4   24.73   16.34
   7  13   4   16.37   17.45
   7 -13  -4   34.53   15.88
   7 -13   4   33.15   18.11
  -7 -13  -4   81.65   30.94
  -7 -13   4  -13.25   18.78
  -7  13  -5   53.00   21.98
   7  13  -5   22.86   14.64
   7  13   5   44.42   19.65
   7 -13  -5   14.21   11.97
   7 -13   5   39.00   20.00
  -7 -13  -5   28.46   15.51
  -7 -13   5    4.92   18.30
  -7  13  -6   20.71   15.53
   7  13  -6   19.51   14.06
   7  13   6   33.49   23.85
   7 -13  -6   37.77   10.52
   7 -13   6   18.70   17.26
  -7 -13  -6    1.36   13.60
  -7 -13   6   32.18   18.25
  -8   0   0  144.00   30.83
   8   0   0  174.37   39.52
  -8   0   0  230.26   27.87
  -8   0   1  158.78   28.27
  -8   0  -1  248.47   35.91
   8   0  -1  238.80   41.47
   8   0   1  229.04   47.54
  -8   0  -1  259.29   31.13
  -8   0   1  142.46   30.80
  -8   0   2  199.05   35.90
  -8   0  -2  270.84   61.87
   8   0  -2  191.04   15.69
   8   0  -2  302.32   48.81
   8   0   2  261.87   37.83
  -8   0  -2  199.36   27.52
  -8   0  -3  240.20   29.10
   8   0  -3  194.00   51.51
   8   0   3  251.79   48.80
  -8   0   3  198.41   30.08
  -8   0  -3  236.53   29.25
  -8   0  -4  275.71   31.79
   8   0  -4  302.25   21.26
   8   0  -4  292.49   60.17
   8   0   4  349.97   65.58
  -8   0   4  318.05   35.20
  -8   0  -4  272.46   29.91
  -8   0  -5   54.01   18.32
   8   0  -5    9.66   14.77
   8   0   5   68.98   22.80
  -8   0   5   38.67   23.79
  -8   0  -5   24.63   13.28
  -8   0  -6  709.24   57.98
   8   0  -6  712.87   58.23
   8   0   6  797.22  155.64
  -8   0   6  745.19  146.36
  -8   0  -6  729.07   59.55
  -8   0  -7  301.91   40.05
   8   0   7  230.63   33.10
  -8   0   7  202.40   33.71
  -8   0   7  368.22   45.37
  -8   0  -7  272.01   35.25
  -8   0  -8   49.71   18.98
   8   0   8    7.60   13.23
  -8   0   8    2.14   15.78
  -8   0   8   64.01   24.46
  -8   0  -8   12.89   12.13
  -8   0  -9  163.10   38.35
   8   0   9   26.43   13.12
  -8   0   9   80.38   27.69
  -8   0   9   30.49   15.48
  -8   0  -9   44.14   16.99
  -8   0 -10  177.97   35.11
   8   0  10  120.82   26.53
  -8   0  10  104.48   29.75
  -8   0  10  180.67   36.46
  -8   0 -10  152.06   28.83
  -8   0 -11   56.53   21.69
   8   0  11  143.97   31.76
  -8   0  11   30.57   21.20
  -8   0  11   96.27   22.54
  -8   0 -12   26.03   16.60
   8   0  12   12.00   14.27
  -8   0  12   25.98   17.44
  -8   0  12   14.60   12.86
  -8   0 -12    8.69   10.20
  -8   0 -13   47.92   17.54
   8   0  13   19.07   13.81
  -8   0  13   44.32   24.44
  -8   0  13   32.91   12.92
  -8   0 -14   26.16   17.16
   8   0  14   13.23   14.33
  -8   0 -15   14.97   15.94
   8   0  15   44.05   22.42
  -8   0  15   19.27   20.98
  -8  -1   0    4.72    5.11
  -8   1   0   23.60    7.21
   8   1   0   31.57   15.30
   8  -1   0   20.36   10.49
  -8  -1   0   23.53   14.16
  -8   1   0   19.13   20.28
  -8  -1   1  139.87   31.65
  -8   1   1  126.41   33.18
  -8  -1  -1  121.89   31.98
  -8   1  -1  166.63   31.60
   8  -1  -1  153.28   14.42
   8   1  -1  167.26   39.04
   8  -1  -1  225.92   40.42
   8   1   1  248.43   45.40
   8  -1   1  161.11   25.53
  -8  -1   1  189.61   26.41
  -8  -1  -1  167.18   25.35
  -8   1  -1  155.72   23.98
  -8   1   1  171.40   25.21
  -8  -1   2   42.86   11.42
  -8   1   2   10.18    3.84
  -8  -1  -2   34.12   10.24
  -8   1  -2   17.00    8.49
   8   1  -2   18.41    8.05
   8  -1  -2   15.54    6.39
   8   1  -2   41.20   17.22
   8  -1  -2   58.97   21.05
   8   1   2   22.83   16.92
   8  -1   2   19.44   13.25
  -8  -1   2   53.53   20.58
  -8  -1  -2   26.61   14.88
  -8   1   2   14.74   16.34
  -8   1  -2   36.35   22.28
  -8   1   3  176.15   12.96
  -8  -1  -3  175.21   34.02
  -8   1  -3  205.95   20.41
   8   1  -3  201.39   15.94
   8   1  -3  214.14   42.62
   8  -1  -3  222.94   44.59
   8   1   3  202.92   33.01
   8  -1   3  218.59   35.28
  -8  -1   3  236.43   30.98
  -8  -1  -3  264.97   30.35
  -8   1   3  323.73   37.98
  -8   1  -3  209.04   29.08
  -8  -1  -4    8.12   12.69
  -8   1  -4   36.95   18.27
   8   1  -4   10.11    6.11
   8   1  -4   49.13   22.96
   8  -1  -4   25.32   12.45
   8   1   4   18.34   14.19
   8  -1   4   59.79   22.75
  -8  -1   4   79.60   27.61
  -8  -1  -4   20.78   12.86
  -8   1   4   20.54   16.54
  -8   1  -4   43.07   20.93
  -8  -1  -5  286.63   61.32
  -8   1  -5  270.42   27.86
   8   1  -5  245.51   17.96
   8   1  -5  260.43   30.85
   8  -1  -5  268.77   44.84
   8   1   5  336.08   41.55
   8  -1   5  248.96   28.51
  -8  -1   5  291.52   33.47
  -8  -1  -5  277.58   31.20
  -8   1   5  270.86   33.17
  -8   1  -5  353.22   35.22
  -8  -1  -6  300.53   32.77
  -8   1  -6  339.72   36.53
   8  -1  -6  296.31   35.04
   8   1   6  315.16   32.03
   8  -1   6  292.66   32.11
  -8  -1   6  365.32   42.35
  -8  -1   6  290.78   30.16
  -8   1   6  280.29   33.67
  -8  -1  -6  334.48   34.22
  -8   1  -6  272.94   32.16
  -8  -1  -7   64.17   21.31
  -8   1  -7   87.61   23.76
   8   1   7  122.77   23.18
   8  -1   7   55.86   19.31
  -8  -1   7   58.96   24.41
  -8   1   7   17.94   14.73
  -8  -1   7   34.76   20.64
  -8   1   7   81.57   22.40
  -8  -1  -7   39.40   14.79
  -8   1  -7   78.44   20.72
  -8  -1  -8  105.62   23.56
  -8   1  -8   48.72   17.66
   8   1   8  110.20   23.17
   8  -1   8  111.30   24.18
  -8  -1   8   56.96   18.81
  -8   1   8  126.25   31.74
  -8  -1   8   87.60   22.91
  -8   1   8   88.92   22.64
  -8  -1  -8   69.95   18.70
  -8   1  -8   87.38   16.70
  -8  -1  -9   37.77   22.47
  -8   1  -9   46.72   16.88
   8   1   9   40.47   13.38
   8  -1   9   51.54   15.05
  -8  -1   9   21.53   18.75
  -8   1   9   23.00   16.83
  -8  -1   9   -0.73   12.29
  -8   1   9   57.47   21.08
  -8  -1  -9   37.29   13.08
  -8   1  -9   15.47   11.47
  -8  -1 -10  229.06   41.10
  -8   1 -10  144.20   30.23
   8   1  10  192.37   33.37
   8  -1  10  242.43   42.80
  -8  -1  10  223.11   42.06
  -8   1  10  145.94   33.55
  -8  -1  10  182.45   31.87
  -8   1  10  210.94   37.54
  -8  -1 -10  295.74   47.05
  -8   1 -10  167.68   30.67
  -8  -1 -11   10.83   12.32
  -8   1 -11   30.80   14.42
   8   1  11   72.23   23.06
   8  -1  11   29.05   20.29
  -8  -1  11    6.70   14.32
  -8   1  11   69.70   27.16
  -8  -1  11   57.73   16.35
  -8   1  11   27.28   20.31
  -8  -1 -11    7.49   10.00
  -8   1 -11   33.74   15.14
  -8  -1 -12   58.21   21.08
  -8   1 -12   73.51   23.25
   8   1  12   92.55   23.20
   8  -1  12   62.13   23.27
  -8  -1  12   94.99   31.52
  -8   1  12   69.98   28.37
  -8  -1  12   42.38   12.82
  -8   1  12   31.66   13.11
  -8  -1 -12   46.99   16.40
  -8   1 -12   10.01   10.19
  -8  -1 -13   66.53   21.32
  -8   1 -13  112.02   31.54
   8  -1  13   61.95   19.67
   8   1  13   70.97   24.26
  -8  -1  13   50.57   22.24
  -8   1  13   52.79   22.83
  -8  -1  13  145.47   34.88
  -8   1  13  102.62   26.73
  -8  -1 -14   64.28   24.12
  -8   1 -14  117.69   34.93
   8   1  14   50.41   18.27
   8  -1  14   50.73   23.82
  -8  -1  14  121.39   36.11
  -8   1  14   42.85   23.25
  -8  -1  14   31.97   13.21
  -8  -1 -15   30.07   21.82
  -8   1 -15   12.95   19.47
   8  -1  15   57.45   23.12
   8   1  15   24.37   14.61
  -8  -1  15   57.38   30.56
  -8   1  15   11.36   20.79
  -8  -2   0   51.40   12.85
  -8   2   0  102.80   20.72
   8   2   0   78.92   18.76
   8  -2   0   54.89   19.50
  -8   2   0   70.56   24.20
  -8  -2   1   88.20   21.61
  -8  -2  -1   47.99   13.50
  -8   2   1   53.92   14.96
  -8   2  -1   59.07   14.03
   8  -2  -1   36.73   11.04
   8   2  -1   51.32   19.81
   8   2   1   36.84   13.80
   8  -2  -1  123.53   35.85
   8  -2   1   66.94   25.33
  -8  -2   1   58.82   21.09
  -8  -2  -1   59.24   18.22
  -8   2   1   71.57   21.96
  -8  -2   2  122.09   22.96
  -8   2   2  100.69   24.02
  -8  -2  -2  121.58   41.84
  -8   2  -2  106.86   21.43
   8   2  -2  124.86   34.57
   8  -2  -2   61.10   26.28
   8   2   2   96.59   23.34
   8  -2   2  158.21   33.09
  -8  -2   2  174.48   28.85
  -8  -2  -2  118.19   28.56
  -8   2   2  180.24   25.99
  -8   2  -2  171.85   26.57
  -8   2   3   34.17   10.07
  -8  -2  -3   71.53   19.32
  -8   2  -3   61.04   14.98
   8   2  -3   63.36   12.94
   8   2  -3   60.97   22.20
   8  -2  -3  111.19   26.47
   8   2   3   96.28   20.51
   8  -2   3   50.30   15.77
  -8  -2   3   44.17   17.96
  -8  -2  -3  112.68   22.61
  -8   2   3   72.94   20.38
  -8   2  -3   66.98   19.08
  -8  -2  -4   22.72   14.61
  -8   2  -4   22.01    9.81
   8   2  -4    6.30    5.77
   8   2  -4   14.78   13.90
   8  -2  -4    9.77    8.44
   8   2   4    2.12   11.02
   8  -2   4   29.39   19.78
  -8  -2   4   27.17   17.32
  -8  -2  -4   37.35   15.21
  -8   2   4   36.05   16.23
  -8   2  -4   16.91   22.03
  -8  -2  -5   67.47   20.70
  -8   2  -5   30.99   12.76
   8   2  -5   32.73    8.97
   8  -2  -5   69.60   18.11
   8   2   5   44.16   13.13
   8  -2   5   54.15   22.02
  -8  -2   5   29.38   13.90
  -8  -2   5   77.36   22.73
  -8  -2  -5   11.56   14.07
  -8   2   5    7.98   14.31
  -8   2  -5   42.60   16.73
  -8  -2  -6  197.73   36.85
  -8   2  -6  217.24   25.42
   8  -2  -6  289.01   39.24
   8   2   6  256.41   27.40
   8  -2   6  232.38   30.28
  -8  -2   6  212.31   29.89
  -8  -2   6  357.59   35.81
  -8  -2  -6  207.60   29.87
  -8   2   6  254.98   34.69
  -8   2  -6  256.53   31.11
  -8  -2  -7  332.52   85.17
  -8   2  -7  350.00   45.32
   8  -2  -7  369.07   48.73
   8   2   7  223.84   29.39
   8  -2   7  323.05   42.23
  -8  -2   7  416.83   51.53
  -8  -2   7  321.37   44.45
  -8  -2  -7  306.72   37.69
  -8   2   7  322.70   47.22
  -8   2  -7  318.50   41.06
  -8  -2  -8  312.95   60.45
  -8   2  -8  269.73   44.62
   8   2   8  267.03   42.45
   8  -2   8  296.67   52.63
  -8  -2   8  283.59   46.57
  -8   2   8  222.23   41.28
  -8  -2   8  206.18   38.42
  -8  -2  -8  257.69   40.79
  -8   2   8  224.37   38.97
  -8   2  -8  165.95   30.93
  -8  -2  -9   55.92   18.06
  -8   2  -9   38.46   16.09
   8   2   9   61.69   17.63
   8  -2   9   49.75   16.99
  -8  -2   9  140.72   30.47
  -8  -2   9   62.44   17.32
  -8  -2  -9   30.64   11.73
  -8   2   9  104.07   24.68
  -8   2  -9   37.47   13.86
  -8  -2 -10   29.80   14.59
  -8   2 -10    3.78   12.94
   8   2  10   50.30   17.82
   8  -2  10   49.03   16.35
  -8  -2  10   63.40   22.17
  -8   2  10   43.12   17.11
  -8  -2  10   82.03   22.81
  -8  -2 -10   54.53   18.02
  -8   2  10   50.26   19.64
  -8   2 -10   18.76   12.61
  -8  -2 -11   94.99   19.70
  -8   2 -11   48.33   21.15
   8   2  11   78.29   16.39
   8  -2  11  145.85   29.65
  -8  -2  11  140.08   31.07
  -8   2  11   75.79   21.36
  -8  -2  11  108.00   24.86
  -8  -2 -11  111.09   20.69
  -8   2  11  140.97   28.88
  -8   2 -11  163.24   31.37
  -8  -2 -12   54.38   24.70
  -8   2 -12   42.55   24.26
   8   2  12   28.36   11.94
   8  -2  12   68.62   22.87
  -8   2  12   23.25   17.44
  -8  -2  12   50.51   21.14
  -8   2  12    9.81   11.71
  -8   2 -12   23.00   11.37
  -8  -2 -13   41.07   18.15
  -8   2 -13   44.40   18.37
   8   2  13    5.64   11.41
   8  -2  13   21.49   16.59
  -8  -2  13   59.83   32.11
  -8   2  13    3.52   19.32
  -8  -2  13   10.28   11.62
  -8   2  13    1.24   11.07
  -8  -2 -14  145.64   28.56
  -8   2 -14  112.08   33.85
   8   2  14  156.06   24.04
   8  -2  14   66.19   23.88
  -8  -2  14   66.81   24.45
  -8   2  14   51.64   23.63
  -8  -2  14  181.19   27.94
  -8  -3   0   38.34   12.23
  -8   3   0    7.87    5.50
   8   3   0   36.87   12.22
   8  -3   0   21.25   13.25
  -8   3   0   20.84   16.52
  -8  -3   1  620.39  115.02
  -8  -3  -1  527.54   55.52
  -8   3   1  611.41   99.42
   8   3  -1  574.30   85.56
   8   3   1  538.08   79.70
   8  -3  -1  606.39  141.23
   8  -3   1  638.85  141.28
  -8  -3  -1  500.46   45.49
  -8  -3   1  629.70  106.58
  -8   3  -1  589.20   50.81
  -8   3   1  688.20  117.79
  -8  -3   2    9.65    7.29
  -8  -3  -2    7.20    7.30
  -8   3   2   12.13    5.73
  -8   3  -2    8.71    7.67
   8   3  -2   29.44   12.51
   8   3   2   28.11   12.14
   8  -3  -2   18.80   14.20
   8  -3   2   51.47   17.16
  -8  -3   2    0.14   15.39
  -8  -3  -2   15.39   14.62
  -8   3   2   37.04   19.09
  -8   3  -2   23.65   15.53
  -8   3   3    9.27    2.54
  -8  -3  -3   24.91    9.74
  -8   3  -3   32.69   10.86
   8   3  -3   16.33    8.77
   8   3  -3   43.48   13.76
   8  -3  -3   46.00   20.52
   8   3   3   52.99   18.64
   8  -3   3   46.61   17.44
  -8  -3   3   48.65   24.61
  -8  -3  -3   27.13   15.87
  -8   3   3   19.28   15.56
  -8   3  -3   12.22   15.90
  -8  -3  -4   77.75   20.51
  -8   3  -4  127.45   18.15
   8   3  -4   80.50   15.42
   8  -3  -4  100.36   26.93
   8   3   4  102.89   24.60
   8  -3   4  108.16   25.46
  -8  -3   4  104.87   18.32
  -8  -3   4   84.85   24.72
  -8  -3  -4   70.95   18.48
  -8   3   4   97.74   23.21
  -8   3  -4   84.60   21.54
  -8  -3  -5  216.27   41.98
  -8   3  -5  203.37   24.65
   8   3  -5  180.52   16.74
   8  -3  -5  214.70   34.69
   8   3   5  124.27   17.38
   8  -3   5  132.09   22.26
  -8  -3   5  157.19   24.90
  -8  -3   5  144.03   25.48
  -8  -3  -5  126.31   23.20
  -8   3   5  155.30   22.19
  -8   3  -5  130.04   20.22
  -8  -3  -6   27.01   16.27
  -8   3  -6   13.55   12.62
   8   3  -6   23.33    9.09
   8  -3  -6   28.05   19.68
   8   3   6   24.56   16.10
   8  -3   6   22.36   15.69
  -8  -3   6   26.81   14.46
  -8  -3   6   29.19   16.96
  -8  -3  -6   33.55   14.92
  -8   3   6   26.71   16.10
  -8   3  -6   25.75   17.37
  -8  -3  -7   76.63   23.37
  -8   3  -7   51.44   18.43
   8  -3  -7  112.93   26.57
   8   3   7  111.54   19.72
   8  -3   7   51.03   19.23
  -8  -3   7   83.62   23.03
  -8  -3   7  111.90   29.52
  -8  -3  -7  113.55   20.88
  -8   3   7   28.86   17.89
  -8   3  -7   74.98   22.60
  -8  -3  -8  105.04   31.36
  -8   3  -8  124.22   26.44
   8   3   8   91.41   21.07
   8  -3   8  233.96   43.57
  -8  -3   8  111.26   28.25
  -8  -3   8  152.03   32.02
  -8   3   8  106.69   26.03
  -8   3  -8   84.85   21.64
  -8  -3  -9   68.79   15.14
  -8   3  -9   20.70   14.82
   8   3   9   27.97   10.59
   8  -3   9   54.68   18.48
  -8  -3   9   60.76   19.17
  -8   3   9   50.31   21.77
  -8  -3   9   54.55   18.87
  -8  -3  -9   71.34   20.62
  -8   3   9   34.28   19.09
  -8   3  -9   54.87   20.03
  -8  -3 -10   32.85   10.12
  -8   3 -10   86.08   19.93
   8   3  10   27.38   15.49
   8  -3  10   22.41   13.70
  -8  -3  10   37.56   18.55
  -8   3  10   21.07   15.61
  -8  -3  10   16.71   13.60
  -8  -3 -10   28.72   14.87
  -8   3  10  100.41   22.70
  -8   3 -10   29.76   13.24
  -8  -3 -11   19.53   10.34
  -8   3 -11    8.48   15.81
   8   3  11   30.44   14.79
   8  -3  11   -0.38   14.55
  -8  -3  11   41.79   19.80
  -8   3  11   75.64   28.43
  -8  -3  11   23.43   14.52
  -8  -3 -11   -6.35    9.96
  -8   3  11   35.93   14.24
  -8   3 -11   -6.22   11.52
  -8  -3 -12   38.03   12.37
  -8   3 -12   11.67   16.71
   8   3  12   47.50   19.44
   8  -3  12   28.36   16.35
  -8  -3  12   38.81   25.34
  -8   3  12   31.14   25.80
  -8  -3  12   51.02   20.81
  -8   3  12   31.07   17.14
  -8   3 -12    2.49   11.43
  -8  -3 -13   28.22   12.39
  -8   3 -13   34.34   21.45
   8   3  13   17.33   10.73
   8  -3  13   72.50   29.36
  -8  -3  13    1.50   15.62
  -8   3  13   34.73   20.20
  -8  -3  13   23.27   17.63
  -8   3  13   35.58   15.06
  -8   3 -13    5.48   10.37
  -8  -3 -14  190.29   49.50
  -8   3 -14  130.67   36.63
   8  -3  14  132.82   36.08
  -8  -3  14  102.12   31.08
  -8   3  14   63.87   24.10
  -8  -3  14   62.19   19.97
  -8  -4   0   19.84   10.01
  -8   4   0   23.49    8.29
   8   4   0    5.68    6.99
   8  -4   0   46.79   19.34
  -8  -4   0   35.96   20.45
  -8   4   0   35.44   26.35
  -8  -4   1  336.13   30.30
  -8  -4  -1  422.20   77.10
  -8   4  -1  433.05   34.28
   8   4  -1  497.62   42.90
   8   4   1  305.13   64.80
   8  -4  -1  425.85   72.70
   8  -4   1  339.33   58.37
  -8  -4  -1  309.06   33.63
  -8  -4   1  353.26   35.37
  -8   4   1  354.98   37.25
  -8   4  -1  379.61   39.70
  -8  -4  -2  191.08   29.13
  -8   4   2  192.73   15.86
  -8   4  -2  246.64   24.24
   8   4  -2  178.10   19.56
   8   4  -2  226.13   24.17
   8   4   2  219.50   34.58
   8  -4  -2  318.53   69.80
   8  -4   2  237.95   45.94
  -8  -4   2  139.43   27.37
  -8  -4  -2  199.78   32.17
  -8   4   2  255.73   34.66
  -8  -4  -3  153.50   27.57
  -8   4  -3  151.92   22.25
   8   4  -3  152.74   18.70
   8  -4  -3  175.86   32.95
   8   4   3  127.00   36.51
   8  -4   3  101.39   22.22
  -8  -4   3  183.76   28.92
  -8  -4   3  125.84   25.07
  -8  -4  -3  169.03   28.47
  -8   4   3  122.72   24.94
  -8  -4  -4  120.43   30.24
  -8   4  -4  151.36   23.95
   8   4  -4  159.24   18.81
   8  -4  -4   80.55   22.33
   8   4   4  100.02   28.35
   8  -4   4  145.59   24.29
  -8  -4   4  111.13   18.97
  -8  -4   4  160.86   27.39
  -8  -4  -4  143.41   21.33
  -8   4   4  159.98   25.83
  -8  -4  -5  189.29   33.75
  -8   4  -5  210.86   26.09
   8   4  -5  241.49   21.56
   8  -4  -5  265.05   54.78
   8   4   5  188.72   40.26
   8  -4   5  312.77   36.72
  -8  -4   5  249.31   29.82
  -8  -4   5  189.35   28.08
  -8  -4  -5  134.10   26.50
  -8   4   5  323.92   35.74
  -8  -4  -6  255.74   53.81
  -8   4  -6  302.98   37.44
   8   4  -6  281.75   31.53
   8  -4  -6  280.89   51.22
   8   4   6  232.93   48.82
   8  -4   6  240.79   34.86
  -8  -4   6  400.88   49.27
  -8  -4   6  298.92   40.72
  -8  -4  -6  333.24   43.87
  -8   4   6  254.56   36.27
  -8  -4  -7   63.47   26.91
  -8   4  -7  100.92   25.64
   8   4  -7   60.52   13.54
   8  -4  -7   29.38   16.74
   8   4   7    5.43   10.49
   8  -4   7   32.85   18.28
  -8  -4   7   75.20   22.19
  -8  -4   7   87.54   27.89
  -8  -4  -7   50.09   15.56
  -8   4   7   48.91   21.84
  -8  -4  -8  131.07   36.58
  -8   4  -8  133.29   28.82
   8  -4  -8   78.50   25.48
   8   4   8   63.08   17.99
   8  -4   8  111.78   27.75
  -8  -4   8   88.15   23.84
  -8  -4   8   71.70   23.57
  -8  -4  -8  104.04   23.58
  -8   4   8  101.75   23.14
  -8   4  -8   80.85   22.69
  -8  -4  -9   16.31   17.63
  -8   4  -9   19.85   13.28
   8   4   9   55.78   18.46
   8  -4   9   10.27   14.55
  -8  -4   9   38.54   21.91
  -8   4   9    2.40   15.54
  -8  -4   9   32.96   20.57
  -8  -4  -9    4.00   10.77
  -8   4   9   28.18   14.17
  -8   4  -9   45.58   20.72
  -8  -4 -10   79.04   20.53
  -8   4 -10   80.09   19.97
   8   4  10   89.42   17.17
   8  -4  10   75.90   22.98
  -8  -4  10  114.46   28.46
  -8   4  10  146.46   34.17
  -8  -4  10   52.24   18.04
  -8  -4 -10  117.40   24.78
  -8   4  10  114.80   25.26
  -8   4 -10   43.36   15.73
  -8  -4 -11    2.37   10.50
  -8   4 -11   14.31   15.07
   8   4  11   25.22    9.90
   8  -4  11    5.77   17.50
  -8  -4  11    9.49   15.64
  -8   4  11   48.31   26.90
  -8  -4  11   19.41   14.17
  -8  -4 -11    4.28   10.42
  -8   4  11   36.80   13.85
  -8   4 -11   18.87   17.02
  -8  -4 -12   42.33   17.52
  -8   4 -12   27.35   15.69
   8  -4  12   25.96   16.11
  -8  -4  12   19.77   24.25
  -8   4  12  -13.05   16.33
  -8  -4  12   25.45   14.40
  -8   4  12   39.27   18.33
  -8   4 -12   53.56   19.96
  -8  -4 -13   12.66   17.90
  -8   4 -13  112.51   37.02
   8  -4  13  129.75   39.38
  -8  -4  13   21.11   17.44
  -8   4  13   13.90   17.60
  -8  -4  13   47.45   18.47
  -8   4  13   24.39   15.17
  -8   4 -13   30.94   13.51
  -8  -4 -14   42.10   22.97
  -8   4 -14   19.32   16.40
   8  -4  14   -3.68   14.04
  -8  -4  14   38.50   25.90
  -8   4  14   66.22   28.31
  -8  -4  14   15.46   11.62
  -8  -5   0  246.06   37.42
  -8   5   0  220.33   20.22
   8   5   0  239.86   26.50
   8  -5   0  271.03   48.17
  -8  -5   0  335.24   34.60
  -8  -5   1  155.70   18.09
  -8  -5  -1  139.13   36.45
  -8   5   1  161.01   16.71
  -8   5  -1  135.34   17.18
   8   5   1  118.75   30.50
   8  -5  -1  181.49   32.23
   8  -5   1  208.96   40.45
  -8  -5  -1  136.92   21.41
  -8  -5   1  164.95   25.40
  -8  -5  -2   27.86   14.02
  -8   5   2   34.43    8.29
  -8   5  -2   64.36   17.98
   8   5  -2   77.18   19.90
   8   5   2   12.91   12.80
   8  -5  -2   38.99   29.08
   8  -5   2   51.45   20.40
  -8  -5   2   16.17   10.50
  -8  -5   2  120.50   27.15
  -8  -5  -2  103.12   22.67
  -8  -5  -3   39.43   11.26
  -8   5  -3   24.83   12.66
   8   5  -3   24.46   13.69
   8   5   3   18.65    9.19
   8  -5  -3   23.97   14.49
   8  -5   3   -5.46   14.36
  -8  -5   3    5.82    9.67
  -8  -5   3   14.25   16.34
  -8  -5  -3    8.73   13.77
  -8   5   3   26.44   16.97
  -8  -5  -4  118.28   28.95
  -8   5  -4  113.02   21.68
   8   5  -4  173.41   23.40
   8  -5  -4  154.95   49.48
   8   5   4  144.93   43.95
   8  -5   4  228.22   36.99
  -8  -5   4  167.32   24.46
  -8  -5   4  130.06   30.80
  -8  -5  -4  201.02   29.36
  -8   5   4  221.69   35.16
  -8  -5  -5   51.90   23.55
  -8   5  -5   78.81   19.23
   8   5  -5   19.48    9.85
   8  -5  -5   16.07   13.80
   8   5   5   24.77   11.24
   8  -5   5  104.37   29.55
  -8  -5   5   34.64   13.25
  -8  -5   5   49.47   20.35
  -8  -5  -5   16.77   19.26
  -8   5   5   43.30   19.34
  -8  -5  -6   38.60   19.17
  -8   5  -6   25.98   12.20
   8   5  -6   16.37    9.00
   8  -5  -6   29.69   11.99
   8   5   6   24.50   10.03
   8  -5   6   52.53   20.04
  -8  -5   6   51.26   22.35
  -8  -5   6   60.22   26.17
  -8  -5  -6   42.63   13.44
  -8   5   6   37.47   16.56
  -8  -5  -7  151.20   41.75
  -8   5  -7  177.46   34.21
   8   5  -7   93.04   18.31
   8  -5   7  153.33   36.93
  -8  -5   7  102.23   26.35
  -8  -5   7  124.69   30.63
  -8  -5  -7  167.62   35.56
  -8   5   7  120.78   27.83
  -8  -5  -8   43.30   20.15
  -8   5  -8   95.67   25.30
   8  -5  -8   91.30   26.73
   8  -5   8   52.81   18.38
  -8  -5   8   63.74   17.15
  -8  -5   8  102.76   23.05
  -8  -5  -8   64.83   21.94
  -8   5   8   49.62   20.90
  -8  -5  -9   61.11   16.80
  -8   5  -9   39.99   18.06
   8  -5   9    8.85   16.28
  -8  -5   9   21.98   21.52
  -8   5   9    9.90   14.94
  -8  -5   9   34.78   16.11
  -8  -5  -9   29.30   12.43
  -8   5   9   12.33   13.54
  -8  -5 -10   42.21   24.89
  -8   5 -10   42.45   16.99
   8  -5  10    9.74   15.53
  -8  -5  10   22.50   14.82
  -8   5  10  -12.80   15.50
  -8  -5  10   12.15   15.90
  -8  -5 -10   19.71   11.27
  -8   5  10    9.05   14.70
  -8  -5 -11   47.94   20.08
  -8   5 -11   34.29   21.88
   8  -5  11   31.73   16.58
  -8  -5  11   45.84   18.31
  -8   5  11   16.88   17.21
  -8  -5  11   67.16   20.73
  -8  -5 -11   41.89   15.07
  -8   5  11   53.75   19.79
  -8  -5 -12   16.66   19.98
  -8   5 -12   30.31   16.32
   8  -5  12   13.04   16.84
  -8  -5  12   39.67   22.17
  -8   5  12   11.21   19.29
  -8  -5  12   48.54   22.32
  -8   5  12   41.70   19.96
  -8   5 -12   28.72   12.99
  -8  -5 -13   99.12   35.08
  -8   5 -13  118.42   37.65
   8  -5  13   58.67   27.73
  -8  -5  13   29.72   17.14
  -8   5  13   74.03   30.57
  -8  -5  13  126.85   38.85
  -8   5 -13   36.66   13.54
  -8  -6   0   19.22   11.18
  -8   6   0   13.33    7.31
   8  -6   0   29.65   14.55
  -8  -6   0    3.69    8.83
  -8  -6   0   -1.83   14.05
  -8  -6  -1  105.60   25.14
  -8   6   1  116.41   15.72
  -8   6  -1  163.34   21.12
   8   6  -1  125.21   21.67
   8   6   1  152.44   20.65
   8  -6  -1  105.46   28.52
   8  -6   1  105.73   61.40
  -8  -6   1  118.11   19.05
  -8  -6  -1   92.63   21.20
  -8  -6  -2   42.56   17.88
  -8   6   2   75.43   11.91
  -8   6  -2  182.20   26.00
   8   6  -2  107.74   24.32
   8   6   2   96.63   17.99
   8  -6  -2  125.37   26.08
   8  -6   2  101.33   24.07
  -8  -6   2   97.46   16.82
  -8  -6   2   74.64   25.67
  -8  -6  -2   94.34   22.83
  -8  -6  -3  103.57   36.11
  -8   6  -3   77.58   18.02
   8   6  -3   83.07   16.80
   8   6   3   43.27   15.63
   8  -6  -3   99.76   28.57
   8  -6   3   68.09   24.69
  -8  -6   3  104.03   19.58
  -8  -6   3   86.13   23.50
  -8  -6  -3   62.52   20.26
  -8  -6  -4  148.11   40.71
  -8   6  -4  162.66   27.28
   8   6  -4  208.94   28.45
   8   6   4  112.66   34.59
   8  -6   4  176.56   33.14
  -8  -6   4   85.58   17.70
  -8  -6   4  141.17   27.87
  -8  -6  -4  193.86   32.30
  -8  -6  -5   72.77   17.97
  -8   6  -5   67.13   17.58
   8   6  -5   75.82   17.84
   8  -6  -5   90.12   30.29
   8   6   5   23.53   13.53
   8  -6   5  118.79   29.68
  -8  -6   5   76.58   17.62
  -8  -6   5  100.39   29.16
  -8  -6  -5   57.33   16.11
  -8   6   5   51.06   18.97
  -8  -6  -6   46.50   19.39
  -8   6  -6  133.74   26.68
   8   6  -6   47.04   16.07
   8  -6  -6   81.88   29.70
   8  -6   6  116.90   28.67
  -8  -6   6   31.80   13.06
  -8  -6   6   94.80   22.55
  -8  -6  -6   90.94   25.28
  -8   6   6   78.95   25.11
  -8  -6  -7   45.96   16.28
  -8   6  -7   43.82   19.11
   8   6  -7   18.72   12.51
   8  -6  -7   44.84   24.78
   8  -6   7   30.91   18.59
  -8  -6   7   28.85   17.23
  -8  -6   7    0.74   15.20
  -8  -6  -7   25.04   17.76
  -8   6   7    9.39   12.62
  -8  -6  -8   15.10    7.62
  -8   6  -8   55.92   20.21
   8   6  -8   15.02    8.84
   8  -6  -8   45.51   17.16
   8  -6   8   12.99   16.79
  -8  -6   8   28.91   18.12
  -8  -6   8   30.65   15.01
  -8  -6  -8   -4.65   10.70
  -8   6   8   34.24   13.39
  -8  -6  -9   77.88   21.07
  -8   6  -9   23.80   15.74
   8  -6   9   18.87   15.31
  -8  -6   9   40.86   15.33
  -8  -6   9    3.46   15.40
  -8  -6  -9   37.41   13.25
  -8   6   9   50.60   16.59
  -8  -6 -10   10.75   10.85
  -8   6 -10   67.30   23.47
   8  -6  10   22.34   17.50
  -8  -6  10   35.70   19.22
  -8   6  10   15.23   18.12
  -8  -6  10   42.53   16.49
  -8  -6 -10   24.71   11.08
  -8   6  10   73.13   23.67
  -8  -6 -11   25.43   18.64
  -8   6 -11   51.05   20.05
   8  -6  11   39.51   24.83
  -8  -6  11   20.44   15.17
  -8   6  11   15.50   17.38
  -8  -6  11    5.72   13.61
  -8   6  11   37.25   13.83
  -8  -6 -12   41.74   18.78
  -8   6 -12   27.58   20.62
   8  -6  12   33.91   19.30
  -8  -6  12   47.16   25.34
  -8   6  12   32.12   16.65
  -8  -6  12   31.02   16.14
  -8   6  12    3.97   12.49
  -8  -6 -13   51.74   20.25
  -8   6 -13    3.46   15.71
   8  -6  13  -16.46   18.11
  -8  -6  13   20.09   15.12
  -8   6  13   21.47   16.55
  -8  -6  13   63.88   22.59
  -8   7   0    8.52    7.71
  -8  -7   0   43.68   12.29
  -8  -7   0   47.05   16.61
  -8  -7  -1   11.99   11.97
  -8   7   1   12.23    7.45
  -8   7  -1    6.04    8.41
   8   7  -1   42.26   16.60
   8  -7  -1   17.22    9.02
   8  -7   1   26.11   11.29
  -8  -7   1   13.71    8.30
  -8  -7  -1   10.27    6.14
  -8  -7  -1   59.14   25.88
  -8  -7   1    9.40   14.45
  -8  -7  -2   29.80   14.74
  -8   7  -2   32.36   12.49
   8   7  -2   34.94   17.12
   8  -7  -2   44.79   13.98
   8  -7   2   73.73   25.73
  -8  -7   2   67.66   18.01
  -8  -7  -2   25.36    8.28
  -8  -7   2   44.40   22.52
  -8  -7  -2   59.01   22.04
  -8  -7  -3   18.19    8.72
  -8   7  -3   35.58   15.46
   8   7  -3   38.99   15.96
   8  -7  -3   47.88   19.25
   8  -7   3   48.12   18.14
  -8  -7   3   29.21   14.74
  -8  -7  -3   60.15   21.51
  -8  -7   3   25.63   16.80
  -8  -7  -4   32.87   19.22
  -8   7  -4   17.72   10.39
   8   7  -4   19.52   12.33
   8  -7  -4   24.90   14.94
   8  -7   4   32.89   24.00
  -8  -7   4   21.99   10.77
  -8  -7  -4   17.12   14.07
  -8  -7   4   34.92   16.74
  -8  -7  -5   58.49   20.41
  -8   7  -5  112.06   25.47
   8   7  -5   31.82   11.36
   8  -7  -5   74.30   28.41
   8  -7   5   46.21   17.15
  -8  -7   5   65.73   18.12
  -8  -7   5   63.11   24.01
  -8  -7  -5   47.57   15.65
  -8  -7  -6   27.09   17.78
  -8   7  -6   18.12   12.93
   8  -7  -6   24.42   12.67
   8  -7   6   44.72   18.17
  -8  -7   6   35.19   17.28
  -8  -7   6   39.88   17.61
  -8  -7  -6   56.57   21.14
  -8   7   6   37.41   15.62
  -8  -7  -7   37.66   12.14
  -8   7  -7   29.01   13.56
   8   7  -7   11.50   10.25
   8  -7  -7   17.92   20.75
   8  -7   7   48.54   18.41
  -8  -7   7   27.16   11.73
  -8  -7   7   -4.05   15.04
  -8  -7  -7   58.45   19.81
  -8   7   7   26.70   16.21
  -8  -7  -8    7.81   14.00
  -8   7  -8   25.11   14.37
   8   7  -8   28.65   14.24
   8  -7  -8   47.63   16.62
   8  -7   8   43.11   19.63
  -8  -7   8   24.12   12.98
  -8  -7   8   80.19   28.44
  -8  -7  -8   40.11   14.70
  -8   7   8   44.85   15.85
  -8  -7  -9   59.29   21.05
  -8   7  -9   13.43   14.93
   8  -7  -9   42.41   15.92
   8  -7   9   43.67   22.50
  -8  -7   9   79.89   24.78
  -8  -7   9   15.66   14.95
  -8  -7  -9   42.39   13.09
  -8   7   9   23.22   17.37
  -8  -7 -10   19.67   17.99
  -8   7 -10   47.71   16.99
   8  -7  10   52.84   20.25
  -8  -7  10    7.49   12.93
  -8  -7  10   12.11   15.48
  -8  -7 -10    7.19   11.54
  -8   7  10   14.55   14.68
  -8  -7 -11    4.01   13.69
  -8   7 -11   12.96   15.42
   8  -7  11   15.81   21.85
  -8  -7  11   74.44   26.90
  -8   7  11   27.33   19.10
  -8  -7  11   20.01   16.30
  -8   7  11   30.03   16.64
  -8  -7 -12   36.12   22.38
  -8   7 -12   27.82   15.23
  -8  -7  12   36.57   14.94
  -8   7  12   61.55   20.61
  -8  -7  12   51.70   17.79
  -8   7  12   49.86   19.30
  -8   8   0   19.68    7.19
   8   8   0   10.76   13.91
   8  -8   0   13.53    8.66
  -8  -8   0   22.11   22.80
  -8  -8  -1   44.93   14.27
  -8   8   1   19.38    6.74
  -8   8  -1   24.35    9.53
   8   8  -1   28.85   13.12
   8  -8  -1   46.63   13.35
   8  -8   1  100.23   30.95
  -8  -8   1   17.14    7.41
  -8  -8  -1   68.67   27.25
  -8  -8   1   13.47   16.88
  -8  -8  -2   30.18   12.54
  -8   8  -2   62.36   19.96
   8   8  -2   27.83   13.77
   8  -8  -2   89.62   26.14
   8  -8   2   40.43   17.87
  -8  -8   2   39.79   11.92
  -8  -8  -2   50.74   20.83
  -8  -8  -3   27.29    9.21
  -8   8  -3   99.62   20.82
   8   8  -3   22.70   13.22
   8  -8  -3   72.30   30.63
  -8  -8   3   31.59    9.82
  -8  -8   3   26.40   15.37
  -8  -8  -3   81.22   25.99
  -8  -8  -4   38.75   13.51
  -8   8  -4   43.73   16.16
   8   8  -4   12.52   12.52
   8  -8  -4   38.18   11.78
   8  -8   4   18.64   15.78
  -8  -8   4   40.36   13.54
  -8  -8  -4   42.52   17.52
  -8  -8   4   12.79   16.86
  -8  -8  -5   37.76    9.15
  -8   8  -5   61.58   15.67
   8   8  -5  115.70   26.63
   8  -8  -5   60.86   15.53
   8  -8   5  131.05   30.37
  -8  -8   5   36.57   11.33
  -8  -8   5   67.23   23.01
  -8  -8  -5   82.33   24.19
  -8  -8  -6   15.34   17.15
  -8   8  -6   81.21   22.89
   8   8  -6   50.75   17.06
   8  -8  -6   47.18   16.17
   8  -8   6   37.78   22.41
  -8  -8   6   62.39   15.96
  -8  -8   6   60.83   19.23
  -8  -8  -6   45.23   20.49
  -8  -8  -7   24.88   22.28
  -8   8  -7   23.02   14.21
   8   8  -7   31.84   11.41
   8  -8  -7   21.32   12.83
   8  -8   7   17.45   24.33
  -8  -8   7   36.60   19.20
  -8  -8  -7   27.64   14.79
  -8  -8   7    8.43   16.06
  -8  -8  -8   12.91    8.74
  -8   8  -8   34.14   13.97
   8   8  -8   12.86   11.18
   8  -8  -8   25.90   17.66
   8  -8   8    9.93   17.15
  -8  -8   8   20.09   11.75
  -8  -8  -8   38.11   20.96
  -8  -8   8   64.12   28.64
  -8   8   8   19.27   15.42
  -8  -8  -9   60.22   19.63
  -8   8  -9   23.73   16.35
   8  -8  -9   32.35   14.89
   8  -8   9   27.99   17.05
  -8  -8   9   41.06   17.77
  -8  -8   9   37.55   15.83
  -8  -8  -9   33.29   13.82
  -8   8   9   45.01   19.39
  -8  -8 -10   51.64   25.19
  -8   8 -10   55.19   23.64
   8  -8  10   91.92   30.87
  -8  -8  10  102.49   32.17
  -8   8  10   42.24   18.16
  -8  -8  10   23.46   15.79
  -8  -8 -10   32.92   17.12
  -8   8  10  139.27   41.98
  -8  -8 -11   26.68   11.89
  -8   8 -11   18.68   16.40
   8  -8  11   49.14   22.20
  -8  -8  11   30.82   20.58
  -8   8  11   28.93   21.59
  -8  -8  11   46.33   24.43
  -8   8  11   51.90   20.83
  -8   9   0  124.73   20.62
   8   9   0  179.71   34.61
   8  -9   0  127.73   30.36
  -8  -9   0  176.80   33.39
  -8   9  -1   37.80   12.95
   8   9  -1   64.78   18.19
   8   9   1   14.24   15.68
   8  -9  -1   43.43   17.52
   8  -9   1   54.05   26.79
  -8  -9  -1   55.48   24.28
  -8  -9   1   31.30   20.03
  -8  -9  -2   31.72   14.19
  -8   9  -2    2.73    8.91
   8   9  -2   30.24   14.09
   8  -9  -2   -4.84   16.44
   8  -9   2   50.65   17.10
  -8  -9  -2   15.27   15.09
  -8  -9   2   32.42   16.12
  -8  -9  -3   46.85   15.50
  -8   9  -3   17.78    9.43
   8   9  -3   34.81   19.41
   8  -9  -3   39.24   10.56
   8  -9   3   29.92   14.95
  -8  -9   3   85.96   26.33
  -8  -9  -3   12.85   14.79
  -8  -9  -4   84.75   24.16
  -8   9  -4  118.02   26.86
   8  -9  -4  125.05   38.83
   8  -9   4   46.81   19.74
  -8  -9  -4   64.18   23.20
  -8  -9   4   59.15   21.51
  -8  -9  -5   37.53   12.17
  -8   9  -5   21.90   13.34
   8   9  -5   62.73   20.02
   8  -9  -5   13.55   16.80
   8  -9   5   27.90   17.85
  -8  -9   5   35.98   12.41
  -8  -9  -5   71.39   26.31
  -8  -9   5   82.33   28.27
  -8  -9  -6   77.79   31.22
  -8   9  -6   19.65   12.71
   8   9  -6   67.40   21.93
   8  -9  -6   43.06   24.94
   8  -9   6   76.57   28.15
  -8  -9   6  116.31   36.53
  -8  -9  -6   70.23   24.57
  -8  -9  -7   65.27   21.90
  -8   9  -7   70.87   24.87
   8   9  -7   10.22   11.77
   8  -9  -7   61.02   19.87
   8  -9   7   20.34   15.45
  -8  -9   7    1.97    9.34
  -8  -9  -7   12.54   13.26
  -8  -9   7   24.72   22.24
  -8  -9  -8   43.88   14.05
  -8   9  -8   41.27   15.88
   8   9  -8   27.66   12.78
   8  -9  -8    9.20   14.41
   8  -9   8   37.98   24.59
  -8  -9   8    9.50   16.04
  -8  -9  -8    7.04   13.14
  -8  -9   8   45.56   19.26
  -8  -9  -9   69.89   25.32
  -8   9  -9   -2.64   13.57
   8  -9  -9   22.44   18.99
   8  -9   9    8.77   19.11
  -8  -9   9   11.11   12.25
  -8  -9  -9   32.21   18.97
  -8  -9   9   48.34   25.24
  -8   9   9   70.47   24.91
  -8  -9 -10   53.49   25.38
  -8   9 -10   41.01   17.74
   8  -9  10   40.94   28.72
  -8  -9  10   31.65   18.34
  -8   9  10    7.63   17.12
  -8  -9  10    0.26   14.60
  -8   9  10   20.52   14.11
   8  10   0   42.28   16.87
   8 -10   0   48.58   18.98
  -8 -10   0   58.78   20.18
  -8  10  -1   22.02   12.75
   8  10  -1   60.60   23.42
   8  10   1   31.74   21.11
   8 -10  -1   35.84   13.98
   8 -10   1   33.41   14.06
  -8 -10   1   30.83   16.89
  -8 -10  -1   50.25   19.53
  -8  10  -2   67.84   19.78
   8  10  -2   23.86   13.79
   8  10   2   26.97   14.26
   8 -10  -2   54.20   27.58
   8 -10   2   10.63   18.41
  -8 -10  -3   68.98   26.75
  -8  10  -3  145.13   33.54
   8  10  -3   86.20   23.17
   8 -10  -3   84.72   22.12
   8 -10   3  179.15   53.52
  -8 -10  -3  149.00   40.07
  -8 -10   3   92.19   30.74
  -8 -10  -4   36.15   15.62
   8  10  -4   38.98   14.11
   8 -10  -4   29.54   17.90
   8 -10   4   17.86   16.77
  -8 -10  -4   54.75   20.79
  -8 -10   4   22.29   19.57
  -8 -10  -5   51.28   22.05
  -8  10  -5   48.62   19.00
   8  10  -5   -2.23   13.35
   8 -10  -5   30.91   15.87
   8 -10   5  118.05   35.71
  -8 -10  -5   60.38   23.93
  -8 -10   5    2.71   16.28
  -8 -10  -6   13.58   12.02
  -8  10  -6    5.77   13.66
   8  10  -6   39.86   14.80
   8 -10  -6    9.63    9.29
   8 -10   6   41.73   19.71
  -8 -10   6   22.89   19.51
  -8 -10  -6   26.46   15.08
  -8 -10  -7   15.85   11.43
  -8  10  -7    5.38   14.14
   8  10  -7   17.91   14.30
   8 -10  -7   54.13   20.32
   8 -10   7   36.08   18.84
  -8 -10   7   50.56   20.87
  -8 -10  -7   61.51   23.53
  -8 -10  -8   20.11    8.20
  -8  10  -8  120.85   37.41
   8  10  -8   70.17   24.20
   8 -10  -8   73.14   26.85
   8 -10   8   31.99   16.48
  -8 -10  -8   87.36   28.40
  -8 -10   8   86.17   28.45
  -8 -10  -9   40.98   17.47
  -8  10  -9   23.35   15.09
   8  10  -9   11.28   17.11
   8 -10  -9   34.66   15.49
   8 -10   9   12.19   19.05
  -8 -10   9   39.68   17.81
  -8 -10  -9   18.13   13.36
   8  11   0   23.58   14.86
   8 -11   0   11.89    8.03
  -8 -11   0   37.60   17.72
   8  11  -1   67.94   20.60
   8  11   1   41.66   17.61
   8 -11  -1   37.33   13.09
   8 -11   1  -10.13   14.84
  -8 -11  -1   11.57   15.10
  -8 -11   1    9.05   15.98
  -8  11  -2   40.23   15.05
   8  11  -2   28.35   15.81
   8  11   2   68.13   28.28
   8 -11  -2   43.77   19.14
   8 -11   2   51.99   20.90
  -8 -11  -2   17.49   14.53
  -8 -11   2   33.28   16.25
  -8  11  -3   23.81   12.79
   8  11   3   50.84   25.87
   8 -11  -3   16.85   11.55
   8 -11   3   52.51   19.99
  -8 -11  -3   32.57   17.24
  -8 -11   3   53.42   26.91
  -8  11  -4   14.28   12.68
   8  11  -4   13.64   13.60
   8 -11  -4   32.92   19.58
   8 -11   4    9.11   14.79
  -8 -11   4   -2.71   18.92
  -8 -11  -4   66.59   25.57
  -8 -11  -5   17.41   16.30
  -8  11  -5   43.84   19.19
   8  11  -5  -15.51   12.71
   8 -11  -5   11.61    7.84
   8 -11   5   35.01   25.10
  -8 -11  -5   12.31   14.58
  -8 -11   5   59.72   29.62
  -8 -11  -6    5.81   15.11
  -8  11  -6   53.24   18.66
   8  11  -6   20.63   13.54
   8 -11  -6   11.15    8.00
   8 -11   6   15.95   18.79
  -8 -11   6   32.38   17.11
  -8 -11  -6   -7.13   13.92
  -8 -11  -7   27.54   17.00
  -8  11  -7    5.51   12.82
   8  11  -7   41.77   16.11
   8 -11  -7   41.92   15.16
   8 -11   7   22.06   18.41
  -8 -11  -7   37.24   19.67
  -8 -11   7   70.50   27.43
   8  12   0    8.62   15.14
   8 -12   0   37.35    9.04
  -8 -12   0   63.76   28.31
   8  12  -1   43.10   26.13
   8  12   1   37.82   16.45
   8 -12  -1   32.76   16.12
   8 -12   1   25.55   13.57
  -8 -12   1   41.90   18.66
  -8 -12  -1   15.44   16.88
   8  12  -2   30.38   16.85
   8  12   2   -3.75   16.09
   8 -12  -2   30.77   11.66
   8 -12   2   62.33   26.56
  -8 -12   2   37.73   22.59
  -8 -12  -2   73.06   28.88
  -8  12  -3   26.66   17.17
   8  12  -3   48.49   18.49
   8  12   3   27.24   17.37
   8 -12  -3   25.19   17.20
   8 -12   3   40.57   17.92
  -8 -12   3   33.92   25.36
  -8 -12  -3    1.50   16.24
  -8  12  -4   81.30   22.83
   8  12  -4   25.22   14.46
   8  12   4   14.39   17.10
   8 -12  -4   46.69   22.62
   8 -12   4   40.87   19.01
  -8 -12   4   38.95   21.84
  -8 -12  -4   58.62   20.25
  -8  12  -5   13.48   13.53
   8  12  -5   15.40   14.77
   8 -12  -5    3.77    7.58
   8 -12   5   36.76   24.01
  -8 -12   5   48.93   20.72
  -8 -12  -5    7.50   15.34
  -9   0   0    9.08    6.18
   9   0   0    0.91   15.00
  -9   0   0   12.86   15.63
  -9   0   1   47.20   12.98
  -9   0  -1   59.93   19.69
   9   0  -1   33.97   13.28
   9   0   1   35.87   27.98
  -9   0  -1   83.47   25.39
  -9   0   1   19.81   18.26
  -9   0   2   10.26    4.74
  -9   0  -2   37.94   14.10
   9   0  -2   23.40   15.99
   9   0   2   17.28   13.66
  -9   0   2   46.45   24.10
  -9   0  -2   55.99   18.99
  -9   0  -3   21.25   12.01
   9   0  -3   26.19   10.61
   9   0   3   21.51   13.21
  -9   0   3   -1.11   17.33
  -9   0  -3   27.46   16.56
  -9   0  -4   15.02    8.90
   9   0  -4   17.32   11.74
   9   0   4   19.49   11.67
  -9   0   4   17.49   17.48
  -9   0  -4   18.59   16.14
  -9   0  -5   25.26   11.59
   9   0  -5   93.53   30.22
   9   0   5   68.67   20.26
  -9   0   5   65.33   26.36
  -9   0  -5   15.79   14.07
  -9   0  -6  180.21   31.74
   9   0  -6  263.83   45.77
   9   0   6  214.71   41.23
  -9   0   6  263.28   48.54
  -9   0  -6  208.74   37.51
  -9   0  -7   24.33   12.45
   9   0   7   19.59   12.11
  -9   0   7   45.14   23.19
  -9   0   7   38.76   15.98
  -9   0  -7   27.78   13.08
  -9   0  -8  128.07   25.53
   9   0   8   87.00   22.03
  -9   0   8  134.12   31.38
  -9   0   8   37.57   15.88
  -9   0  -8   58.98   15.66
  -9   0  -9   10.87   14.66
   9   0   9   51.70   20.95
  -9   0   9   20.39   15.40
  -9   0   9   13.22   14.35
  -9   0  -9   29.01   19.08
  -9   0 -10   28.15   20.74
   9   0  10   10.95   14.66
  -9   0  10   44.15   19.35
  -9   0  10   56.56   21.83
  -9   0 -10   57.77   21.25
  -9   0 -11   40.56   21.30
   9   0  11   62.10   23.60
  -9   0  11   62.12   24.34
  -9   0  11   65.99   25.73
  -9   0 -11   49.84   19.18
  -9   0 -12   61.15   22.58
   9   0  12  119.92   37.11
  -9   0  12  103.33   32.85
  -9   0 -12   95.57   30.98
  -9   0 -13   29.90   24.74
   9   0  13   37.65   14.47
  -9   0  13   33.30   18.85
  -9   0  13   23.76   13.05
  -9  -1   0   16.22    7.62
  -9   1   0   16.80    7.80
   9   1   0   30.71   11.59
   9  -1   0   55.93   23.12
  -9  -1   0   32.66   15.55
  -9   1   0   -0.20   16.37
  -9  -1   1   82.37   23.04
  -9   1   1   75.59   24.78
  -9  -1  -1   89.42   18.70
  -9   1  -1   81.00   26.77
   9   1  -1  107.72   22.62
   9  -1  -1  132.73   23.31
   9   1   1   87.16   28.33
   9  -1   1  133.27   30.29
  -9  -1  -1  132.19   24.45
  -9  -1   1  180.36   33.89
  -9   1  -1  119.03   24.49
  -9   1   1  227.88   33.40
  -9  -1   2   95.75   29.55
  -9  -1  -2  186.15   51.42
  -9   1  -2  134.44   35.30
   9   1  -2  186.21   39.39
   9  -1  -2  216.27   61.85
   9   1   2  118.00   36.76
   9  -1   2  126.99   41.05
  -9  -1   2  168.97   32.80
  -9  -1  -2  227.31   36.07
  -9   1  -2  243.57   37.53
  -9  -1  -3   15.35    5.96
  -9   1  -3    6.28    8.93
   9   1  -3    8.63    4.54
   9   1  -3   43.24   16.99
   9  -1  -3   48.20   16.57
   9   1   3   21.79   14.57
   9  -1   3   47.32   23.37
  -9  -1   3   47.63   26.19
  -9  -1  -3    5.06   13.45
  -9   1   3   28.36   18.87
  -9   1  -3    3.64   14.71
  -9  -1  -4   86.48   24.51
  -9   1  -4   66.83   14.83
   9   1  -4  107.82   25.92
   9  -1  -4   46.90   15.84
   9   1   4   53.53   17.29
   9  -1   4   63.83   34.31
  -9  -1   4   81.39   25.03
  -9  -1  -4   71.78   18.53
  -9   1   4   22.20   17.68
  -9   1  -4  122.09   26.45
  -9  -1  -5   28.86   14.03
  -9   1  -5   46.32   16.02
   9   1  -5  117.04   30.89
   9  -1  -5   48.77   20.32
   9   1   5   78.75   22.60
   9  -1   5   44.60   20.38
  -9  -1   5   66.58   21.95
  -9  -1  -5   58.32   22.44
  -9   1   5   56.79   19.85
  -9   1  -5   35.51   15.10
  -9  -1  -6   39.81   22.52
  -9   1  -6   22.99   17.03
   9  -1  -6   29.29   17.82
   9   1   6   39.21   18.94
   9  -1   6   40.40   15.45
  -9  -1   6   36.90   19.87
  -9  -1   6   33.11   17.29
  -9  -1  -6   29.21   14.45
  -9   1   6    5.29   15.19
  -9   1  -6   60.15   23.93
  -9  -1  -7   81.36   22.46
  -9   1  -7   45.41   18.24
   9   1   7   53.08   18.94
   9  -1   7    7.40   11.57
  -9  -1   7   64.90   23.30
  -9  -1   7   41.86   15.89
  -9  -1  -7   36.24   18.34
  -9   1   7   36.10   16.43
  -9   1  -7   46.87   15.32
  -9  -1  -8   10.66   11.75
  -9   1  -8   24.37   18.40
   9   1   8   38.42   13.10
   9  -1   8    2.28   12.24
  -9  -1   8   42.27   20.58
  -9   1   8   19.76   18.36
  -9  -1   8   45.26   19.95
  -9  -1  -8   62.24   18.42
  -9   1   8   30.16   14.71
  -9   1  -8   65.30   22.62
  -9  -1  -9   26.00   13.85
  -9   1  -9   45.86   21.00
   9   1   9   37.71   19.23
   9  -1   9   75.54   24.14
  -9  -1   9   27.88   18.15
  -9   1   9   43.73   20.57
  -9  -1   9   25.50   15.90
  -9   1   9   37.61   22.12
  -9  -1  -9   38.73   14.03
  -9   1  -9   36.94   20.18
  -9  -1 -10   34.74   21.80
  -9   1 -10   72.26   24.26
   9   1  10   58.77   20.43
   9  -1  10   29.76   14.44
  -9  -1  10   40.41   22.49
  -9   1  10   38.44   22.88
  -9  -1  10   49.74   21.93
  -9   1  10  101.87   32.10
  -9  -1 -10   33.65   11.86
  -9   1 -10   34.69   13.78
  -9  -1 -11  108.74   30.39
  -9   1 -11  111.26   32.23
   9   1  11   92.06   27.52
   9  -1  11   95.81   29.52
  -9  -1  11   53.50   26.94
  -9   1  11  153.52   38.46
  -9  -1  11  159.46   37.79
  -9   1  11   63.04   18.94
  -9  -1 -11  138.87   35.20
  -9   1 -11  112.86   31.84
  -9  -1 -12   25.78   15.82
  -9   1 -12   63.18   22.11
   9   1  12   20.05   12.76
   9  -1  12   45.35   19.33
  -9  -1  12   24.72   19.47
  -9   1  12   33.42   26.06
  -9  -1  12    6.64   13.88
  -9   1  12    8.05   12.19
  -9   1 -12   58.34   21.40
  -9  -1 -13   26.26   16.74
  -9   1 -13   19.31   15.95
   9   1  13   -0.28   12.46
   9  -1  13   36.15   15.14
  -9  -1  13   68.27   27.75
  -9   1  13   56.43   29.03
  -9  -1  13   39.75   15.43
  -9   1  13   25.15   13.54
  -9  -2   0   41.75   18.08
  -9   2   0   66.87   16.07
   9   2   0   68.46   18.19
   9  -2   0   69.61   22.85
  -9   2   0   75.50   26.12
  -9  -2   1   53.86   19.27
  -9  -2  -1   58.43   24.73
  -9   2   1   51.08   13.93
  -9   2  -1   41.38   12.12
   9   2  -1   38.76   15.34
   9   2   1   19.47   10.58
   9  -2  -1   44.82   23.18
   9  -2   1   32.10   23.30
  -9  -2  -1   27.59   15.65
  -9  -2   1  136.67   30.48
  -9   2   1   67.97   20.56
  -9  -2   2   15.64    7.32
  -9  -2  -2   20.67    9.54
  -9   2  -2   36.05   10.87
   9   2  -2   13.26   12.61
   9  -2  -2   39.54   20.07
   9   2   2   13.07    8.16
   9  -2   2   33.59   22.47
  -9  -2   2   35.67   19.28
  -9  -2  -2   31.03   18.57
  -9   2   2   21.82   18.19
  -9   2  -2   47.01   23.89
  -9  -2  -3   48.32   17.23
  -9   2  -3   81.25   19.54
   9   2  -3   38.88   10.97
   9   2  -3   98.00   22.22
   9  -2  -3   81.55   27.31
   9   2   3   22.52   20.00
   9  -2   3   53.20   21.43
  -9  -2   3   80.42   25.01
  -9  -2  -3   79.28   21.86
  -9   2   3   67.85   28.92
  -9   2  -3  102.35   27.36
  -9  -2  -4   82.04   21.90
  -9   2  -4   33.02   16.56
   9   2  -4   52.15   17.45
   9  -2  -4   87.27   26.82
   9   2   4   75.23   20.10
   9  -2   4   27.59   18.91
  -9  -2   4   76.06   26.10
  -9  -2  -4   67.22   23.19
  -9   2   4  161.69   35.39
  -9   2  -4   37.40   18.25
  -9  -2  -5  247.72   75.22
  -9   2  -5  316.59   48.35
   9  -2  -5  214.38   66.36
   9   2   5  222.90   67.85
   9  -2   5  316.89   50.68
  -9  -2   5  288.96   47.21
  -9  -2   5  305.74   51.51
  -9  -2  -5  332.21   53.11
  -9   2   5  335.96   56.91
  -9   2  -5  319.31   52.91
  -9  -2  -6   39.22   18.95
  -9   2  -6   23.87   12.52
   9  -2  -6   73.67   21.00
   9   2   6   58.73   14.89
   9  -2   6   60.44   22.39
  -9  -2   6   36.72   21.27
  -9  -2   6   56.45   18.56
  -9  -2  -6   24.83   14.00
  -9   2   6   68.50   25.74
  -9   2  -6   56.20   19.72
  -9  -2  -7   44.53   14.42
  -9   2  -7  107.44   25.07
   9  -2  -7  110.34   34.21
   9   2   7  103.39   25.53
   9  -2   7   56.72   17.69
  -9  -2   7  149.05   34.88
  -9  -2   7  107.45   27.39
  -9  -2  -7   96.60   26.43
  -9   2   7   73.43   19.11
  -9   2  -7   33.10   14.31
  -9  -2  -8   98.02   31.18
  -9   2  -8  150.50   25.73
   9   2   8  221.32   34.26
   9  -2   8  120.43   24.26
  -9  -2   8  189.62   35.42
  -9   2   8  147.81   36.12
  -9  -2   8  153.88   30.73
  -9  -2  -8  203.06   34.29
  -9   2   8  181.91   33.56
  -9   2  -8  172.81   32.50
  -9  -2  -9  159.99   47.23
  -9   2  -9   94.42   24.82
   9   2   9  130.11   27.11
   9  -2   9  168.45   31.63
  -9  -2   9  148.62   31.70
  -9  -2   9  117.15   26.39
  -9  -2  -9  136.89   26.89
  -9   2   9  198.66   34.87
  -9   2  -9   63.36   19.11
  -9  -2 -10   40.09   10.95
  -9   2 -10    0.75   11.84
   9   2  10   18.62   11.12
   9  -2  10   25.96   13.49
  -9  -2  10   24.67   18.30
  -9  -2  10   49.79   22.14
  -9  -2 -10   34.45   16.47
  -9   2  10    8.79   13.03
  -9   2 -10   35.37   18.62
  -9  -2 -11   96.12   27.98
  -9   2 -11  129.34   36.29
   9   2  11   31.82   13.08
   9  -2  11   27.22   17.75
  -9  -2  11   38.66   17.67
  -9   2  11   26.36   18.39
  -9  -2  11   40.68   22.75
  -9  -2 -11   70.22   24.30
  -9   2  11   30.59   14.26
  -9   2 -11   34.87   13.49
  -9  -2 -12   80.28   47.07
  -9   2 -12  133.20   38.57
   9   2  12  116.41   30.94
   9  -2  12   66.31   28.25
  -9  -2  12   75.78   25.88
  -9  -2  12  134.51   39.56
  -9   2  12  111.26   31.63
  -9   2 -12   40.34   13.56
  -9  -2 -13   88.06   35.77
  -9   2 -13   30.27   15.63
   9   2  13   23.37   11.74
   9  -2  13   62.61   25.30
  -9  -2  13   50.34   20.69
  -9   2  13   36.95   30.59
  -9  -2  13   17.91   13.73
  -9   2  13   23.04   12.55
  -9  -3   0   24.28    7.73
  -9   3   0   22.25    9.05
   9   3   0    9.07    9.83
   9  -3   0    8.30   11.31
  -9  -3   0   22.90   20.71
  -9   3   0   -2.78   17.93
  -9  -3   1   42.39   13.32
  -9  -3  -1   46.35   17.83
  -9   3   1   25.45    9.28
  -9   3  -1   37.24   15.10
   9   3  -1   33.05   14.24
   9   3   1   61.72   22.92
   9  -3  -1   66.55   18.77
   9  -3   1   77.10   25.66
  -9  -3  -1   73.17   23.26
  -9  -3   1   30.03   18.73
  -9   3   1   10.66   15.73
  -9   3  -1   77.69   20.74
  -9  -3  -2  142.56   45.02
  -9   3  -2  197.18   26.17
   9   3  -2  115.49   18.94
   9   3  -2  199.21   30.69
   9  -3  -2  173.41   46.53
   9   3   2  132.77   30.31
   9  -3   2  194.32   45.33
  -9  -3   2  178.52   28.12
  -9  -3  -2  181.24   31.40
  -9   3   2  135.31   30.21
  -9   3  -2  149.60   24.22
  -9  -3  -3   56.16   18.58
  -9   3  -3   24.55   10.57
   9   3  -3   56.19   16.41
   9   3  -3   47.58   17.42
   9  -3  -3   50.13   24.62
   9   3   3   31.07   13.19
   9  -3   3   73.38   17.65
  -9  -3   3   66.64   22.99
  -9  -3  -3   26.53   16.17
  -9   3   3   53.92   21.89
  -9   3  -3   -0.06   17.69
  -9  -3  -4   74.01   18.99
  -9   3  -4   80.32   19.03
   9   3  -4   57.10   12.54
   9  -3  -4   51.17   15.55
   9   3   4   71.32   30.02
   9  -3   4   60.35   22.32
  -9  -3   4   61.12   20.36
  -9  -3   4   17.72   18.35
  -9  -3  -4  106.16   26.35
  -9   3   4  107.27   30.28
  -9   3  -4   42.54   17.55
  -9  -3  -5   27.52    9.87
  -9   3  -5   61.31   17.72
   9  -3  -5  121.29   32.28
   9   3   5   39.82   12.01
   9  -3   5   56.03   25.41
  -9  -3   5   32.20   13.16
  -9  -3   5   84.92   29.08
  -9  -3  -5   47.96   16.45
  -9   3   5   68.26   25.42
  -9   3  -5    3.22   14.47
  -9  -3  -6  134.41   32.79
  -9   3  -6  127.09   27.06
   9  -3  -6  134.01   44.03
   9   3   6   37.57   21.23
   9  -3   6  110.07   28.89
  -9  -3   6   71.18   19.96
  -9  -3   6   88.34   27.27
  -9  -3  -6  128.64   28.98
  -9   3   6  115.70   27.56
  -9   3  -6  114.06   30.55
  -9  -3  -7   56.02   24.73
  -9   3  -7   30.19   11.83
   9  -3  -7   38.86   17.40
   9   3   7   48.99   28.46
   9  -3   7   32.78   15.07
  -9  -3   7   36.19   14.65
  -9  -3   7   99.11   24.66
  -9  -3  -7   48.63   15.24
  -9   3   7  134.06   29.70
  -9   3  -7   54.22   21.34
  -9  -3  -8   37.52    9.82
  -9   3  -8   20.97   13.10
   9   3   8   46.32   18.86
   9  -3   8   45.51   21.12
  -9  -3   8   56.66   19.95
  -9  -3   8   39.93   15.88
  -9  -3  -8   28.51   13.60
  -9   3   8   87.47   23.72
  -9   3  -8  104.77   28.75
  -9  -3  -9   15.49   16.72
  -9   3  -9    6.47   15.11
   9   3   9    4.90    9.85
   9  -3   9   15.57   21.22
  -9  -3   9   33.80   15.37
  -9   3   9    9.91   16.29
  -9  -3   9   47.71   18.43
  -9  -3  -9   10.18   12.01
  -9   3   9   19.99   13.18
  -9   3  -9    1.61   13.58
  -9  -3 -10   33.68   12.63
  -9   3 -10    0.75   14.00
   9   3  10   55.25   19.02
   9  -3  10   49.12   16.40
  -9  -3  10   58.06   25.97
  -9   3  10   84.55   30.76
  -9  -3  10   32.76   17.00
  -9  -3 -10   34.14   12.41
  -9   3  10   27.85   14.38
  -9   3 -10   43.86   14.96
  -9  -3 -11   68.87   36.18
  -9   3 -11  103.66   36.11
   9   3  11   29.46   14.15
   9  -3  11   65.79   27.29
  -9  -3  11   24.77   17.00
  -9   3  11   67.12   26.32
  -9  -3  11   51.60   20.37
  -9  -3 -11   42.57   18.31
  -9   3  11   38.90   21.19
  -9   3 -11   17.50   13.15
  -9  -3 -12   38.64   14.55
  -9   3 -12   74.51   28.31
   9  -3  12   72.88   28.19
  -9  -3  12   34.83   18.42
  -9   3  12   29.59   20.50
  -9  -3  12   22.24   13.57
  -9   3  12   16.03   12.31
  -9   3 -12    4.25   11.54
  -9  -3 -13   20.25   11.39
  -9   3 -13  107.38   32.25
   9  -3  13    6.89   14.92
  -9  -3  13   68.51   28.08
  -9   3  13    5.20   19.46
  -9  -3  13   34.86   14.90
  -9   3  13   15.11   11.51
  -9  -4   0   16.59    9.61
  -9   4   0   12.51    7.99
   9   4   0   15.51    9.18
   9  -4   0   33.88   19.92
  -9  -4   0    5.80   14.62
  -9   4   0   83.67   25.82
  -9  -4   1   67.64   16.79
  -9  -4  -1  121.52   30.85
  -9   4  -1   90.85   19.62
   9   4  -1  152.19   28.16
   9   4   1  115.07   35.78
   9  -4  -1  185.89   48.40
   9  -4   1  136.44   43.35
  -9  -4  -1  126.32   30.68
  -9  -4   1  148.86   32.64
  -9   4  -1  182.49   37.39
  -9   4   1  202.95   40.42
  -9  -4  -2   82.01   31.17
  -9   4  -2  142.06   26.22
   9   4  -2  100.51   20.59
   9   4  -2  134.24   24.93
   9   4   2   89.65   27.83
   9  -4  -2   55.40   18.22
   9  -4   2   79.43   23.37
  -9  -4   2  127.23   30.81
  -9  -4  -2  104.54   27.11
  -9   4   2  180.13   34.39
  -9   4  -2  190.05   37.86
  -9  -4  -3   56.58   27.93
  -9   4  -3   41.96   13.77
   9   4  -3   25.71    8.98
   9  -4  -3   74.63   21.28
   9   4   3   21.42   14.62
   9  -4   3   68.38   21.91
  -9  -4   3   13.95   11.06
  -9  -4   3   63.26   20.32
  -9  -4  -3   99.47   25.93
  -9   4   3   60.33   26.59
  -9   4  -3   17.51   19.11
  -9  -4  -4   29.95    7.77
  -9   4  -4   33.28   14.83
   9   4  -4   10.09    7.05
   9  -4  -4   -2.90   15.35
   9   4   4   31.65   14.56
   9  -4   4   49.53   19.55
  -9  -4   4   35.65   13.86
  -9  -4   4    7.09   17.31
  -9  -4  -4   27.59   15.92
  -9   4   4   23.79   17.71
  -9   4  -4   -8.42   17.33
  -9  -4  -5   29.64   17.97
  -9   4  -5   37.19   16.59
   9  -4  -5   79.62   17.15
   9   4   5   19.49   24.06
   9  -4   5   37.78   24.62
  -9  -4   5   16.20   13.47
  -9  -4   5   52.84   19.26
  -9  -4  -5   53.75   17.83
  -9   4   5   39.35   17.87
  -9   4  -5   68.81   23.08
  -9  -4  -6   38.43   17.05
  -9   4  -6   40.77   15.99
   9  -4  -6   14.33   25.65
   9   4   6   25.97   15.68
   9  -4   6   49.41   23.70
  -9  -4   6   38.84   14.90
  -9  -4   6   62.39   24.11
  -9  -4  -6   -5.38   11.98
  -9   4   6   19.18   14.57
  -9   4  -6   22.62   17.58
  -9  -4  -7   75.96   22.09
  -9   4  -7   84.04   25.31
   9  -4  -7  168.66   34.68
   9   4   7   60.43   25.21
   9  -4   7   49.01   16.50
  -9  -4   7   74.57   20.11
  -9  -4   7   66.52   24.47
  -9  -4  -7  100.67   25.05
  -9   4   7   90.82   25.93
  -9   4  -7   72.42   19.88
  -9  -4  -8   25.57   21.86
  -9   4  -8   78.68   22.91
   9  -4  -8   70.67   25.61
   9   4   8   21.72   12.69
   9  -4   8   27.31   16.13
  -9  -4   8   39.92   22.48
  -9  -4   8  -12.39   14.59
  -9  -4  -8    4.36   14.14
  -9   4   8   26.07   24.59
  -9   4  -8   33.75   24.05
  -9  -4  -9   23.69   10.34
  -9   4  -9   10.87   18.76
   9  -4   9   48.43   26.80
  -9  -4   9   19.84   16.36
  -9   4   9   26.63   18.35
  -9  -4   9    3.86   13.75
  -9  -4  -9   17.42   13.15
  -9   4   9    3.55   12.96
  -9   4  -9   20.16   15.66
  -9  -4 -10   21.78    8.98
  -9   4 -10   64.15   22.48
   9  -4  10    9.62   13.98
  -9  -4  10   21.03   22.97
  -9   4  10   82.78   32.11
  -9  -4  10   62.83   26.21
  -9  -4 -10   32.35   13.52
  -9   4  10   70.54   20.70
  -9   4 -10   71.70   25.31
  -9  -4 -11    0.11   15.65
  -9   4 -11    8.69   13.97
   9  -4  11   15.47   15.85
  -9  -4  11   18.89   14.37
  -9   4  11   15.65   19.07
  -9  -4  11   27.04   14.63
  -9  -4 -11   33.30   17.54
  -9   4  11   25.38   13.91
  -9   4 -11   17.86   14.40
  -9  -4 -12   22.76    8.78
  -9   4 -12    1.36   16.20
   9  -4  12    6.93   14.45
  -9  -4  12   12.42   18.28
  -9   4  12   17.27   18.98
  -9  -4  12  -11.52   14.03
  -9   4  12   17.39   11.88
  -9   4 -12   -1.18   12.54
  -9  -5   0   35.60   11.91
  -9   5   0   68.58   14.13
   9   5   0   68.13   19.92
   9  -5   0   32.72   20.04
  -9  -5   0   49.90   22.61
  -9   5   0   63.44   27.18
  -9  -5  -1  121.16   25.58
  -9   5  -1  102.92   19.50
   9   5   1   87.59   22.26
   9  -5  -1  122.58   31.19
   9  -5   1   99.46   26.89
  -9  -5  -1  117.73   31.01
  -9  -5   1   91.85   27.58
  -9   5   1  129.74   28.36
  -9   5  -1  235.99   46.14
  -9  -5  -2   44.04   12.96
  -9   5  -2   69.42   18.80
   9   5  -2   19.69   10.25
   9   5   2   12.25   13.35
   9  -5  -2   73.29   20.94
   9  -5   2   42.75   16.52
  -9  -5   2   39.31   13.79
  -9  -5   2   17.26   22.17
  -9  -5  -2   46.51   22.54
  -9   5   2   33.06   19.49
  -9   5  -2   75.05   27.93
  -9  -5  -3   82.02   20.69
  -9   5  -3   45.73   14.20
   9   5  -3   35.20   14.43
   9   5   3   73.65   20.03
   9  -5   3   31.76   21.87
  -9  -5   3   26.71   11.51
  -9  -5   3   65.71   21.95
  -9  -5  -3   26.12   14.70
  -9   5   3   30.24   17.88
  -9   5  -3   46.24   17.84
  -9  -5  -4   50.89   14.50
  -9   5  -4  102.03   22.54
   9   5  -4   15.65    8.88
   9  -5  -4   42.75   17.22
   9   5   4   37.82   15.84
   9  -5   4   56.47   15.77
  -9  -5   4   53.48   14.83
  -9  -5   4    9.72   16.92
  -9  -5  -4   50.35   19.32
  -9   5   4   60.52   24.05
  -9   5  -4   83.58   30.58
  -9  -5  -5   14.22    7.30
  -9   5  -5   21.38   11.10
   9   5  -5   25.07    8.78
   9  -5  -5   25.90   18.87
   9   5   5   19.51    5.86
   9  -5   5   23.93   16.85
  -9  -5   5   36.75   13.75
  -9  -5   5   46.64   18.34
  -9  -5  -5   -1.50   13.38
  -9   5   5  -10.83   15.02
  -9   5  -5   -7.17   15.59
  -9  -5  -6   30.06   17.71
  -9   5  -6   16.23   12.01
   9  -5  -6   80.37   22.30
   9   5   6   14.97    6.49
   9  -5   6   61.52   19.88
  -9  -5   6   33.99   13.62
  -9  -5   6   85.99   27.43
  -9  -5  -6   82.54   26.07
  -9   5   6   70.93   20.78
  -9   5  -6   49.70   19.76
  -9  -5  -7   80.09   27.12
  -9   5  -7   36.67   13.73
   9  -5  -7  120.29   29.04
   9  -5   7  197.26   37.21
  -9  -5   7  203.19   40.26
  -9  -5   7   90.22   21.58
  -9  -5  -7   78.52   18.46
  -9   5   7   63.27   18.45
  -9   5  -7  134.85   29.57
  -9  -5  -8   33.63   13.07
  -9   5  -8   94.94   29.08
   9  -5  -8   62.56   27.15
   9  -5   8   62.57   25.95
  -9  -5   8   25.42   13.55
  -9  -5   8   30.24   16.35
  -9  -5  -8   51.62   16.36
  -9   5   8  144.75   35.98
  -9   5  -8   76.98   27.24
  -9  -5  -9   19.68    9.98
  -9   5  -9   21.84   18.06
   9  -5   9   32.03   17.01
  -9  -5   9   33.90   20.51
  -9   5   9   27.96   18.19
  -9  -5   9   34.50   15.72
  -9  -5  -9   20.73   13.01
  -9   5   9   74.19   26.48
  -9   5  -9   28.43   17.07
  -9  -5 -10   40.01   17.50
  -9   5 -10   66.21   22.95
   9  -5  10   27.41   18.14
  -9  -5  10   45.15   15.83
  -9   5  10   11.86   18.82
  -9  -5  10   50.70   21.40
  -9  -5 -10   84.04   27.06
  -9   5  10   26.47   17.75
  -9   5 -10   30.19   14.92
  -9  -5 -11   23.68   11.73
  -9   5 -11    8.71   14.02
   9  -5  11    6.41   15.27
  -9  -5  11   24.49   15.87
  -9   5  11   52.65   21.64
  -9  -5  11   54.62   19.59
  -9   5  11    2.48   12.27
  -9   5 -11   53.42   23.32
  -9  -5 -12  102.58   38.09
  -9   5 -12  168.64   39.66
   9  -5  12  148.85   36.75
  -9  -5  12  206.79   49.72
  -9   5  12  147.57   36.20
  -9  -5  12  111.71   30.41
  -9   5  12   58.64   20.89
  -9   5 -12   94.47   26.91
  -9  -6   0  212.71   35.51
   9  -6   0  153.27   41.40
  -9  -6   0  234.48   39.04
  -9  -6   0  134.52   33.34
  -9  -6  -1   43.55   12.43
  -9   6  -1   38.56   10.12
   9   6  -1   81.53   21.73
   9   6   1   53.12   14.22
   9  -6  -1   33.04   12.14
   9  -6   1   49.15   24.37
  -9  -6   1   40.48   13.96
  -9  -6  -1   91.71   29.32
  -9  -6  -2   11.34    9.10
  -9   6  -2   13.62    7.69
   9   6  -2   31.37   11.50
   9   6   2    7.69    6.78
   9  -6  -2   -1.03   14.65
   9  -6   2   43.07   11.93
  -9  -6   2   17.97   11.79
  -9  -6  -2   39.80   20.52
  -9  -6   2   26.55   15.37
  -9   6   2   26.42   17.00
  -9  -6  -3  104.18   46.22
  -9   6  -3  187.59   31.83
   9   6  -3  191.72   32.46
   9   6   3   67.48   29.87
   9  -6  -3  135.75   31.19
   9  -6   3  143.35   35.56
  -9  -6   3  154.60   26.11
  -9  -6   3  120.90   26.87
  -9  -6  -3  102.77   25.44
  -9   6   3  147.01   32.63
  -9  -6  -4   22.79   13.29
  -9   6  -4   26.01   10.80
   9   6  -4   36.40   15.15
   9  -6  -4   59.09   18.96
   9  -6   4   36.66   19.72
  -9  -6   4   33.23   12.26
  -9  -6   4   42.49   17.18
  -9  -6  -4   52.18   24.57
  -9   6   4   31.92   15.03
  -9  -6  -5   51.00   22.37
  -9   6  -5    0.28    8.91
   9   6  -5   47.22   14.29
   9  -6  -5   37.78   16.87
   9  -6   5   -3.52   16.66
  -9  -6   5   25.40   11.88
  -9  -6   5    8.24   15.13
  -9  -6  -5   24.43   15.36
  -9   6   5   18.43   15.05
  -9  -6  -6   49.85   18.82
  -9   6  -6   67.43   17.63
   9  -6   6   60.24   18.60
  -9  -6   6   22.05   13.47
  -9  -6   6   -6.48   15.22
  -9  -6  -6   48.01   17.14
  -9   6   6   39.02   16.95
  -9  -6  -7   77.45   23.40
  -9   6  -7   28.72   17.67
   9  -6  -7   13.39   13.15
   9  -6   7  112.58   33.09
  -9  -6   7   15.69   12.13
  -9  -6   7   51.23   24.74
  -9  -6  -7   14.20   13.75
  -9   6   7   21.16   14.70
  -9  -6  -8   48.59   17.17
  -9   6  -8   19.93   20.17
   9  -6  -8   77.99   26.83
   9  -6   8   25.15   18.67
  -9  -6   8   10.18   12.79
  -9  -6   8   34.58   21.63
  -9  -6  -8    9.28   13.49
  -9   6   8   57.67   23.69
  -9  -6  -9   32.14   13.78
  -9   6  -9   45.34   15.15
   9  -6   9   38.92   19.03
  -9  -6   9   32.91   14.83
  -9  -6   9   45.89   20.87
  -9  -6  -9   19.71   13.26
  -9   6   9    5.35   13.90
  -9  -6 -10   75.61   27.34
  -9   6 -10   35.00   15.58
   9  -6  10   73.95   25.07
  -9  -6  10   58.64   23.81
  -9   6  10  126.34   42.11
  -9  -6  10   33.78   22.06
  -9  -6 -10   18.17   13.05
  -9   6  10   98.54   30.18
  -9  -6 -11   16.87   13.33
  -9   6 -11    9.02   15.08
   9  -6  11   35.91   22.21
  -9  -6  11   41.44   16.39
  -9   6  11   40.83   20.88
  -9  -6  11    2.41   15.00
  -9   6  11   41.06   20.07
  -9   6 -11   42.42   18.42
   9   7   0  100.63   23.54
   9  -7   0  176.42   46.69
  -9  -7   0  166.08   35.83
  -9  -7  -1  138.62   25.77
   9   7  -1   99.12   22.00
   9  -7  -1  130.27   29.68
   9  -7   1   85.61   24.35
  -9  -7   1   99.27   19.58
  -9  -7  -1   87.97   26.09
  -9  -7   1  136.81   32.88
  -9  -7  -2   14.24   12.41
  -9   7  -2   11.96    7.83
   9   7  -2   28.12   16.55
   9  -7  -2   50.34   24.62
   9  -7   2   15.78   14.74
  -9  -7   2   27.89    9.46
  -9  -7  -2   43.13   17.20
  -9  -7   2   17.11   13.83
  -9  -7  -3   56.70   20.54
  -9   7  -3   74.22   16.67
   9   7  -3   28.05   12.08
   9  -7  -3   41.18   18.61
   9  -7   3   63.17   17.59
  -9  -7   3   29.11   10.36
  -9  -7   3   69.83   18.86
  -9  -7  -3   72.10   23.55
  -9  -7  -4   51.61   25.01
  -9   7  -4   13.05   10.33
   9   7  -4   20.71   12.24
   9  -7  -4   36.94   18.59
   9  -7   4   63.13   19.87
  -9  -7   4   27.95   14.99
  -9  -7   4   64.19   27.17
  -9  -7  -4   26.64   20.19
  -9   7   4   30.93   16.59
  -9  -7  -5   35.05   12.92
  -9   7  -5   11.06   10.90
   9   7  -5   12.13   10.39
   9  -7  -5   21.50   18.00
   9  -7   5   40.41   19.76
  -9  -7   5   20.51   10.93
  -9  -7   5   21.78   16.96
  -9  -7  -5   43.88   17.45
  -9   7   5   10.98   15.76
  -9  -7  -6   33.38   13.09
  -9   7  -6   76.01   19.97
   9  -7  -6   32.66   12.76
   9  -7   6   93.51   34.01
  -9  -7   6   95.06   24.80
  -9  -7   6   96.22   32.45
  -9  -7  -6   69.31   22.88
  -9   7   6   45.95   18.47
  -9  -7  -7   48.86   18.99
  -9   7  -7    9.98   12.94
   9  -7  -7   20.64   13.88
   9  -7   7    3.24   16.88
  -9  -7   7   22.70   12.47
  -9  -7   7   12.90   15.47
  -9  -7  -7   51.52   21.71
  -9   7   7   25.83   23.50
  -9  -7  -8   37.55   18.44
  -9   7  -8   30.71   13.84
   9  -7  -8   76.69   32.38
   9  -7   8   42.30   18.21
  -9  -7   8   39.86   18.65
  -9  -7   8   32.71   17.73
  -9  -7  -8   34.28   18.90
  -9   7   8   19.85   14.95
  -9  -7  -9   58.78   20.30
  -9   7  -9  105.23   30.79
   9  -7  -9   46.14   21.61
   9  -7   9   73.61   24.08
  -9  -7   9   13.64   12.96
  -9  -7   9   46.41   19.21
  -9  -7  -9   27.25   13.16
  -9   7   9   59.17   21.14
  -9  -7 -10   23.32   21.27
  -9   7 -10  103.93   29.28
   9  -7  10   48.19   18.60
  -9  -7  10   17.62   14.16
  -9   7  10   54.66   20.95
  -9  -7  10   66.54   27.57
  -9  -7 -10    6.41   12.24
  -9   7  10   39.46   20.21
   9   8   0   20.49   14.06
   9  -8   0   14.60   15.49
  -9  -8   0   35.93   16.95
   9   8  -1  118.19   24.94
   9   8   1   44.93   16.14
   9  -8  -1  119.58   37.99
  -9  -8  -1  100.30   25.59
  -9  -8   1   78.28   28.41
  -9  -8  -2   16.94   13.14
  -9   8  -2   14.61    8.87
   9   8  -2   56.34   18.47
   9  -8  -2   65.44   18.40
   9  -8   2   38.84   18.96
  -9  -8  -2    8.30   16.96
  -9  -8   2   51.80   24.19
  -9  -8  -3   44.34   21.88
  -9   8  -3   47.62   16.12
   9   8  -3  125.83   31.69
   9  -8  -3   71.98   29.03
   9  -8   3  110.35   37.45
  -9  -8  -3  105.10   31.04
  -9  -8   3   75.68   28.07
  -9  -8  -4   25.08   17.37
  -9   8  -4   52.59   19.51
   9   8  -4   22.34   12.08
   9  -8  -4   18.58   15.99
   9  -8   4   53.35   19.82
  -9  -8   4   43.19   20.96
  -9  -8  -4   73.89   29.30
  -9  -8  -5   37.88   19.34
  -9   8  -5   57.04   19.37
   9   8  -5   32.57   11.74
   9  -8  -5   47.70   19.82
   9  -8   5   26.31   17.90
  -9  -8   5   40.46   14.65
  -9  -8   5   72.79   23.06
  -9  -8  -5   21.13   20.90
  -9  -8  -6   38.07   24.07
  -9   8  -6   21.68   18.61
   9   8  -6   27.83   18.18
   9  -8  -6   16.26    9.82
   9  -8   6   21.26   17.42
  -9  -8   6   11.12   14.19
  -9  -8   6   59.66   26.10
  -9  -8  -6   30.37   15.93
  -9   8   6  -20.31   17.20
  -9  -8  -7   27.22   11.14
  -9   8  -7   52.19   23.69
   9  -8  -7   59.99   21.21
   9  -8   7   24.51   27.94
  -9  -8   7   29.06   15.82
  -9  -8   7   25.00   17.30
  -9  -8  -7   26.75   19.71
  -9   8   7   36.91   18.96
  -9  -8  -8   15.64   11.40
  -9   8  -8    7.58   12.27
   9  -8  -8   40.14   17.35
   9  -8   8    8.34   17.69
  -9  -8   8    0.23   11.71
  -9  -8  -8  -13.75   13.36
  -9  -8   8   15.27   18.19
  -9   8   8   12.90   15.13
  -9  -8  -9   50.97   27.69
  -9   8  -9   77.37   24.51
   9  -8  -9   70.91   22.64
   9  -8   9   19.80   19.47
  -9  -8   9   26.03   12.87
  -9  -8   9  101.92   29.58
  -9  -8  -9   23.04   13.67
  -9   8   9   61.42   24.80
   9   9   0   42.63   15.25
   9  -9   0  101.90   34.74
  -9  -9   0   46.20   19.78
   9   9  -1   22.59   13.28
   9   9   1   -9.25   15.07
   9  -9  -1   32.45   22.81
   9  -9   1   29.47   17.75
  -9  -9   1   19.37   15.93
   9   9  -2    1.53   12.87
   9  -9  -2   43.69   13.69
   9  -9   2   31.97   21.04
  -9  -9  -2    5.51   16.03
  -9  -9   2   26.85   15.87
  -9  -9  -3   37.34   14.73
  -9   9  -3   37.21   10.79
   9   9  -3   36.40   18.28
   9  -9  -3   33.81   16.03
   9  -9   3   47.66   13.88
  -9  -9  -3   37.83   18.55
  -9  -9   3   39.79   18.37
  -9  -9  -4   41.98   14.49
  -9   9  -4   57.74   20.68
   9   9  -4   36.76   13.21
   9  -9  -4   78.92   28.18
   9  -9   4   27.84   14.47
  -9  -9  -4   72.78   28.36
  -9  -9   4   43.84   26.08
  -9  -9  -5   -8.43   13.09
  -9   9  -5   35.20   21.59
   9   9  -5   -0.84   10.84
   9  -9  -5   34.57   16.03
   9  -9   5   53.18   29.44
  -9  -9   5   34.88   20.17
  -9  -9  -5   76.00   28.68
  -9  -9  -6   15.92   16.56
  -9   9  -6   12.29   11.95
   9   9  -6   12.56   11.89
   9  -9  -6   20.43   12.71
   9  -9   6   11.06   18.37
  -9  -9  -6   14.59   13.85
  -9  -9   6   61.65   30.94
  -9  -9  -7   57.49   23.43
  -9   9  -7   56.49   23.13
   9  -9  -7   53.42   24.54
   9  -9   7   53.35   29.45
  -9  -9   7    9.78   16.85
  -9  -9  -7   38.61   16.27
  -9   9   7   45.89   20.17
  -9  -9  -8   32.64   14.38
  -9   9  -8   79.77   27.62
   9  -9  -8   46.54   19.56
   9  -9   8    7.37   19.34
  -9  -9  -8    8.87   14.32
  -9  -9   8   13.67   17.89
  -9   9   8    6.65   14.44
   9  10   0   -0.99   13.49
   9 -10   0   49.37   19.57
  -9 -10   0   70.06   31.58
   9  10   1   65.79   25.51
   9 -10  -1   98.01   33.04
   9 -10   1   76.03   30.60
  -9 -10   1   18.97   17.54
   9  10  -2   48.91   21.93
   9  10   2   46.93   24.57
   9 -10  -2   14.90   10.64
   9 -10   2   70.56   32.45
  -9 -10   2   90.66   34.20
  -9 -10  -2    7.76   16.84
   9  10  -3   18.12   13.79
   9  10   3   52.01   21.94
   9 -10  -3   42.40   17.39
   9 -10   3   70.59   25.88
  -9 -10  -3   29.48   16.17
  -9 -10   3   28.38   19.67
  -9 -10  -4   -5.17   12.93
  -9  10  -4   49.80   20.38
   9  10  -4   32.75   17.87
   9 -10  -4   -2.88   12.80
   9 -10   4   53.26   23.63
  -9 -10  -4   32.70   16.58
  -9 -10   4   42.11   22.24
  -9 -10  -5   54.87   24.53
   9  10  -5   22.05   12.50
   9 -10  -5   32.32   13.04
   9 -10   5   18.53   16.85
  -9 -10  -5   27.00   14.93
  -9 -10   5   69.05   28.90
  -9 -10  -6   44.05   17.47
  -9  10  -6   37.22   13.53
   9  10  -6   51.89   21.86
   9 -10  -6   31.88   14.09
   9 -10   6   45.42   21.29
  -9 -10   6   71.93   27.90
  -9 -10  -6   23.55   15.45
   9  11   0   86.16   28.41
   9 -11   0   30.31   24.75
  -9 -11   0   53.64   28.65
   9  11  -1    8.86   13.10
   9  11   1   23.46   15.49
   9 -11  -1   48.31   22.02
   9 -11   1   33.32   28.70
  -9 -11   1   42.96   19.37
  -9 -11  -1   -4.30   17.91
   9  11  -2   18.14   15.13
   9  11   2   32.10   15.41
   9 -11  -2   20.79   12.39
   9 -11   2   42.29   26.73
  -9 -11  -2    2.53   16.42
  -9 -11   2   76.59   30.00
   9  11  -3   30.11   19.83
   9  11   3   19.53   15.54
   9 -11  -3    5.92   11.07
   9 -11   3   35.20   15.46
  -9 -11  -3   25.35   19.11
  -9 -11   3   41.98   22.69
   9  11  -4   38.35   13.94
   9  11   4   32.75   16.50
   9 -11  -4   46.22   25.91
   9 -11   4   36.57   13.90
  -9 -11  -4   58.03   23.82
  -9 -11   4   49.47   27.83
 -10   0   0   14.42    5.92
  10   0   0   11.93    8.09
 -10   0   0   83.36   25.36
 -10   0  -1   75.22   21.76
  10   0  -1   38.81   17.67
  10   0   1   66.91   17.89
 -10   0  -1   83.99   22.21
 -10   0   1   79.34   24.83
 -10   0  -2   72.49   30.45
  10   0  -2  134.94   30.35
  10   0   2   88.82   29.58
 -10   0   2  149.23   34.83
 -10   0  -2  160.53   35.71
 -10   0  -3   45.55   19.19
  10   0  -3   49.98   14.33
  10   0   3   42.90   13.35
 -10   0   3   57.05   19.52
 -10   0  -3   46.10   18.75
 -10   0  -4   26.64    8.32
  10   0  -4   67.75   16.23
  10   0   4   60.99   20.44
 -10   0   4   80.88   25.61
 -10   0  -4   31.10   16.70
 -10   0  -5   19.27   12.93
  10   0  -5   20.70   14.36
  10   0   5   41.84   11.15
 -10   0   5   44.74   23.27
 -10   0  -5   21.76   16.69
 -10   0  -6   63.59   24.78
  10   0  -6  166.88   33.39
  10   0   6   51.95   14.52
 -10   0   6   73.90   25.10
 -10   0  -6   99.96   24.25
 -10   0  -7   22.29   11.58
  10   0   7   13.88   12.73
 -10   0   7   -7.12   18.67
 -10   0   7   23.55   16.09
 -10   0  -7   30.45   15.58
 -10   0  -8   26.56   13.80
  10   0   8   49.41   15.30
 -10   0   8   -2.35   15.80
 -10   0   8   23.13   14.69
 -10   0  -8    2.37   15.30
 -10   0  -9   -9.07   11.87
  10   0   9   48.88   22.46
 -10   0   9   72.24   28.80
 -10   0   9   30.85   16.55
 -10   0  -9   20.90   15.22
 -10   0 -10   19.89   21.02
  10   0  10   31.86   13.02
 -10   0  10   25.66   18.98
 -10   0  10   50.58   22.81
 -10   0 -10    6.45   13.57
 -10   0 -11   -0.56   13.04
  10   0  11    2.28   10.99
 -10   0  11    8.14   17.47
 -10   0  11   13.49   14.42
 -10   0 -11  -10.82   12.23
 -10  -1   0  142.34   42.59
  10   1   0  142.73   59.21
  10  -1   0  262.36   63.91
 -10  -1  -1   16.83    6.86
 -10   1  -1   10.17    5.49
  10   1  -1    9.78   12.44
  10  -1  -1   26.99   11.74
  10   1   1   35.41   10.52
  10  -1   1   29.36   15.65
 -10  -1   1   29.34   16.52
 -10  -1  -1   16.53   19.26
 -10   1   1    2.62   14.98
 -10   1  -1    1.53   16.75
 -10  -1  -2    7.78   10.45
 -10   1  -2   27.26    9.31
  10   1  -2   52.06   14.48
  10  -1  -2   53.01   22.57
  10   1   2   27.39   15.00
  10  -1   2   25.24   10.78
 -10  -1  -2   41.08   19.07
 -10  -1   2    3.51   15.03
 -10   1   2   43.79   18.58
 -10   1  -2    7.76   19.69
 -10  -1  -3  109.47   42.13
 -10   1  -3  105.95   28.81
  10   1  -3   76.82   36.57
  10  -1  -3  128.37   31.75
  10   1   3  101.09   24.38
  10  -1   3   98.30   21.15
 -10  -1   3  105.41   29.74
 -10  -1  -3  185.61   40.19
 -10   1   3  151.00   33.25
 -10   1  -3  158.39   31.12
 -10  -1  -4   30.84   17.49
 -10   1  -4   61.85   20.69
  10   1  -4   64.52   18.02
  10  -1  -4   64.67   23.92
  10   1   4   16.26    8.35
  10  -1   4   43.22   11.97
 -10  -1   4   62.43   18.53
 -10  -1  -4   60.30   22.96
 -10   1   4   61.68   25.16
 -10   1  -4   68.35   22.78
 -10  -1  -5   48.70   15.49
 -10   1  -5   54.40   17.30
  10   1  -5   54.06   17.63
  10  -1  -5   61.07   22.35
  10   1   5   27.94   13.49
  10  -1   5   25.65   13.72
 -10  -1   5   53.07   24.01
 -10  -1  -5   66.69   24.18
 -10   1   5   99.72   25.12
 -10   1  -5   70.35   21.01
 -10  -1  -6   46.67   13.74
 -10   1  -6   30.90   13.69
  10   1   6   29.58   17.73
 -10  -1   6   29.96   21.01
 -10  -1   6   30.94   16.81
 -10  -1  -6   31.66   21.63
 -10   1   6   32.85   17.37
 -10   1  -6   47.62   15.97
 -10  -1  -7   16.00    7.46
 -10   1  -7   32.42   13.01
  10   1   7   15.40    9.62
  10  -1   7   11.05   14.35
 -10  -1   7   70.88   27.92
 -10   1   7   44.90   20.57
 -10  -1   7    8.84   15.80
 -10   1   7   -5.85   15.15
 -10  -1  -7   -1.25   12.42
 -10   1  -7   36.27   22.32
 -10  -1  -8   36.25   11.39
 -10   1  -8   85.94   28.47
  10   1   8   42.08   21.29
  10  -1   8   34.70   17.78
 -10  -1   8   79.92   24.20
 -10   1   8   38.39   17.74
 -10  -1   8  117.01   33.23
 -10   1   8   47.45   15.84
 -10  -1  -8   52.06   18.75
 -10   1  -8   37.29   22.47
 -10  -1  -9   32.70   13.54
 -10   1  -9   69.83   25.87
  10   1   9   25.70   14.16
  10  -1   9   45.12   18.50
 -10  -1   9   67.91   28.59
 -10   1   9   74.50   29.00
 -10  -1   9   64.58   27.89
 -10   1   9   65.24   28.63
 -10  -1  -9   26.73   13.96
 -10   1  -9   44.03   16.54
 -10  -1 -10   24.56   11.40
 -10   1 -10   45.28   23.13
  10   1  10   26.04   13.33
  10  -1  10   23.83   13.87
 -10  -1  10  -13.56   19.01
 -10   1  10   -3.24   15.89
 -10  -1  10    4.02   15.55
 -10   1  10   19.05   20.15
 -10  -1 -10   11.00   12.62
 -10   1 -10   12.79   13.91
 -10  -1 -11   39.01   17.46
 -10   1 -11   42.96   16.69
  10   1  11   13.56   11.70
  10  -1  11   56.15   17.65
 -10  -1  11   24.42   19.15
 -10   1  11  116.58   32.10
 -10  -1  11   15.45   21.55
 -10   1  11   21.99   14.94
 -10  -1 -11   25.25   13.01
 -10   1 -11   48.20   20.74
 -10  -2   0   20.02    5.22
  10   2   0   18.22   11.22
  10  -2   0   58.12   33.06
 -10  -2   0   29.23   17.40
 -10   2   0   43.39   16.49
 -10  -2   1   12.62    4.50
 -10  -2  -1   11.59    9.69
 -10   2  -1   11.94    6.05
  10   2  -1   16.86   11.06
  10   2   1   16.37    7.37
  10  -2  -1   30.97   13.29
  10  -2   1   33.38   13.90
 -10  -2   1   15.33   14.39
 -10  -2  -1   51.92   20.94
 -10   2   1   53.92   24.00
 -10   2  -1   32.64   18.09
 -10  -2  -2   -6.33   10.16
 -10   2  -2   26.00    8.45
  10   2  -2   24.69    7.71
  10  -2  -2   10.69   12.36
  10   2   2   20.02   11.17
  10  -2   2   13.43   10.58
 -10  -2   2   50.83   22.69
 -10  -2  -2   55.62   20.25
 -10   2   2   14.86   23.58
 -10   2  -2   65.30   27.46
 -10  -2  -3   42.76   11.86
 -10   2  -3    3.14    9.30
  10  -2  -3   63.84   22.32
  10   2   3   14.74    6.81
  10  -2   3   47.04   17.00
 -10  -2   3   66.43   24.24
 -10  -2  -3   47.30   18.11
 -10   2   3   36.87   17.48
 -10   2  -3   52.43   20.39
 -10  -2  -4   30.94    9.09
 -10   2  -4   20.33   10.64
  10   2  -4   20.65   14.33
  10  -2  -4    7.72    8.85
  10   2   4    2.52    9.40
  10  -2   4   24.02    8.69
 -10  -2   4   19.73   20.07
 -10  -2  -4   36.19   23.28
 -10   2   4    0.28   15.74
 -10   2  -4   12.15   16.76
 -10  -2  -5   13.59   11.13
 -10   2  -5   38.44   14.89
  10  -2  -5   38.50   16.05
  10   2   5   -0.82   11.06
  10  -2   5   11.69    9.62
 -10  -2   5   21.74   15.00
 -10  -2   5   60.83   26.32
 -10  -2  -5   92.59   24.49
 -10   2  -5   56.50   20.01
 -10  -2  -6   25.10   12.19
 -10   2  -6   45.23   17.70
  10  -2  -6   53.26   19.45
  10   2   6   21.22   13.06
  10  -2   6   49.19   22.65
 -10  -2   6   37.52   15.44
 -10  -2   6   -5.73   14.27
 -10  -2  -6   36.86   16.91
 -10   2   6   81.61   25.16
 -10   2  -6   -1.97   13.67
 -10  -2  -7   12.18   12.79
 -10   2  -7   57.02   17.08
  10  -2  -7  129.05   31.48
  10   2   7   21.69   12.19
  10  -2   7   60.35   19.04
 -10  -2   7   51.84   18.22
 -10  -2   7   12.91   17.76
 -10  -2  -7   42.54   14.75
 -10   2   7    6.28   14.90
 -10   2  -7   49.79   24.49
 -10  -2  -8   32.23   12.05
 -10   2  -8   29.64   13.82
  10   2   8   20.96   12.58
  10  -2   8   97.73   28.63
 -10  -2   8   33.44   16.84
 -10   2   8   -2.44   17.51
 -10  -2   8    9.56   16.74
 -10  -2  -8   -9.99   13.86
 -10   2   8   38.90   17.49
 -10   2  -8   32.60   22.06
 -10  -2  -9   55.39   18.58
 -10   2  -9   38.32   19.76
  10   2   9    8.67   13.60
  10  -2   9   66.98   27.89
 -10  -2   9   21.08   20.70
 -10   2   9   40.82   20.22
 -10  -2   9    3.12   16.31
 -10  -2  -9   10.63   12.28
 -10   2   9   35.87   17.00
 -10   2  -9   78.43   31.98
 -10  -2 -10   45.51   21.14
 -10   2 -10    4.19   13.31
  10   2  10   22.97   11.87
  10  -2  10   49.23   25.85
 -10  -2  10   -7.00   14.97
 -10   2  10   55.88   27.62
 -10  -2  10   33.91   17.43
 -10  -2 -10   19.94   17.13
 -10   2  10   10.72   14.56
 -10   2 -10    1.99   12.96
 -10  -2 -11   41.87   19.56
 -10   2 -11   27.24   15.73
  10   2  11   17.14   11.89
  10  -2  11   -7.94   13.79
 -10  -2  11   43.55   26.67
 -10   2  11   73.57   32.15
 -10  -2  11   14.91   15.07
 -10   2  11   19.08   13.98
 -10   2 -11   -8.45   13.80
 -10  -3   0    3.16    7.74
  10   3   0    8.39    8.75
  10  -3   0    7.26    9.63
 -10  -3   0   25.06   18.22
 -10   3   0   -2.44   15.46
 -10  -3   1   27.49   10.03
 -10  -3  -1   68.24   22.16
  10   3  -1   34.34    8.54
  10   3   1   25.21   18.82
  10  -3  -1   46.35   19.07
  10  -3   1   42.58   15.23
 -10  -3   1   42.24   15.92
 -10  -3  -1   17.79   18.13
 -10   3   1   31.68   17.21
 -10  -3  -2   45.39   13.21
 -10   3  -2   63.76   13.42
  10   3  -2   83.33   23.52
  10  -3  -2   53.12   19.08
  10   3   2   34.90   11.74
  10  -3   2   99.95   25.36
 -10  -3   2   14.61   15.16
 -10   3   2   28.95   17.70
 -10   3  -2   93.88   31.84
 -10  -3  -3   10.01    5.59
 -10   3  -3   24.97   11.92
  10   3  -3   34.08   13.84
  10  -3  -3   -4.16   15.80
  10   3   3   21.61   16.97
  10  -3   3   14.36   10.39
 -10  -3   3   -1.57   16.17
 -10  -3  -3   -1.76   14.96
 -10   3   3   43.77   17.49
 -10   3  -3   61.86   26.80
 -10  -3  -4   45.56   17.74
 -10   3  -4   23.96   14.09
  10  -3  -4   54.12   17.43
  10   3   4   26.68   10.69
  10  -3   4   74.30   22.50
 -10  -3   4   37.75   22.52
 -10  -3   4  109.67   26.12
 -10  -3  -4   52.29   23.07
 -10   3   4   65.48   24.86
 -10   3  -4   49.09   26.33
 -10  -3  -5   34.79   13.40
 -10   3  -5   22.16   10.56
  10  -3  -5   16.82   16.40
  10   3   5   21.98    9.48
  10  -3   5   49.03   17.61
 -10  -3   5    7.26   12.91
 -10  -3   5   17.08   16.91
 -10  -3  -5    4.40   13.29
 -10   3   5   39.30   17.73
 -10   3  -5   59.85   29.90
 -10  -3  -6   49.02   22.01
 -10   3  -6   25.32   15.41
  10  -3  -6    7.92   17.76
  10   3   6   13.67    9.53
  10  -3   6   14.80   13.31
 -10  -3   6   36.03   14.86
 -10  -3   6   21.58   17.85
 -10  -3  -6   21.99   14.92
 -10   3   6   19.02   15.06
 -10   3  -6   24.93   15.84
 -10  -3  -7   33.71   17.90
 -10   3  -7   25.36   16.95
  10  -3  -7   16.17   15.81
  10   3   7   53.25   20.02
  10  -3   7   39.97   16.48
 -10  -3   7   32.37   15.00
 -10  -3   7   48.39   20.56
 -10  -3  -7    5.46   14.70
 -10   3   7   51.20   23.49
 -10   3  -7   32.38   17.10
 -10  -3  -8   85.95   26.98
 -10   3  -8   45.27   14.61
  10   3   8   30.49   10.59
  10  -3   8   67.20   27.25
 -10  -3   8   81.33   22.79
 -10   3   8   56.04   21.00
 -10  -3   8   27.50   16.01
 -10  -3  -8   37.20   14.38
 -10   3   8   36.94   22.43
 -10   3  -8   34.66   16.42
 -10  -3  -9    7.49   11.28
 -10   3  -9   43.66   16.67
  10   3   9   15.32    6.87
  10  -3   9   24.96   16.06
 -10  -3   9   40.50   19.98
 -10  -3   9   37.76   17.10
 -10  -3  -9   55.06   23.88
 -10   3   9    7.23   13.24
 -10   3  -9   -8.88   14.50
 -10  -3 -10   27.94   11.86
 -10   3 -10   24.77   14.48
  10  -3  10   53.49   19.95
 -10  -3  10   28.31   18.39
 -10   3  10   17.96   20.35
 -10  -3  10   25.55   26.25
 -10  -3 -10   40.55   19.13
 -10   3  10   17.19   14.56
 -10   3 -10   31.61   21.27
 -10  -3 -11   64.64   20.22
 -10   3 -11   31.22   15.83
  10  -3  11   42.67   22.85
 -10  -3  11   61.30   21.85
 -10   3  11   45.48   23.18
 -10  -3  11    7.12   15.08
 -10   3  11   48.37   22.36
 -10  -4   0   70.69   26.14
  10   4   0   59.81   24.57
  10  -4   0   39.04   16.68
 -10  -4   0   83.68   30.12
 -10   4   0  103.67   26.87
 -10  -4   1   29.41   11.79
 -10  -4  -1   39.89   13.98
  10   4  -1   28.70   10.88
  10   4   1   14.97   10.48
  10  -4  -1   40.86   14.53
  10  -4   1   65.63   24.63
 -10  -4  -1   25.92   17.25
 -10  -4   1   16.67   16.76
 -10   4   1   71.67   26.09
 -10   4  -1    9.39   16.77
 -10  -4  -2   73.12   29.10
 -10   4  -2   19.54    8.85
  10   4  -2   45.17   10.98
  10   4  -2   12.92   11.00
  10  -4  -2   97.47   24.47
  10  -4   2   93.97   29.80
 -10  -4   2  111.95   23.69
 -10  -4  -2   53.58   25.54
 -10   4   2   72.22   26.45
 -10   4  -2   27.02   20.88
 -10  -4  -3   27.86   13.64
 -10   4  -3   20.73    9.01
  10  -4  -3   39.57   20.57
  10   4   3   -8.99   10.01
  10  -4   3   28.32   14.59
 -10  -4   3    8.69   11.61
 -10  -4   3   25.09   17.84
 -10  -4  -3    7.21   17.23
 -10   4   3    3.68   15.38
 -10   4  -3   13.92   16.91
 -10  -4  -4    6.38   10.73
 -10   4  -4   10.81    9.37
  10  -4  -4   19.85   10.42
  10   4   4   31.84   13.12
  10  -4   4   31.04   14.27
 -10  -4   4   56.06   21.93
 -10  -4   4   32.96   18.56
 -10   4   4   31.77   16.20
 -10   4  -4   65.66   20.28
 -10  -4  -5   37.54   14.18
 -10   4  -5   10.59   10.28
  10  -4  -5   41.45   12.89
  10   4   5   23.54   11.51
  10  -4   5  109.44   42.15
 -10  -4   5   18.58   12.90
 -10  -4   5   70.94   31.73
 -10  -4  -5   23.38   14.73
 -10   4   5   21.12   24.35
 -10   4  -5   43.88   23.43
 -10  -4  -6   56.62   19.99
  10  -4  -6   72.55   29.67
  10   4   6   34.11   16.47
  10  -4   6  130.16   36.89
 -10  -4   6   28.05   15.18
 -10  -4   6   78.48   23.49
 -10  -4  -6   98.64   28.76
 -10   4   6  157.76   42.09
 -10   4  -6   67.45   22.60
 -10  -4  -7   63.66   21.60
 -10   4  -7   44.66   18.44
  10  -4  -7   32.52   22.50
  10  -4   7   37.99   17.22
 -10  -4   7   43.30   16.33
 -10  -4   7   67.37   22.97
 -10  -4  -7   97.04   29.72
 -10   4   7   59.78   20.83
 -10   4  -7   33.41   19.84
 -10  -4  -8   52.51   19.26
 -10   4  -8   44.55   18.23
  10  -4  -8   12.52   16.69
  10  -4   8   64.95   27.06
 -10  -4   8   22.48   14.62
 -10  -4   8    8.39   16.49
 -10  -4  -8   15.44   15.54
 -10   4   8   66.85   23.46
 -10   4  -8   33.68   16.84
 -10  -4  -9   22.15    9.45
 -10   4  -9   25.15   14.17
  10  -4   9   49.15   24.38
 -10  -4   9   76.98   27.91
 -10   4   9   67.76   25.90
 -10  -4   9   48.85   20.50
 -10  -4  -9   22.54   13.80
 -10   4   9   33.34   14.89
 -10   4  -9   63.41   21.44
 -10  -4 -10   40.61   16.74
 -10   4 -10   11.76   12.77
  10  -4  10   46.44   17.14
 -10  -4  10   50.67   18.11
 -10   4  10   31.65   22.27
 -10  -4  10   42.01   23.90
 -10  -4 -10    8.53   12.07
 -10   4  10   30.90   16.26
 -10   4 -10   39.94   22.13
 -10  -5   0   41.58   13.83
  10   5   0    3.19    9.59
  10  -5   0   20.19   11.52
 -10  -5   0   -6.25   18.20
 -10   5   0   19.90   17.77
 -10  -5  -1   98.90   27.59
  10   5  -1  170.07   26.26
  10   5   1   96.71   18.86
  10  -5  -1  125.66   32.42
  10  -5   1  123.60   24.93
 -10  -5   1   99.69   21.03
 -10  -5  -1  134.63   26.92
 -10   5   1  172.81   35.38
 -10   5  -1  139.25   36.66
 -10  -5  -2   36.62   11.43
  10   5  -2    5.14    8.77
  10   5   2   16.63    7.22
  10  -5  -2   61.02   25.60
  10  -5   2   39.05   16.66
 -10  -5   2   30.67   14.84
 -10  -5   2   27.32   17.41
 -10  -5  -2   18.07   21.48
 -10   5   2   21.28   17.91
 -10   5  -2   23.82   27.48
 -10  -5  -3   42.12   21.88
 -10   5  -3   65.95   17.64
  10   5   3   39.06   15.00
  10  -5  -3   44.98   22.18
  10  -5   3   95.93   36.15
 -10  -5   3   26.64   12.34
 -10  -5   3   82.48   31.74
 -10  -5  -3   27.06   18.83
 -10   5   3   59.76   30.04
 -10   5  -3  102.03   32.75
 -10  -5  -4   13.11   12.05
 -10   5  -4   18.13   11.98
  10  -5   4   43.18   26.44
 -10  -5   4   10.21   16.94
 -10  -5   4   19.68   18.85
 -10  -5  -4   32.34   15.90
 -10   5   4  -11.67   15.54
 -10   5  -4   37.97   23.72
 -10  -5  -5   68.61   23.15
 -10   5  -5   86.28   24.14
  10  -5  -5  130.99   49.24
  10  -5   5   96.54   32.97
 -10  -5   5   80.58   24.75
 -10  -5  -5  103.76   30.47
 -10   5   5   98.79   27.48
 -10   5  -5  128.76   39.09
 -10  -5  -6   12.79    6.96
 -10   5  -6   18.31   11.81
  10  -5  -6   32.78   13.61
  10  -5   6   28.06   16.59
 -10  -5   6   -2.14   11.83
 -10  -5   6   80.68   28.28
 -10  -5  -6   41.82   15.88
 -10   5   6    3.92   14.94
 -10   5  -6   61.44   26.42
 -10  -5  -7   28.38   15.86
 -10   5  -7   51.04   17.94
  10  -5  -7   70.46   29.93
  10  -5   7  112.76   36.75
 -10  -5   7   25.65   14.16
 -10  -5   7   25.75   18.33
 -10  -5  -7   11.51   12.85
 -10   5   7   39.41   17.28
 -10   5  -7   27.11   18.72
 -10  -5  -8   43.50   13.58
 -10   5  -8   47.35   18.31
  10  -5  -8   24.66   19.00
  10  -5   8   28.81   16.89
 -10  -5   8   87.52   29.88
 -10  -5   8   28.12   16.49
 -10  -5  -8   22.71   13.51
 -10   5   8    6.95   15.99
 -10   5  -8   51.00   21.20
 -10  -5  -9   29.22   13.54
 -10   5  -9   24.73   13.56
  10  -5   9    0.32   16.19
 -10  -5   9    1.49   12.87
 -10   5   9   23.82   19.88
 -10  -5   9    8.81   16.38
 -10  -5  -9    2.07   13.58
 -10   5   9   41.10   15.24
 -10   5  -9   30.90   17.16
 -10  -5 -10   -3.63   14.83
 -10   5 -10   16.17   13.95
  10  -5  10   65.17   25.76
 -10  -5  10   10.99   14.41
 -10   5  10   -1.27   17.83
 -10  -5  10   76.03   26.48
 -10  -5 -10   16.44   13.44
 -10   5  10    6.33   14.69
 -10   5 -10   40.57   22.75
 -10  -6   0   29.46    9.53
 -10  -6   0   41.46   19.49
 -10   6   0   24.23   19.55
 -10  -6  -1   25.89   15.04
  10   6  -1   27.72   15.03
  10  -6  -1   43.26   25.38
  10  -6   1   -2.62   16.28
 -10  -6   1   21.53   13.59
 -10  -6  -1   61.35   26.01
 -10   6  -1   58.06   29.57
 -10   6   1   50.82   29.82
 -10  -6  -2   49.77   20.16
  10   6  -2   18.24   10.49
  10  -6  -2   33.45   12.79
  10  -6   2   32.13   21.43
 -10  -6   2   29.02   10.70
 -10  -6  -2   65.04   22.26
 -10  -6   2   43.97   20.05
 -10   6   2   47.72   21.60
 -10   6  -2   67.49   23.11
 -10  -6  -3   61.72   24.97
  10  -6  -3   33.58   17.49
  10  -6   3   47.54   19.76
 -10  -6   3   -1.48    9.83
 -10  -6   3   37.08   19.92
 -10  -6  -3   36.43   24.36
 -10   6   3   60.73   23.28
 -10   6  -3   61.08   23.60
 -10  -6  -4   29.71   12.94
 -10   6  -4   23.24    9.53
  10  -6  -4   51.81   17.27
  10  -6   4   66.53   25.44
 -10  -6   4   25.61   11.87
 -10  -6   4  102.84   33.97
 -10   6   4   64.55   23.04
 -10   6  -4   65.03   30.32
 -10  -6  -5   27.66   14.76
 -10   6  -5   32.32   11.51
  10  -6  -5   42.64   18.12
  10  -6   5  -16.38   15.98
 -10  -6   5   11.62   11.36
 -10  -6   5   40.75   18.06
 -10  -6  -5   15.42   15.90
 -10   6   5   24.03   16.64
 -10   6  -5   57.46   22.45
 -10  -6  -6   22.97   10.90
 -10   6  -6   24.57   12.60
  10  -6  -6   42.44   16.96
  10  -6   6   28.66   19.49
 -10  -6   6   55.52   27.73
 -10  -6  -6   33.66   16.96
 -10   6   6   36.35   18.89
 -10   6  -6   45.11   19.27
 -10  -6  -7   20.37   20.05
 -10   6  -7    9.68   12.07
  10  -6  -7   35.41   25.55
  10  -6   7   70.35   31.31
 -10  -6   7    2.16   12.07
 -10  -6   7   12.39   16.99
 -10  -6  -7   62.74   23.12
 -10   6   7   29.78   14.86
 -10   6  -7   23.25   17.66
 -10  -6  -8   13.92   12.88
 -10   6  -8   73.74   25.66
  10  -6   8   38.36   17.76
 -10  -6   8   21.85   14.18
 -10  -6   8   64.32   27.54
 -10  -6  -8   52.53   24.59
 -10   6   8   22.67   17.55
 -10   6  -8   34.38   18.38
 -10  -6  -9   58.99   21.45
 -10   6  -9   15.61   13.34
  10  -6   9   35.19   16.84
 -10  -6   9    6.73   12.66
 -10   6   9   65.96   22.05
 -10  -6   9   22.59   15.59
 -10  -6  -9   52.74   17.20
 -10   6   9   59.39   19.03
 -10   6  -9   52.94   20.15
  10   7   0   24.70   12.85
  10  -7   0   21.77   10.73
 -10  -7   0   47.66   25.08
 -10   7   0   13.02   18.49
 -10  -7  -1   30.67   11.51
  10   7  -1   30.73   12.91
  10  -7  -1   34.79   15.06
  10  -7   1   -9.67   15.09
 -10  -7  -1   19.53   16.51
 -10  -7   1    8.45   14.40
 -10   7  -1   50.78   28.28
 -10   7   1   31.57   18.52
 -10  -7  -2   29.86   16.61
  10   7  -2   34.68   15.57
  10  -7  -2   75.01   24.03
  10  -7   2   28.70   17.61
 -10  -7  -2   25.54   16.06
 -10  -7   2   -9.56   15.61
 -10   7   2   47.48   18.18
 -10  -7  -3   27.87    9.83
  10   7  -3   32.26   11.56
  10  -7  -3   66.10   24.19
  10  -7   3   42.55   20.63
 -10  -7  -3   48.70   17.07
 -10  -7   3   23.50   16.39
 -10   7   3   29.97   18.14
 -10  -7  -4   34.29   25.30
  10  -7  -4   13.40   13.79
  10  -7   4   15.37   16.12
 -10  -7   4   19.39   11.58
 -10  -7   4   15.69   18.17
 -10  -7  -4    8.15   15.91
 -10   7   4   -6.60   18.87
 -10  -7  -5   16.90   12.21
 -10   7  -5   33.61   12.54
  10  -7  -5   41.82   17.62
  10  -7   5   36.43   23.20
 -10  -7   5   10.27   11.42
 -10  -7   5   45.16   18.37
 -10  -7  -5   -8.52   14.09
 -10   7   5   38.44   18.40
 -10  -7  -6   38.53   16.75
 -10   7  -6   54.54   21.40
  10  -7  -6   49.33   14.87
  10  -7   6   32.62   17.43
 -10  -7   6   46.53   19.23
 -10  -7   6   34.16   25.68
 -10  -7  -6   37.35   15.41
 -10   7   6   27.30   17.64
 -10  -7  -7   31.11   13.68
 -10   7  -7   32.39   13.06
  10  -7  -7   25.94   12.85
  10  -7   7   34.03   16.86
 -10  -7   7    9.98   11.91
 -10  -7   7   11.72   15.08
 -10  -7  -7   36.56   14.95
 -10   7   7   12.62   16.67
 -10  -7  -8   29.41   10.55
 -10   7  -8   47.39   19.93
  10  -7  -8   -8.11   14.06
  10  -7   8   24.73   17.27
 -10  -7   8   10.75   12.68
 -10  -7   8   12.75   17.99
 -10  -7  -8   33.44   15.23
 -10   7   8   -2.96   15.84
 -10   7  -8   37.37   18.38
  10   8   0  353.15   30.86
  10  -8   0  163.90   70.49
 -10  -8   0  253.30   68.88
  10   8  -1    2.68   12.13
  10   8   1   48.01   21.99
  10  -8   1   81.46   34.38
 -10  -8   1   10.89   16.44
 -10  -8  -1   46.25   25.42
 -10  -8  -2    2.50   10.84
  10   8  -2   -6.55   11.46
  10  -8  -2   43.97   14.44
  10  -8   2   78.88   34.13
 -10  -8   2    9.41   17.97
 -10  -8  -2   29.85   17.08
 -10   8   2   56.67   31.70
 -10  -8  -3   42.74   19.04
  10   8  -3   35.73   13.24
  10  -8  -3   20.17   14.49
  10  -8   3   39.33   21.80
 -10  -8  -3   44.36   24.57
 -10  -8   3   62.63   31.51
 -10   8   3   39.45   20.19
 -10  -8  -4   43.34   15.40
  10  -8  -4   90.68   23.87
  10  -8   4   71.31   36.89
 -10  -8  -4   79.80   28.60
 -10  -8   4   63.98   23.89
 -10   8   4   89.50   28.39
 -10  -8  -5   29.01   13.66
 -10  -8   5   31.71   15.82
 -10  -8  -5   26.70   16.52
 -10   8   5   68.36   23.24
 -10  -8  -6   30.92   18.26
 -10   8  -6   24.73   16.65
  10  -8  -6   17.76   15.50
  10  -8   6   12.26   16.85
 -10  -8   6   33.33   18.71
 -10  -8  -6   19.92   16.46
 -10   8   6    8.14   16.28
  10   9   0   53.73   18.26
  10  -9   0   16.12   16.14
 -10  -9   0   35.94   23.74
  10   9  -1    0.31   11.69
  10   9   1   24.65   19.97
  10  -9  -1   -4.59   15.07
  10  -9   1   29.18   12.82
 -10  -9   1    4.79   14.68
 -10  -9  -1   34.59   19.64
  10   9  -2    3.78   11.07
  10   9   2   14.86   13.68
 -10  -9  -2   30.78   18.26
 -10  -9  -3   20.72   12.82
  10   9  -3   19.13   13.06
  10  -9  -3   38.14   15.77
  10  -9   3   14.90   12.51
 -10  -9   3   41.55   29.61
 -10  -9  -3    9.85   17.34
 -10  -9  -4   32.82   13.38
  10  -9  -4   36.34   17.11
  10  -9   4   35.88   18.21
 -10  -9   4   77.93   31.25
 -10  -9  -4  -10.06   15.43
 -10   9   4  -14.89   18.78
  11   0   0   10.27    9.88
  11   0  -1    8.01   11.90
  11   0   1   44.73   14.21
 -11   0  -1   13.69   17.24
 -11   0   1   42.23   19.97
  11   0  -2    8.73   14.69
  11   0   2   26.28    8.76
 -11   0   2   19.12   18.64
 -11   0  -2   17.75   17.46
 -11   0  -3    8.44    7.01
  11   0  -3    1.75    8.11
  11   0   3  -12.20   13.41
 -11   0   3   74.44   24.10
 -11   0  -3   -7.87   16.33
 -11   0  -4   28.18   12.67
  11   0  -4   21.39   17.26
  11   0   4   63.56   30.10
 -11   0   4   56.86   21.57
 -11   0  -4    3.18   17.14
 -11   0  -5   89.66   42.71
  11   0  -5  187.33   45.36
  11   0   5  142.35   52.20
 -11   0   5  213.69   31.35
 -11   0  -5   95.66   27.26
 -11   0  -6   18.87    8.98
  11   0   6   34.00   10.26
 -11   0   6   89.86   31.66
 -11   0   6   38.70   20.77
 -11   0  -6   42.82   23.92
 -11   0  -7   44.25   20.48
  11   0   7    2.82   12.01
 -11   0   7   70.46   30.09
 -11   0   7   16.67   15.91
 -11   0  -7    7.14   16.13
 -11   0  -8  113.17   44.35
  11   0   8  142.48   57.58
 -11   0   8  227.91   47.80
 -11   0   8  162.99   34.71
 -11   0  -8  160.59   39.61
  11   1   0   36.63   17.17
  11  -1   0   41.29   10.97
 -11   1   0   82.90   31.55
  11   1  -1   50.99   17.61
  11  -1  -1   30.22   13.63
  11   1   1    6.38   11.58
  11  -1   1   23.46    9.59
 -11  -1   1   44.24   21.99
 -11  -1  -1   28.92   19.20
 -11   1   1    3.69   17.56
 -11   1  -1   24.86   17.79
  11   1  -2   35.59   11.30
  11  -1  -2   17.61   18.95
  11   1   2   72.19   20.76
  11  -1   2   17.31   13.44
 -11  -1   2   56.44   29.53
 -11  -1  -2   18.75   18.05
 -11   1   2   81.90   34.28
 -11   1  -2   53.90   22.91
 -11  -1  -3   21.21    8.77
  11   1  -3   30.11   16.29
  11  -1  -3   -7.60   13.85
  11   1   3   41.02   17.64
  11  -1   3   52.28   26.83
 -11  -1   3   33.10   24.76
 -11  -1  -3    3.96   16.58
 -11   1   3   20.51   17.24
 -11   1  -3   27.99   18.86
 -11  -1  -4   51.92   22.64
 -11   1  -4   47.94   14.35
  11   1  -4   78.89   25.95
  11  -1  -4   58.69   16.91
  11   1   4   44.24   18.60
  11  -1   4   41.35   16.29
 -11  -1   4   46.70   18.31
 -11  -1  -4  132.04   34.85
 -11   1   4   78.11   30.37
 -11   1  -4   63.80   27.33
 -11  -1  -5   22.92   11.85
 -11   1  -5   55.22   18.64
  11  -1  -5   30.91   18.30
  11   1   5   23.56   11.99
  11  -1   5   59.03   23.48
 -11  -1   5    4.60   16.49
 -11  -1  -5   17.66   18.51
 -11   1   5   40.17   18.95
 -11   1  -5   61.77   23.74
 -11  -1  -6   31.74   11.49
 -11   1  -6    5.32   14.80
  11  -1  -6   29.55   17.16
  11   1   6   10.58   19.13
  11  -1   6   25.66   10.94
 -11  -1   6   14.91   14.82
 -11  -1   6   47.67   28.84
 -11  -1  -6   37.47   22.43
 -11   1   6   67.55   31.32
 -11   1  -6   45.52   24.20
 -11  -1  -7   32.49   16.12
 -11   1  -7   -3.76   10.83
  11   1   7    7.30    8.84
  11  -1   7   18.19   15.07
 -11  -1   7   51.62   26.52
 -11   1   7   49.88   23.51
 -11  -1   7   78.36   30.60
 -11   1   7   60.33   26.19
 -11  -1  -7   11.78   14.85
 -11   1  -7   17.84   16.19
 -11  -1  -8   11.04    9.77
 -11   1  -8   59.92   21.21
  11   1   8   59.28   18.58
  11  -1   8   22.77   13.65
 -11  -1   8   17.67   18.28
 -11   1   8   41.21   21.03
 -11  -1   8   43.55   18.99
 -11   1   8    9.81   17.04
 -11  -1  -8   37.91   20.32
 -11   1  -8   -2.38   14.99
  11   2   0   31.30    8.52
  11  -2   0   27.34   10.71
 -11  -2   0   28.40   16.26
 -11   2   0   -3.95   16.49
  11   2  -1   27.92   13.84
  11   2   1   51.74   19.98
  11  -2  -1   35.36   13.12
  11  -2   1   54.53   16.10
 -11  -2  -1   28.64   19.59
 -11  -2   1   -2.05   17.24
 -11   2  -1   58.72   27.88
 -11   2   1   32.89   18.14
 -11  -2  -2   10.70    5.34
  11   2  -2   15.22   14.20
  11  -2  -2   42.95   15.99
  11   2   2   18.23    9.02
  11  -2   2   15.09   12.76
 -11  -2   2   24.85   17.70
 -11  -2  -2   34.46   17.15
 -11   2  -2   30.85   20.77
 -11   2   2   31.80   19.79
 -11  -2  -3   34.91   12.13
  11   2  -3   71.13   20.61
  11  -2  -3   79.68   33.83
  11   2   3   13.40   11.63
  11  -2   3   47.71   22.01
 -11  -2   3   74.36   29.70
 -11  -2  -3   41.92   17.79
 -11   2   3   55.49   25.95
 -11   2  -3  111.02   35.32
 -11  -2  -4   -2.48   10.44
 -11   2  -4   -3.47    7.99
  11   2  -4   20.67   13.57
  11  -2  -4   32.07   15.87
  11   2   4    3.02    7.57
  11  -2   4   12.13   14.04
 -11  -2   4    8.25   15.81
 -11  -2  -4    2.38   15.84
 -11   2   4  -15.79   17.51
 -11   2  -4   12.59   18.65
 -11  -2  -5   14.97   10.78
 -11   2  -5   13.10    8.19
  11  -2  -5   30.81   17.22
  11   2   5   62.86   23.18
  11  -2   5   44.59   20.25
 -11  -2   5   33.10   21.69
 -11  -2   5   82.21   33.01
 -11  -2  -5   59.46   26.78
 -11   2   5   15.26   17.31
 -11   2  -5   31.26   17.74
 -11  -2  -6   29.86   11.70
 -11   2  -6   26.97   15.77
  11  -2  -6   13.91   15.51
  11   2   6   -9.62   10.35
  11  -2   6   12.45   11.32
 -11  -2   6   15.60   14.20
 -11  -2   6   45.43   18.93
 -11  -2  -6   34.57   15.78
 -11   2   6   10.34   17.64
 -11   2  -6   12.54   15.52
 -11  -2  -7   69.21   21.66
 -11   2  -7   44.04   15.57
  11  -2  -7  129.77   36.26
  11   2   7   65.70   30.29
  11  -2   7  112.73   40.75
 -11  -2   7  133.99   42.88
 -11  -2   7  111.89   36.18
 -11   2   7   57.94   21.63
 -11   2  -7   66.08   23.21
 -11  -2  -8   65.53   23.80
 -11   2  -8   41.80   17.95
  11   2   8    4.83    7.02
  11  -2   8   28.37   16.29
 -11  -2   8   39.33   18.58
 -11   2   8   26.61   18.25
 -11  -2   8   12.00   16.97
 -11  -2  -8   38.41   15.84
 -11   2   8   25.03   17.22
 -11   2  -8   21.97   16.19
  11   3   0   19.12   11.50
  11  -3   0   17.18    6.98
 -11  -3   0   83.28   28.08
 -11   3   0   31.69   18.56
  11   3  -1   29.19   13.42
  11   3   1   11.60    6.41
  11  -3  -1   68.26   25.86
  11  -3   1   17.66   10.96
 -11  -3  -1    1.96   18.47
 -11  -3   1   61.64   27.23
 -11   3   1   29.63   19.33
 -11   3  -1    1.55   16.47
 -11  -3  -2   45.69   19.28
  11   3  -2   39.23   17.57
  11  -3  -2   48.61   25.56
  11   3   2   22.30   17.55
  11  -3   2   64.36   21.53
 -11  -3  -2   44.64   24.55
 -11  -3   2   45.33   24.74
 -11   3   2   92.46   27.43
 -11   3  -2   51.71   23.11
 -11  -3  -3    5.95    4.26
  11   3  -3   33.61   14.58
  11  -3  -3   55.04   18.07
  11   3   3   23.80    8.46
  11  -3   3   28.33   12.22
 -11  -3   3    9.08   17.28
 -11  -3  -3   56.17   20.46
 -11   3   3   62.95   27.34
 -11   3  -3    9.26   19.05
 -11  -3  -4   31.10   14.26
  11  -3  -4   61.75   25.03
  11   3   4   15.56   11.18
  11  -3   4   48.22   30.22
 -11  -3   4   43.76   20.30
 -11  -3   4  247.09   64.37
 -11  -3  -4  124.97   37.54
 -11   3   4   74.80   26.41
 -11   3  -4   51.95   28.00
 -11  -3  -5   -5.05    9.29
 -11   3  -5    9.06    8.72
  11  -3  -5    1.42   13.92
  11   3   5   27.04   11.92
  11  -3   5   -1.98   15.00
 -11  -3   5   35.28   15.18
 -11  -3   5   58.10   31.49
 -11  -3  -5   56.93   21.51
 -11   3   5   45.84   18.79
 -11   3  -5   17.26   17.42
 -11  -3  -6   35.38   12.61
 -11   3  -6   25.96   12.16
  11  -3  -6   36.51   24.10
  11   3   6   22.92   11.13
  11  -3   6   27.86   17.17
 -11  -3   6   36.72   15.14
 -11  -3   6   42.20   19.60
 -11  -3  -6   52.65   26.66
 -11   3   6   18.78   16.97
 -11   3  -6   50.21   20.80
 -11  -3  -7   18.67   15.23
 -11   3  -7   23.37   11.34
  11  -3  -7   40.68   17.37
  11  -3   7   19.50   14.57
 -11  -3   7   10.38   14.71
 -11  -3   7   10.83   17.45
 -11  -3  -7   -0.35   13.85
 -11   3   7   51.74   21.57
 -11   3  -7   61.28   27.87
 -11  -3  -8   26.26   11.33
 -11   3  -8   31.87   17.74
  11  -3   8   38.33   17.38
 -11  -3   8   21.23   14.53
 -11   3   8   42.90   22.01
 -11  -3   8   22.33   16.28
 -11  -3  -8   29.08   15.49
 -11   3   8   20.69   17.29
  11   4   0   22.72   15.12
  11  -4   0   24.30   12.09
 -11  -4   0   62.21   27.95
 -11   4   0    8.22   18.34
 -11  -4  -1   22.43    9.45
  11   4  -1   27.85   11.15
  11   4   1   13.60   11.28
  11  -4  -1   31.05   15.57
  11  -4   1   20.32   17.91
 -11  -4  -1    5.37   20.42
 -11   4   1   59.34   23.46
 -11  -4  -2   31.16   13.58
  11   4   2   27.96    9.57
  11  -4  -2   52.49   25.78
  11  -4   2   42.66   16.69
 -11  -4  -2   35.98   19.25
 -11  -4   2   42.71   19.35
 -11   4   2   37.47   25.20
 -11   4  -2   58.21   32.40
 -11  -4  -3    8.79   12.49
  11  -4  -3   55.77   20.01
  11   4   3    5.58    7.71
  11  -4   3   32.50   16.97
 -11  -4   3   22.80   12.71
 -11  -4   3   51.36   32.26
 -11  -4  -3   18.54   16.83
 -11   4   3   30.88   27.53
 -11   4  -3   41.50   31.00
 -11  -4  -4  -12.77    8.82
  11  -4  -4   42.20   18.95
  11  -4   4   15.05   15.17
 -11  -4   4   -4.57   12.29
 -11  -4   4  -12.25   16.35
 -11  -4  -4   11.58   16.56
 -11   4   4   26.03   18.92
 -11   4  -4   22.41   24.28
 -11  -4  -5   30.81   11.75
  11  -4  -5   26.58   13.64
  11  -4   5   40.19   10.92
 -11  -4   5    9.57   13.17
 -11  -4   5   30.27   18.43
 -11  -4  -5   63.95   26.27
 -11   4   5   43.61   25.86
 -11   4  -5   39.67   26.46
 -11  -4  -6   56.68   14.90
 -11   4  -6   11.82   11.34
  11  -4  -6   71.78   27.19
  11  -4   6   47.70   18.68
 -11  -4   6    6.45   13.36
 -11  -4   6   60.68   22.13
 -11  -4  -6    7.49   16.03
 -11   4   6   28.48   24.04
 -11   4  -6   40.89   19.27
 -11  -4  -7   22.94   15.14
  11  -4  -7   15.76   15.60
  11  -4   7   -5.54   14.37
 -11  -4   7   37.42   15.62
 -11  -4   7   58.21   20.89
 -11  -4  -7   26.31   22.21
 -11   4   7   24.05   17.84
 -11   4  -7   11.42   16.95
  11   5   0    8.20    8.13
  11  -5   0   19.69   12.76
 -11  -5   0   14.65   18.65
 -11   5   0   30.98   20.91
 -11  -5  -1   19.83    9.15
  11  -5  -1   12.03   13.53
  11  -5   1  -21.90   16.88
 -11  -5   1    1.08   10.64
 -11  -5  -1   56.80   30.53
 -11   5  -1   15.41   20.74
 -11   5   1   13.07   20.16
 -11  -5  -2   21.88   13.57
  11  -5  -2   35.18   18.02
  11  -5   2   14.92   15.93
 -11  -5   2   32.42   18.10
 -11  -5   2   51.55   29.38
 -11  -5  -2   34.55   22.30
 -11   5   2   47.80   26.96
 -11   5  -2   20.53   19.02
 -11  -5  -3   20.17    6.81
  11  -5  -3   49.66   17.73
  11  -5   3   39.82   14.81
 -11  -5   3   18.30   11.86
 -11  -5   3   49.82   24.40
 -11  -5  -3   33.59   18.40
 -11   5   3   12.76   18.17
 -11   5  -3   -4.26   18.07
 -11  -5  -4   36.87    8.69
  11  -5  -4   15.64   16.34
  11  -5   4   31.45   14.80
 -11  -5   4   42.52   20.07
 -11  -5   4   24.36   17.77
 -11  -5  -4   30.47   21.27
 -11   5   4   18.47   17.29
 -11   5  -4   70.93   26.73
 -11  -5  -5    4.88    8.51
  11  -5  -5   25.06   12.08
  11  -5   5   -2.80   12.51
 -11  -5   5   47.40   17.65
 -11  -5   5   12.19   17.27
 -11  -5  -5   34.98   17.30
 -11   5   5   29.20   18.25
 -11   5  -5   36.14   20.95
 -11  -5  -6   19.39   10.59
  11  -5  -6   54.31   22.94
  11  -5   6   28.28   12.04
 -11  -5   6   11.66   13.21
 -11  -5   6   27.94   18.22
 -11  -5  -6   48.71   18.82
 -11   5   6   16.05   15.54
 -11   5  -6   27.30   21.10
  11  -6   0   61.64   23.79
 -11  -6   0   74.23   26.92
 -11   6   0  104.22   32.95
 -11  -6  -1   85.21   24.77
  11  -6  -1   60.93   21.23
  11  -6   1  100.67   42.16
 -11  -6  -1   86.99   32.19
 -11  -6   1   63.89   23.26
 -11   6   1   61.09   24.57
 -11   6  -1  118.90   34.98
 -11  -6  -2   21.01   11.20
  11  -6  -2   19.17   11.51
  11  -6   2   23.18   12.54
 -11  -6  -2   24.60   19.32
 -11  -6   2   18.47   19.03
 -11   6   2    2.29   16.59
 -11   6  -2   43.19   21.25
 -11  -6  -3   50.67   19.36
  11  -6  -3   12.44   16.75
  11  -6   3   35.87   21.78
 -11  -6   3   42.83   28.86
 -11  -6  -3   16.33   17.09
 -11   6   3   33.90   25.18
 -11   6  -3   71.41   30.45
 -11  -6  -4   33.08    8.87
  11  -6  -4   20.17   10.37
  11  -6   4   45.35   26.40
 -11  -6   4   21.11   11.44
 -11  -6   4   17.48   17.62
 -11  -6  -4   38.47   26.79
 -11   6   4   25.32   16.49
 -11   6  -4    3.09   19.69
 -11  -6  -5    9.56    6.80
  11  -6  -5   34.24   20.16
  11  -6   5   58.89   28.21
 -11  -6   5  -11.94   11.59
 -11  -6   5   46.57   20.31
 -11  -6  -5   54.70   24.41
 -11   6   5    3.72   17.47
 -11   6  -5   71.32   30.90
  11   7   0   16.16   11.03
  11  -7   0   47.12   23.93
 -11  -7   0   32.06   18.09
 -11   7   0   53.97   23.37
  11   7   1   36.63   18.26
  11  -7  -1   32.49   25.69
  11  -7   1   20.54   19.31
 -11  -7  -1   33.40   17.66
 -11  -7   1   39.37   19.42
 -11   7   1   33.19   18.22
 -11   7  -1   67.77   35.46
 -11  -7  -2   24.60   10.80
  11  -7  -2   49.41   18.02
  11  -7   2   38.30   12.16
 -11  -7  -2   26.83   17.35
 -11  -7   2   25.21   20.55
 -11   7   2   27.58   17.05
 -11   7  -2   38.22   21.53
 -11  -7  -3   33.18   18.40
  11  -7  -3   49.03   29.77
  11  -7   3   36.86   28.04
 -11  -7  -3   30.95   19.55
 -11  -7   3   28.62   21.14
 -11   7   3   65.81   28.08
 -11   7  -3   35.01   19.61
  12   0   0   42.03   19.27
  12   0  -1   17.47   11.71
  12   0   1   15.77    6.92
 -12   0  -1    1.64   18.76
 -12   0   1   40.73   29.91
  12   0  -2   39.90   19.26
  12   0   2   13.16   14.69
 -12   0  -2   35.52   19.77
 -12   0   2   57.33   22.79
  12   0  -3   35.62   18.64
  12   0   3   25.31   16.55
 -12   0   3   63.86   22.04
 -12   0  -3   10.97   18.17
  12   0  -4   25.17   21.20
  12   0   4   12.85    9.16
 -12   0   4   27.42   22.45
 -12   0  -4   36.77   19.32
  12   1   0   52.62   30.06
  12  -1   0   46.23   17.40
 -12  -1   0   59.85   24.01
 -12   1   0   26.41   20.71
  12   1  -1    7.58   11.61
  12  -1  -1   31.65   10.47
  12   1   1    9.27   11.77
  12  -1   1   39.95   11.73
 -12  -1   1   39.70   20.54
 -12   1   1   46.03   30.83
 -12   1  -1   32.34   19.20
  12   1  -2   18.19   10.54
  12  -1  -2   18.19   12.44
  12   1   2   32.79   17.71
  12  -1   2   21.01   18.92
 -12  -1   2    0.72   18.67
 -12  -1  -2   -4.52   17.87
 -12   1   2   23.29   20.68
 -12   1  -2   30.88   18.56
  12   1  -3   29.65   15.43
  12  -1  -3   37.65   14.63
  12   1   3   22.08   11.94
  12  -1   3   15.84   12.85
 -12  -1   3   61.67   27.72
 -12  -1  -3   29.02   17.79
 -12   1   3    8.60   16.15
 -12   1  -3   36.77   18.77
  12   1  -4   23.73   15.92
  12  -1  -4   37.18   21.42
  12   1   4  -10.51   12.51
  12  -1   4   88.10   29.26
 -12  -1   4    3.76   14.15
 -12  -1  -4   42.85   20.07
 -12   1   4   18.84   18.27
 -12   1  -4   31.89   19.30
  12   2   0   19.70   12.57
  12  -2   0   22.64   17.82
 -12  -2   0    4.26   18.13
 -12   2   0    9.21   22.00
  12   2  -1   15.38   16.85
  12   2   1   -0.12   11.90
  12  -2  -1    5.48    9.04
  12  -2   1    5.34   15.05
 -12  -2  -1   72.98   27.33
 -12  -2   1    3.72   20.42
 -12   2   1   28.43   29.16
 -12   2  -1   45.84   20.87
  12   2  -2   30.32   14.89
  12  -2  -2   89.84   28.85
  12   2   2   11.36   10.66
  12  -2   2   34.31   11.76
 -12  -2   2   16.67   27.69
 -12  -2  -2   55.53   20.77
 -12   2   2   29.79   25.88
 -12   2  -2   56.42   21.94
  12   2  -3   27.30   20.28
  12  -2  -3   13.10   19.94
  12   2   3   34.38   15.08
  12  -2   3   93.70   27.60
 -12  -2   3    9.18   18.67
 -12  -2  -3  110.37   31.91
 -12   2   3   46.55   20.23
 -12   2  -3   35.81   19.64
  12   3   0   14.01    7.47
  12  -3   0   21.55   13.81
 -12  -3   0   19.98   27.58
 -12   3   0   20.29   22.06
  12   3  -1   38.73   16.08
  12   3   1   15.88    9.12
  12  -3  -1   57.85   29.46
  12  -3   1   60.06   18.26
 -12  -3   1   44.74   23.11
 -12  -3  -1   42.37   26.72
 -12   3  -1   24.20   22.03
 -12   3   1   55.00   24.04
  12   3  -2   17.23   12.75
  12   3   2    5.24    7.02
  12  -3  -2   43.21   15.33
  12  -3   2    7.03   11.04
 -12  -3   2   39.42   24.65
 -12  -3  -2   35.66   24.70
 -12   3  -2   24.25   18.30
 -12   3   2   28.88   18.07

_computing_structure_solution     'SHELXT 2014/4 (Sheldrick, 2014)'
;
_shelx_hkl_checksum              40750
_shelx_shelxl_version_number     2014/7
_olex2_submission_special_instructions 'No special instructions were received'
loop_
_space_group_symop_operation_xyz
'x, y, z'
'-x+1/2, -y, z+1/2'
'-x, y+1/2, -z+1/2'
'x+1/2, -y+1/2, -z'
loop_
_atom_site_label
_atom_site_type_symbol
_atom_site_fract_x
_atom_site_fract_y
_atom_site_fract_z
_atom_site_U_iso_or_equiv
_atom_site_adp_type
_atom_site_occupancy
_atom_site_site_symmetry_order
_atom_site_calc_flag
_atom_site_refinement_flags_posn
S1 S 0.29939(16) 0.35710(12) 0.51331(9) 0.0305(3) Uani 1 1 d .
O1 O 0.7962(4) 0.2681(3) 0.8269(3) 0.0382(10) Uani 1 1 d .
O2 O 0.3559(5) 0.2758(3) 0.4612(2) 0.0404(11) Uani 1 1 d .
O3 O 0.1764(4) 0.4111(3) 0.4836(3) 0.0399(11) Uani 1 1 d .
N1 N 0.2591(5) 0.3056(3) 0.6086(3) 0.0238(10) Uani 1 1 d .
C1 C 0.3626(6) 0.2341(4) 0.6482(4) 0.0253(12) Uani 1 1 d .
H1 H 0.4248 0.2092 0.6018 0.030 Uiso 1 1 calc R
C2 C 0.4519(6) 0.2868(4) 0.7166(3) 0.0224(12) Uani 1 1 d .
C3 C 0.5890(6) 0.2535(4) 0.7330(3) 0.0260(12) Uani 1 1 d .
H3 H 0.6287 0.2020 0.6993 0.031 Uiso 1 1 calc R
C4 C 0.6656(6) 0.2984(5) 0.8004(4) 0.0310(14) Uani 1 1 d .
C5 C 0.6080(6) 0.3792(4) 0.8469(4) 0.0330(14) Uani 1 1 d .
H5 H 0.6610 0.4116 0.8897 0.040 Uiso 1 1 calc R
C6 C 0.4735(6) 0.4117(4) 0.8303(4) 0.0291(13) Uani 1 1 d .
H6 H 0.4361 0.4657 0.8621 0.035 Uiso 1 1 calc R
C7 C 0.3921(6) 0.3644(4) 0.7661(3) 0.0249(12) Uani 1 1 d .
C8 C 0.2425(6) 0.3913(4) 0.7500(4) 0.0253(13) Uani 1 1 d .
C9 C 0.1601(6) 0.4396(4) 0.8128(4) 0.0307(14) Uani 1 1 d .
H9 H 0.1999 0.4569 0.8662 0.037 Uiso 1 1 calc R
C10 C 0.0212(7) 0.4623(5) 0.7975(4) 0.0336(15) Uani 1 1 d .
H10 H -0.0323 0.4939 0.8405 0.040 Uiso 1 1 calc R
C11 C -0.0397(7) 0.4378(5) 0.7170(4) 0.0330(14) Uani 1 1 d .
H11 H -0.1326 0.4554 0.7056 0.040 Uiso 1 1 calc R
C12 C 0.0385(6) 0.3873(4) 0.6545(4) 0.0289(13) Uani 1 1 d .
H12 H -0.0025 0.3684 0.6018 0.035 Uiso 1 1 calc R
C13 C 0.1782(6) 0.3650(4) 0.6707(3) 0.0262(12) Uani 1 1 d .
C14 C 0.2836(7) 0.1427(4) 0.6863(4) 0.0339(14) Uani 1 1 d .
H14A H 0.2163 0.1663 0.7285 0.051 Uiso 1 1 calc GR
H14B H 0.3492 0.0975 0.7141 0.051 Uiso 1 1 calc GR
H14C H 0.2356 0.1071 0.6404 0.051 Uiso 1 1 calc GR
C15 C 0.8602(7) 0.1846(5) 0.7812(4) 0.0448(18) Uani 1 1 d .
H15A H 0.8715 0.2023 0.7208 0.067 Uiso 1 1 calc GR
H15B H 0.8014 0.1252 0.7859 0.067 Uiso 1 1 calc GR
H15C H 0.9506 0.1703 0.8063 0.067 Uiso 1 1 calc GR
C16 C 0.4353(6) 0.4476(5) 0.5309(3) 0.0288(13) Uani 1 1 d .
C17 C 0.4003(7) 0.5480(5) 0.5493(4) 0.0346(15) Uani 1 1 d .
H17 H 0.3067 0.5681 0.5535 0.042 Uiso 1 1 calc R
C18 C 0.5080(7) 0.6179(5) 0.5614(4) 0.0413(17) Uani 1 1 d .
H18 H 0.4856 0.6856 0.5733 0.050 Uiso 1 1 calc R
C19 C 0.6486(7) 0.5898(5) 0.5562(4) 0.0365(15) Uani 1 1 d .
C20 C 0.6793(7) 0.4878(5) 0.5404(4) 0.0344(15) Uani 1 1 d .
H20 H 0.7727 0.4669 0.5385 0.041 Uiso 1 1 calc R
C21 C 0.5734(6) 0.4163(5) 0.5272(4) 0.0331(14) Uani 1 1 d .
H21 H 0.5955 0.3484 0.5161 0.040 Uiso 1 1 calc R
C22 C 0.7630(8) 0.6689(6) 0.5668(4) 0.055(2) Uani 1 1 d .
H22A H 0.7670 0.7109 0.5155 0.083 Uiso 1 1 calc GR
H22B H 0.8518 0.6354 0.5748 0.083 Uiso 1 1 calc GR
H22C H 0.7430 0.7107 0.6167 0.083 Uiso 1 1 calc GR
loop_
_atom_site_aniso_label
_atom_site_aniso_U_11
_atom_site_aniso_U_22
_atom_site_aniso_U_33
_atom_site_aniso_U_23
_atom_site_aniso_U_13
_atom_site_aniso_U_12
S1 0.0343(8) 0.0378(8) 0.0193(6) 0.0001(6) 0.0014(6) -0.0014(8)
O1 0.029(2) 0.042(2) 0.043(2) 0.006(2) -0.011(2) -0.002(2)
O2 0.054(3) 0.048(3) 0.020(2) -0.0096(19) 0.0047(19) 0.000(2)
O3 0.032(2) 0.059(3) 0.029(2) 0.009(2) -0.007(2) 0.003(2)
N1 0.024(2) 0.028(2) 0.019(2) -0.0026(19) -0.0006(19) -0.001(2)
C1 0.029(3) 0.024(3) 0.023(3) -0.004(2) 0.001(2) 0.004(2)
C2 0.024(3) 0.024(3) 0.019(3) 0.001(2) 0.002(2) 0.002(2)
C3 0.030(3) 0.025(3) 0.023(3) 0.003(2) 0.007(2) -0.003(3)
C4 0.028(3) 0.033(3) 0.032(3) 0.009(3) -0.005(3) -0.003(3)
C5 0.040(3) 0.028(3) 0.031(3) 0.001(3) -0.006(3) -0.008(3)
C6 0.032(3) 0.027(3) 0.028(3) 0.001(3) -0.002(3) -0.002(3)
C7 0.029(3) 0.025(3) 0.021(3) 0.002(2) 0.002(2) -0.003(3)
C8 0.031(3) 0.023(3) 0.022(3) -0.001(2) 0.007(2) -0.001(2)
C9 0.034(3) 0.030(3) 0.028(3) -0.001(2) -0.003(3) 0.000(3)
C10 0.039(4) 0.030(3) 0.032(3) -0.006(3) 0.010(3) 0.007(3)
C11 0.025(3) 0.032(3) 0.042(4) 0.007(3) 0.002(3) 0.004(3)
C12 0.023(3) 0.033(3) 0.031(3) -0.001(3) -0.003(3) -0.002(3)
C13 0.036(3) 0.019(3) 0.024(3) 0.001(2) 0.004(2) -0.005(3)
C14 0.042(4) 0.028(3) 0.032(3) -0.005(3) -0.004(3) -0.009(3)
C15 0.032(4) 0.047(4) 0.055(5) 0.004(3) -0.001(3) 0.012(3)
C16 0.035(3) 0.031(3) 0.020(3) 0.000(2) 0.009(3) -0.001(3)
C17 0.034(3) 0.037(4) 0.033(3) -0.001(3) 0.009(3) 0.001(3)
C18 0.061(5) 0.029(4) 0.035(4) -0.005(3) 0.011(3) 0.001(3)
C19 0.045(4) 0.041(4) 0.024(3) -0.003(3) 0.002(3) -0.007(3)
C20 0.025(3) 0.051(4) 0.027(3) 0.008(3) 0.001(3) 0.004(3)
C21 0.040(4) 0.032(3) 0.027(3) 0.005(3) 0.003(3) 0.009(3)
C22 0.069(6) 0.062(5) 0.035(4) -0.012(3) 0.008(4) -0.023(4)
loop_
_atom_type_symbol
_atom_type_description
_atom_type_scat_dispersion_real
_atom_type_scat_dispersion_imag
_atom_type_scat_source
C C 0.0033 0.0016 'International Tables Vol C Tables 4.2.6.8 and 6.1.1.4'
H H 0.0000 0.0000 'International Tables Vol C Tables 4.2.6.8 and 6.1.1.4'
N N 0.0061 0.0033 'International Tables Vol C Tables 4.2.6.8 and 6.1.1.4'
O O 0.0106 0.0060 'International Tables Vol C Tables 4.2.6.8 and 6.1.1.4'
S S 0.1246 0.1234 'International Tables Vol C Tables 4.2.6.8 and 6.1.1.4'
loop_
_geom_angle_atom_site_label_1
_geom_angle_atom_site_label_2
_geom_angle_atom_site_label_3
_geom_angle
O2 S1 O3 119.5(3)
O2 S1 N1 106.0(2)
O2 S1 C16 107.9(3)
O3 S1 N1 106.9(2)
O3 S1 C16 108.1(3)
N1 S1 C16 107.9(2)
C4 O1 C15 117.5(5)
C1 N1 S1 117.6(4)
C13 N1 S1 118.9(4)
C13 N1 C1 114.9(4)
N1 C1 H1 108.3
N1 C1 C2 111.5(4)
N1 C1 C14 108.9(4)
C2 C1 H1 108.3
C2 C1 C14 111.5(4)
C14 C1 H1 108.3
C3 C2 C1 120.4(5)
C7 C2 C1 118.7(5)
C7 C2 C3 120.8(5)
C2 C3 H3 120.3
C4 C3 C2 119.3(5)
C4 C3 H3 120.3
O1 C4 C3 125.0(6)
O1 C4 C5 115.3(5)
C5 C4 C3 119.7(5)
C4 C5 H5 119.7
C6 C5 C4 120.6(6)
C6 C5 H5 119.7
C5 C6 H6 119.7
C5 C6 C7 120.7(6)
C7 C6 H6 119.7
C2 C7 C6 118.8(5)
C2 C7 C8 118.4(5)
C6 C7 C8 122.8(5)
C9 C8 C7 122.1(5)
C9 C8 C13 117.6(5)
C13 C8 C7 120.2(5)
C8 C9 H9 119.3
C10 C9 C8 121.4(6)
C10 C9 H9 119.3
C9 C10 H10 120.0
C9 C10 C11 119.9(5)
C11 C10 H10 120.0
C10 C11 H11 120.1
C12 C11 C10 119.9(6)
C12 C11 H11 120.1
C11 C12 H12 120.2
C11 C12 C13 119.6(6)
C13 C12 H12 120.2
C8 C13 N1 117.9(5)
C12 C13 N1 120.3(5)
C12 C13 C8 121.5(5)
C1 C14 H14A 109.5
C1 C14 H14B 109.5
C1 C14 H14C 109.5
H14A C14 H14B 109.5
H14A C14 H14C 109.5
H14B C14 H14C 109.5
O1 C15 H15A 109.5
O1 C15 H15B 109.5
O1 C15 H15C 109.5
H15A C15 H15B 109.5
H15A C15 H15C 109.5
H15B C15 H15C 109.5
C17 C16 S1 119.4(5)
C21 C16 S1 119.3(5)
C21 C16 C17 121.3(6)
C16 C17 H17 120.8
C16 C17 C18 118.4(6)
C18 C17 H17 120.8
C17 C18 H18 119.0
C17 C18 C19 121.9(6)
C19 C18 H18 119.0
C18 C19 C22 120.3(6)
C20 C19 C18 117.9(6)
C20 C19 C22 121.8(6)
C19 C20 H20 119.3
C19 C20 C21 121.4(6)
C21 C20 H20 119.3
C16 C21 C20 119.0(6)
C16 C21 H21 120.5
C20 C21 H21 120.5
C19 C22 H22A 109.5
C19 C22 H22B 109.5
C19 C22 H22C 109.5
H22A C22 H22B 109.5
H22A C22 H22C 109.5
H22B C22 H22C 109.5
loop_
_geom_bond_atom_site_label_1
_geom_bond_atom_site_label_2
_geom_bond_distance
S1 O2 1.435(4)
S1 O3 1.441(4)
S1 N1 1.653(4)
S1 C16 1.774(6)
O1 C4 1.366(7)
O1 C15 1.435(7)
N1 C1 1.487(7)
N1 C13 1.451(7)
C1 H1 0.9800
C1 C2 1.516(7)
C1 C14 1.529(7)
C2 C3 1.397(8)
C2 C7 1.390(7)
C3 H3 0.9300
C3 C4 1.393(8)
C4 C5 1.388(8)
C5 H5 0.9300
C5 C6 1.371(8)
C6 H6 0.9300
C6 C7 1.397(8)
C7 C8 1.486(8)
C8 C9 1.393(8)
C8 C13 1.403(7)
C9 H9 0.9300
C9 C10 1.374(8)
C10 H10 0.9300
C10 C11 1.400(8)
C11 H11 0.9300
C11 C12 1.381(8)
C12 H12 0.9300
C12 C13 1.382(8)
C14 H14A 0.9600
C14 H14B 0.9600
C14 H14C 0.9600
C15 H15A 0.9600
C15 H15B 0.9600
C15 H15C 0.9600
C16 C17 1.385(8)
C16 C21 1.377(8)
C17 H17 0.9300
C17 C18 1.386(9)
C18 H18 0.9300
C18 C19 1.388(9)
C19 C20 1.388(8)
C19 C22 1.512(9)
C20 H20 0.9300
C20 C21 1.389(8)
C21 H21 0.9300
C22 H22A 0.9600
C22 H22B 0.9600
C22 H22C 0.9600
loop_
_geom_torsion_atom_site_label_1
_geom_torsion_atom_site_label_2
_geom_torsion_atom_site_label_3
_geom_torsion_atom_site_label_4
_geom_torsion
S1 N1 C1 C2 98.7(5)
S1 N1 C1 C14 -137.8(4)
S1 N1 C13 C8 -115.8(5)
S1 N1 C13 C12 69.4(6)
S1 C16 C17 C18 -178.9(5)
S1 C16 C21 C20 179.4(4)
O1 C4 C5 C6 -175.5(5)
O2 S1 N1 C1 43.8(4)
O2 S1 N1 C13 -170.0(4)
O2 S1 C16 C17 155.8(4)
O2 S1 C16 C21 -25.1(5)
O3 S1 N1 C1 172.3(4)
O3 S1 N1 C13 -41.5(5)
O3 S1 C16 C17 25.2(5)
O3 S1 C16 C21 -155.6(5)
N1 S1 C16 C17 -90.1(5)
N1 S1 C16 C21 89.0(5)
N1 C1 C2 C3 -150.9(5)
N1 C1 C2 C7 32.9(7)
C1 N1 C13 C8 31.3(7)
C1 N1 C13 C12 -143.5(5)
C1 C2 C3 C4 -175.5(5)
C1 C2 C7 C6 178.8(5)
C1 C2 C7 C8 0.6(7)
C2 C3 C4 O1 175.2(5)
C2 C3 C4 C5 -3.7(8)
C2 C7 C8 C9 157.2(5)
C2 C7 C8 C13 -20.6(8)
C3 C2 C7 C6 2.7(8)
C3 C2 C7 C8 -175.5(5)
C3 C4 C5 C6 3.5(9)
C4 C5 C6 C7 -0.2(9)
C5 C6 C7 C2 -2.9(8)
C5 C6 C7 C8 175.3(5)
C6 C7 C8 C9 -21.0(8)
C6 C7 C8 C13 161.2(5)
C7 C2 C3 C4 0.6(8)
C7 C8 C9 C10 -178.8(6)
C7 C8 C13 N1 4.0(7)
C7 C8 C13 C12 178.8(5)
C8 C9 C10 C11 -0.7(9)
C9 C8 C13 N1 -173.9(5)
C9 C8 C13 C12 0.9(8)
C9 C10 C11 C12 2.5(9)
C10 C11 C12 C13 -2.6(9)
C11 C12 C13 N1 175.5(5)
C11 C12 C13 C8 0.9(8)
C13 N1 C1 C2 -48.9(6)
C13 N1 C1 C14 74.6(5)
C13 C8 C9 C10 -0.9(8)
C14 C1 C2 C3 87.1(6)
C14 C1 C2 C7 -89.0(6)
C15 O1 C4 C3 0.8(8)
C15 O1 C4 C5 179.7(5)
C16 S1 N1 C1 -71.6(4)
C16 S1 N1 C13 74.6(5)
C16 C17 C18 C19 -0.5(9)
C17 C16 C21 C20 -1.4(9)
C17 C18 C19 C20 -1.4(10)
C17 C18 C19 C22 177.9(6)
C18 C19 C20 C21 2.0(9)
C19 C20 C21 C16 -0.6(9)
C21 C16 C17 C18 2.0(9)
C22 C19 C20 C21 -177.4(5)
