#------------------------------------------------------------------------------
#$Date: 2017-07-25 13:37:23 +0300 (Tue, 25 Jul 2017) $
#$Revision: 199292 $
#$URL: file:///home/coder/svn-repositories/cod/cif/1/54/66/1546698.cif $
#------------------------------------------------------------------------------
#
# This file is available in the Crystallography Open Database (COD),
# http://www.crystallography.net/. The original data for this entry
# were provided by IUCr Journals, http://journals.iucr.org/.
#
# The file may be used within the scientific community so long as
# proper attribution is given to the journal article from which the
# data were obtained.
#
data_1546698
loop_
_publ_author_name
'Nath, Paras'
'Bharty, Manoj K.'
'Butcher, Ray J.'
'Jasinski, Jerry P.'
_publ_section_title
;
 <i>N</i>'-[Bis(methylsulfanyl)methylidene]-2-methoxybenzohydrazide
;
_journal_coeditor_code           FF4015
_journal_issue                   4
_journal_name_full               IUCrData
_journal_page_first              x170489
_journal_paper_doi               10.1107/S2414314617004898
_journal_volume                  2
_journal_year                    2017
_chemical_formula_iupac          'C11 H14 N2 O2 S2'
_chemical_formula_moiety         'C11 H14 N2 O2 S2'
_chemical_formula_sum            'C11 H14 N2 O2 S2'
_chemical_formula_weight         270.36
_chemical_name_systematic
;
<i>N</i>'-[Bis(methylsulfanyl)methylidene]-2-methoxybenzohydrazide
;
_space_group_crystal_system      monoclinic
_space_group_IT_number           14
_space_group_name_Hall           '-P 2yn'
_space_group_name_H-M_alt        'P 1 21/n 1'
_symmetry_space_group_name_Hall  '-P 2yn'
_symmetry_space_group_name_H-M   'P 1 21/n 1'
_atom_sites_solution_hydrogens   mixed
_audit_creation_method           SHELXL-2014/7
_cell_angle_alpha                90
_cell_angle_beta                 94.399(3)
_cell_angle_gamma                90
_cell_formula_units_Z            4
_cell_length_a                   7.7829(3)
_cell_length_b                   7.4284(3)
_cell_length_c                   21.9087(7)
_cell_measurement_reflns_used    2383
_cell_measurement_temperature    173(2)
_cell_measurement_theta_max      71.2940
_cell_measurement_theta_min      6.7340
_cell_volume                     1262.91(8)
_computing_cell_refinement
;
CrysAlisPro  (Rigaku OD, 2015)
;
_computing_data_collection
;
CrysAlisPro  (Rigaku OD, 2015)
;
_computing_data_reduction
;
CrysAlisPro  (Rigaku OD, 2015)
;
_computing_molecular_graphics
;
SHELXTL (Sheldrick, 2008)
;
_computing_publication_material
;
<i>SHELXL2014/7</i> (Sheldrick, 20015b)
;
_computing_structure_refinement
;
<i>SHELXL2014/7</i> (Sheldrick, 2015b)
;
_computing_structure_solution
;
SHELXT (Sheldrick, 2015a)
;
_diffrn_ambient_temperature      173(2)
_diffrn_detector_area_resol_mean 16.0416
_diffrn_measured_fraction_theta_full 0.993
_diffrn_measured_fraction_theta_max 0.963
_diffrn_measurement_device_type  'Agilent Xcalibur, Eos, Gemini'
_diffrn_measurement_method       '\w scans'
_diffrn_radiation_type           CuK\a
_diffrn_radiation_wavelength     1.54178
_diffrn_reflns_av_R_equivalents  0.0394
_diffrn_reflns_limit_h_max       7
_diffrn_reflns_limit_h_min       -9
_diffrn_reflns_limit_k_max       8
_diffrn_reflns_limit_k_min       -8
_diffrn_reflns_limit_l_max       26
_diffrn_reflns_limit_l_min       -26
_diffrn_reflns_number            4470
_diffrn_reflns_theta_full        67.500
_diffrn_reflns_theta_max         71.355
_diffrn_reflns_theta_min         4.047
_exptl_absorpt_coefficient_mu    3.767
_exptl_absorpt_correction_T_max  1.00000
_exptl_absorpt_correction_T_min  0.29037
_exptl_absorpt_correction_type   multi-scan
_exptl_absorpt_process_details
;
(SCALE3 ABSPACK in CrysAlisPro; Rigaku OD, 2015)
;
_exptl_crystal_colour            colorless
_exptl_crystal_density_diffrn    1.422
_exptl_crystal_description       'thick plate'
_exptl_crystal_F_000             568
_exptl_crystal_size_max          0.50
_exptl_crystal_size_mid          0.47
_exptl_crystal_size_min          0.15
_refine_diff_density_max         0.373
_refine_diff_density_min         -0.330
_refine_ls_extinction_coef       0.0078(13)
_refine_ls_extinction_expression Fc^*^=kFc[1+0.001xFc^2^\l^3^/sin(2\q)]^-1/4^
_refine_ls_extinction_method
;
<i>SHELXL2014/7</i> (Sheldrick 2015b)
;
_refine_ls_goodness_of_fit_ref   1.075
_refine_ls_hydrogen_treatment    mixed
_refine_ls_matrix_type           full
_refine_ls_number_parameters     162
_refine_ls_number_reflns         2367
_refine_ls_number_restraints     0
_refine_ls_restrained_S_all      1.075
_refine_ls_R_factor_all          0.0486
_refine_ls_R_factor_gt           0.0460
_refine_ls_shift/su_max          0.000
_refine_ls_shift/su_mean         0.000
_refine_ls_structure_factor_coef Fsqd
_refine_ls_weighting_details
'w=1/[\s^2^(Fo^2^)+(0.0789P)^2^+0.3498P] where P=(Fo^2^+2Fc^2^)/3'
_refine_ls_weighting_scheme      calc
_refine_ls_wR_factor_gt          0.1217
_refine_ls_wR_factor_ref         0.1247
_reflns_number_gt                2189
_reflns_number_total             2367
_reflns_threshold_expression     'I > 2\s(I)'
_cod_data_source_file            ff4015sup1.cif
_cod_data_source_block           I
_cod_database_code               1546698
_shelx_space_group_comment
;
The symmetry employed for this shelxl refinement is uniquely defined
by the following loop, which should always be used as a source of
symmetry information in preference to the above space-group names.
They are only intended as comments.
;
_shelx_hkl_file
;
   0   0   2   72.81    0.81
   0   0   3    0.44    0.08
   0   0   4    2.11    0.20
   0   0   5    0.21    0.09
   0   0   6   89.45    1.46
   0   0   7    0.06    0.06
   0   0   8  537.89    3.95
   0   0   9    0.68    0.16
   0   0  10   44.46    1.22
   0   0  11    0.39    0.13
   0   0  12  337.72    3.76
   0   0  13    0.26    0.13
   0   0  14   25.51    1.11
   0   0 -15   -0.03    0.10
   0   0 -16   19.94    1.17
   0   0 -17   -0.07    0.17
   0   0 -18  236.84    4.58
   0   0 -19   -0.03    0.14
   0   0 -20  100.34    2.99
   0   0 -21    0.29    0.18
   0   0 -22   18.60    1.22
   0   0 -23   -0.03    0.15
   0   0 -24    3.92    0.50
   0   0 -25   -0.02    0.10
   0   0 -26   63.75    1.59
   0  -1   0    0.07    0.03
   0  -1  -1   30.89    0.44
   0  -1  -2  125.67    1.02
   0   1  -2  136.78    0.72
   0  -1  -3  342.09    1.95
   0  -1  -4  118.09    1.37
   0  -1   4  123.66    1.09
   0  -1  -5   61.98    1.08
   0  -1   5   55.63    0.85
   0  -1   6  313.74    2.29
   0  -1   7  176.81    1.85
   0   1   7  149.36    2.21
   0  -1   8   89.93    1.43
   0   1   8   95.03    1.78
   0   1   9  171.75    2.54
   0  -1   9  170.82    2.14
   0  -1  10  146.93    2.11
   0   1  10  152.49    2.56
   0   1  11   13.19    0.75
   0  -1  11   13.81    0.70
   0   1  12  105.92    2.16
   0   1  13    4.46    0.46
   0   1  14    2.75    0.37
   0   1  15   37.93    1.42
   0   1  16   19.96    1.08
   0   1 -16   19.76    1.20
   0   1  17   18.82    1.34
   0   1 -17   16.23    1.20
   0   1 -18   12.91    1.09
   0   1  18   15.39    1.20
   0   1 -19    4.81    0.69
   0   1  19    4.22    0.63
   0  -1 -20   19.48    1.33
   0   1 -20   17.00    1.25
   0   1 -21   44.84    1.95
   0   1 -21   42.17    1.92
   0  -1 -21   46.36    1.98
   0   1 -22    7.30    0.78
   0   1 -22    7.65    0.79
   0  -1 -22    7.45    0.75
   0  -1 -23    2.18    0.39
   0   1 -23    2.01    0.39
   0   1 -24    7.81    0.70
   0   1 -25   36.76    1.39
   0   1 -26   15.79    0.82
   0  -2   0   18.75    0.52
   0   2   0   19.53    0.38
   0   2   1  224.58    0.83
   0  -2   1  210.58    1.80
   0  -2   2  993.21    4.00
   0  -2  -2 1000.00    3.63
   0  -2  -3  732.20    3.43
   0  -2  -4    0.51    0.12
   0  -2  -5  471.32    3.22
   0   2  -6    6.52    0.27
   0  -2  -6    6.46    0.42
   0  -2  -7    1.02    0.18
   0   2  -7    1.27    0.13
   0  -2  -8   61.87    1.37
   0   2   9    0.25    0.14
   0   2  10  223.48    3.23
   0   2  11    2.31    0.34
   0   2  12   15.16    0.93
   0   2  13   27.37    1.24
   0   2  14   40.46    1.52
   0   2  15   95.00    2.38
   0   2 -15  117.50    2.99
   0   2 -16  121.96    3.45
   0   2  16  148.45    3.82
   0   2  17    2.55    0.51
   0   2 -17    2.48    0.50
   0   2 -18  103.13    3.21
   0   2 -19   15.82    1.25
   0   2 -20    0.69    0.28
   0   2 -20    0.66    0.30
   0   2 -21   48.66    2.07
   0   2 -21   46.25    1.96
   0   2 -22   22.14    1.33
   0   2 -22   17.70    1.15
   0   2 -23   24.47    1.26
   0   2 -23   26.70    1.36
   0   2 -24    9.24    0.72
   0   2 -25    5.54    0.51
   0   2  26   10.49    0.63
   0   2 -26   10.14    0.61
   0   3   0    0.10    0.03
   0  -3   0    0.25    0.08
   0   3  -1   11.78    0.38
   0  -3   1   12.33    0.54
   0  -3  -1   11.05    0.48
   0   3  -2   20.97    0.63
   0  -3   2   19.17    0.71
   0  -3  -3    0.71    0.13
   0  -3   3    0.86    0.15
   0  -3   4  184.01    2.25
   0  -3  -4  153.88    2.02
   0  -3  -5   31.59    0.97
   0  -3  -6    3.45    0.35
   0  -3  -7    3.13    0.36
   0  -3  -8  288.68    3.47
   0  -3  -9   -0.08    0.17
   0   3  10   53.15    1.79
   0   3  11   17.22    1.02
   0   3  12   73.21    2.18
   0   3  13   55.36    1.99
   0   3 -13   51.50    2.03
   0   3 -14    5.28    0.73
   0   3 -15    0.27    0.22
   0   3 -16   15.45    1.32
   0   3 -17    5.85    0.81
   0   3 -18    5.37    0.72
   0   3 -18    5.04    0.72
   0   3 -19    0.15    0.19
   0   3 -19    0.14    0.13
   0   3 -20   32.55    1.73
   0   3 -20   27.81    1.53
   0   3 -21    2.09    0.44
   0   3 -21    1.40    0.33
   0   3 -22    3.61    0.53
   0   3 -22    2.93    0.45
   0   3 -23    1.23    0.31
   0   3 -23    1.19    0.26
   0   3 -24   21.08    1.02
   0   3 -24   19.24    0.96
   0   3 -25    0.25    0.12
   0   3  25    0.13    0.09
   0  -4   0    3.04    0.30
   0  -4   1    0.18    0.09
   0  -4  -1    0.11    0.07
   0  -4   2    3.66    0.36
   0  -4  -2    2.94    0.30
   0  -4   3  119.47    2.10
   0  -4  -3   96.12    1.90
   0  -4  -4  131.55    2.20
   0  -4   4  170.94    2.65
   0  -4   5  247.16    3.32
   0  -4  -5  206.76    2.94
   0  -4   6   77.34    1.88
   0   4  -6   84.10    1.96
   0  -4  -7  103.40    2.31
   0   4  -7  105.13    2.42
   0  -4  -8   18.92    1.03
   0   4  -8   16.17    1.01
   0  -4   8   15.72    0.88
   0   4  -9    4.53    0.56
   0  -4   9    5.36    0.55
   0  -4  -9    4.17    0.50
   0   4 -10    2.36    0.42
   0   4  10    2.34    0.42
   0  -4  10    2.21    0.37
   0  -4 -10    3.40    0.44
   0   4 -11   28.43    1.48
   0   4  11   21.85    1.27
   0   4 -12   36.90    1.95
   0   4 -13   81.32    2.95
   0   4 -14   65.77    2.68
   0   4 -15   50.05    2.30
   0   4 -16   48.62    2.27
   0   4 -16   53.81    2.29
   0   4 -17    0.57    0.24
   0   4 -17    0.68    0.22
   0   4 -18    3.97    0.65
   0   4 -18    4.35    0.61
   0   4 -19   48.09    2.16
   0   4 -19   40.57    1.79
   0   4 -20    2.59    0.50
   0   4 -20    2.03    0.37
   0   4 -21   21.54    1.17
   0   4 -21   22.63    1.28
   0   4 -22    8.36    0.68
   0   4 -22    9.68    0.77
   0   4  22    8.47    0.69
   0   4  23   27.77    1.14
   0   4 -23   29.50    1.18
   0   4 -23   27.47    1.07
   0  -5   0    0.27    0.12
   0  -5  -1    0.58    0.16
   0  -5   1    0.70    0.18
   0  -5  -2   13.44    0.84
   0  -5   2   11.50    0.71
   0  -5   3   49.06    1.51
   0  -5  -3   53.97    1.60
   0  -5  -4    0.17    0.15
   0  -5   4    0.18    0.15
   0  -5   5    2.12    0.33
   0  -5  -5    1.90    0.35
   0  -5  -6    0.57    0.22
   0  -5   6    0.43    0.18
   0  -5   7   63.50    1.96
   0  -5  -7   66.40    2.16
   0   5  -8    1.04    0.35
   0   5  -9    0.94    0.30
   0   5 -10    0.37    0.22
   0   5 -11   43.13    2.13
   0   5 -12    0.18    0.18
   0   5 -13   33.22    1.89
   0   5 -14    1.25    0.40
   0   5 -15    2.86    0.55
   0   5  16    0.04    0.13
   0   5 -17   12.66    1.14
   0   5  17   14.17    1.10
   0   5  18    7.67    0.77
   0   5 -18    5.62    0.72
   0   5 -19    0.04    0.20
   0   5  19    0.18    0.14
   0  -5 -19    0.13    0.11
   0   5 -20    1.79    0.35
   0  -5 -20    1.68    0.30
   0   5  20    1.98    0.35
   0   5  21   42.52    1.38
   0  -5 -21   41.02    1.28
   0   5 -21   44.85    1.52
   0   5 -22    2.69    0.33
   0   6   0   57.76    2.46
   0  -6   0   52.67    1.91
   0   6  -1   58.20    2.45
   0  -6  -1   58.21    2.06
   0  -6   1   56.77    1.96
   0  -6   2    0.89    0.26
   0  -6  -2    0.68    0.22
   0   6  -2    0.60    0.29
   0   6  -3   25.78    1.65
   0  -6  -3   26.60    1.45
   0  -6  -4   61.30    2.27
   0   6  -4   57.97    2.48
   0  -6  -5   18.71    1.27
   0   6  -5   15.13    1.26
   0  -6  -6    5.08    0.68
   0   6  -6    4.63    0.70
   0  -6  -7   20.70    1.40
   0   6  -7   18.24    1.37
   0   6  -8    9.92    1.04
   0  -6  -8    9.27    0.96
   0   6  -9   94.97    3.22
   0  -6  -9  113.00    3.41
   0  -6 -10   34.26    1.91
   0   6 -10   31.48    1.85
   0  -6 -11    9.47    1.00
   0   6 -11    7.94    0.95
   0   6 -12    6.11    0.79
   0  -6 -12    6.81    0.84
   0  -6 -13   21.50    1.49
   0   6 -13   20.16    1.42
   0   6 -14   22.22    1.44
   0  -6 -14   26.57    1.57
   0  -6 -15    0.27    0.22
   0   6 -15    0.20    0.21
   0  -6 -16    1.53    0.35
   0   6 -17   25.09    1.35
   0  -6 -17   25.67    1.31
   0   6 -18    5.61    0.59
   0  -6 -18    5.95    0.59
   0   6 -19   26.59    1.15
   0  -6 -19   24.32    1.03
   0  -7   0    0.00    0.12
   0  -7  -1    0.53    0.23
   0  -7   1    1.42    0.33
   0   7  -1    0.98    0.36
   0  -7  -2   34.90    1.68
   0   7  -2   35.72    2.11
   0  -7  -3    3.53    0.55
   0   7  -3    3.61    0.67
   0   7  -4    0.29    0.22
   0  -7  -4    0.43    0.23
   0  -7  -5    0.44    0.21
   0   7  -5    0.35    0.18
   0  -7  -6   10.84    1.00
   0   7  -6    9.56    1.05
   0   7  -7    5.76    0.81
   0  -7  -7    6.19    0.78
   0  -7  -8    6.36    0.79
   0   7  -8    5.27    0.78
   0  -7  -9    2.91    0.54
   0   7  -9    2.69    0.56
   0   7 -10    0.42    0.28
   0  -7 -10    0.38    0.21
   0   7 -11   12.12    1.07
   0  -7 -11    9.67    0.95
   0   7 -12   16.50    1.19
   0  -7 -12   16.46    1.20
   0   7 -13    1.50    0.36
   0  -7 -13    1.69    0.39
   0  -7 -14    0.13    0.12
   0  -7 -15    0.38    0.17
   0  -7 -16   19.01    0.97
   0   7 -16   17.07    0.93
   0  -7 -17    0.02    0.08
   0  -8   0    8.30    0.74
   0  -8  -1   36.81    1.58
   0  -8  -2    0.46    0.18
   0  -8  -3    3.09    0.47
   0   8  -4    2.28    0.51
   0  -8  -4    1.78    0.36
   0   8  -5    0.56    0.32
   0  -8  -5    0.46    0.20
   0   8  -6    1.97    0.46
   0  -8  -6    2.00    0.41
   0  -8  -7    1.47    0.34
   0   8  -7    1.19    0.36
   0   8  -8    7.61    0.82
   0  -8  -8    6.73    0.71
   0  -8  -9   59.59    2.03
   0   8  -9   71.88    2.35
   0  -8 -10    0.31    0.21
   0   8 -10    0.50    0.26
   0  -8 -11   16.48    0.98
   0  -8 -12    5.35    0.52
   1   0 -26   -0.15    0.14
   1   0 -25    0.01    0.09
   1   0 -24    0.25    0.14
   1   0 -23   16.68    1.10
  -1   0  22   -0.02    0.10
  -1   0  21   19.94    1.26
  -1   0  20   -0.21    0.22
  -1   0  19  133.61    3.39
   1   0 -19  131.38    3.36
  -1   0  18    0.34    0.21
   1   0 -18    2.33    0.44
  -1   0  17  147.97    3.63
   1   0 -17  171.06    3.77
  -1   0  16    1.42    0.29
  -1   0  15    1.55    0.30
  -1   0  14   -0.01    0.07
  -1   0  13   50.16    1.55
  -1   0  12    0.11    0.09
  -1   0  11   70.79    1.79
  -1   0  11   63.91    1.46
  -1   0  10    0.05    0.08
  -1   0  10    0.03    0.11
  -1   0   9  154.74    2.22
  -1   0   9  170.43    2.65
  -1   0   8    0.44    0.15
  -1   0   8    0.67    0.19
  -1   0   7  117.58    1.99
  -1   0   7  125.78    1.88
  -1   0   6    0.20    0.10
  -1   0   6    0.35    0.12
  -1   0   5  192.46    2.21
  -1   0   5  197.04    2.12
  -1   0   4    0.19    0.08
  -1   0   4    0.25    0.09
  -1   0   4    0.32    0.06
  -1   0   3   80.72    1.15
  -1   0   3   76.87    0.94
  -1   0   2    0.44    0.07
  -1   0   2    0.29    0.07
   1   0  -2    0.35    0.03
  -1   0   1  118.48    1.13
  -1   0   1  117.53    0.99
  -1   0   0    0.11    0.04
  -1   0  -1  423.90    1.78
  -1   0  -1  428.28    1.83
  -1   0  -2    0.23    0.05
  -1   0  -3    1.18    0.15
  -1   0  -3    1.64    0.15
  -1   0  -4    1.01    0.13
  -1   0  -4    0.58    0.11
  -1   0  -5  468.50    3.01
  -1   0  -5  444.68    2.77
  -1   0  -6    0.23    0.07
  -1   0  -6    0.33    0.11
  -1   0  -7   22.38    0.86
   1   0   7   31.98    0.85
  -1   0  -8    1.05    0.23
   1   0   8    1.42    0.19
  -1   0  -9  191.41    2.98
   1   0   9  219.65    2.51
   1   0  10    0.03    0.05
  -1   0 -10    0.16    0.13
   1   0  11   19.57    0.79
  -1   0 -11   26.36    1.19
  -1   0 -12    0.11    0.13
  -1   0 -13    2.01    0.34
  -1   0 -14    0.04    0.10
  -1   0 -15   46.28    1.80
  -1   0 -16   -0.11    0.18
  -1   0 -16    0.10    0.24
  -1   0 -17  143.54    3.91
  -1   0 -17  132.20    3.50
  -1   0 -18   -0.02    0.17
  -1   0 -18    0.04    0.22
  -1   0 -19    4.88    0.67
  -1   0 -19    5.19    0.73
  -1   0 -20    0.34    0.22
  -1   0 -21   28.63    1.57
  -1   0 -22    0.10    0.13
  -1   0 -23    3.13    0.48
  -1   0 -24    0.17    0.15
  -1   0 -25   14.27    0.83
   1   1 -26    2.02    0.29
  -1   1  26    2.34    0.31
   1   1 -25   21.30    1.04
   1   1 -24    0.20    0.11
   1   1 -23    4.84    0.61
   1  -1 -23    6.24    0.64
  -1   1  22   91.18    2.66
   1  -1 -22   87.76    2.58
  -1   1  21    2.86    0.52
   1   1 -21    2.35    0.47
  -1   1  20  158.51    3.79
   1   1 -20  164.09    3.75
  -1   1  19    1.54    0.41
   1   1 -19    0.85    0.27
  -1   1  18   60.88    2.39
   1   1 -18   58.35    2.28
   1   1 -17    6.29    0.73
  -1   1  17    6.80    0.78
  -1   1  16    1.15    0.27
  -1   1  15   48.55    1.74
  -1   1  14    1.92    0.34
  -1   1  13   48.24    1.64
  -1  -1  13   50.58    1.63
  -1  -1  12  496.31    4.97
  -1   1  12  526.30    5.17
  -1   1  11  374.03    4.16
  -1  -1  11  368.57    4.18
  -1   1  10  227.43    3.18
  -1  -1  10  227.77    3.16
  -1   1   9  197.15    2.32
  -1   1   9  194.62    2.92
  -1   1   8   45.93    1.38
  -1   1   8   50.27    1.15
  -1  -1   7  222.40    2.50
  -1   1   7  198.74    2.20
  -1   1   6   52.75    1.37
  -1   1   6   49.10    1.01
  -1  -1   6   45.02    1.04
   1  -1  -6   41.45    0.88
  -1   1   5    0.68    0.12
  -1   1   5    0.63    0.17
  -1  -1   5    0.70    0.13
   1  -1  -5    0.70    0.11
  -1  -1   4  663.70    3.41
  -1   1   4  673.49    3.29
  -1   1   3    7.11    0.47
   1  -1  -3    4.71    0.19
  -1   1   2  213.75    2.35
  -1  -1   2  213.73    1.07
  -1   1   1   93.29    1.28
   1  -1  -1   89.89    0.88
  -1   1   0  225.95    1.53
  -1  -1   0  233.33    1.33
  -1   1  -1   13.43    0.24
  -1  -1  -1   12.74    0.40
  -1   1  -1   13.71    0.38
  -1  -1  -2   95.56    1.24
  -1  -1  -2   92.50    0.84
  -1   1  -2   92.53    1.13
  -1  -1  -3   14.05    0.25
  -1   1  -3   13.55    0.47
  -1   1  -4    7.74    0.40
  -1  -1  -4    8.32    0.30
  -1   1  -5  144.30    2.02
  -1  -1  -5  144.26    1.45
   1  -1   5  144.26    0.86
  -1  -1  -6  193.41    1.94
   1  -1   6  198.49    1.29
  -1   1  -7   17.19    0.85
   1  -1   7   16.93    0.45
  -1   1  -8  123.68    2.46
  -1  -1  -8  120.87    1.87
  -1  -1  -9    6.98    0.49
  -1   1  -9    8.98    0.71
  -1  -1 -10   55.69    1.49
   1   1  10   52.07    1.41
  -1   1 -11   33.43    1.47
  -1  -1 -11   29.52    1.16
  -1   1 -12   47.05    1.77
  -1  -1 -12   50.64    1.60
  -1   1 -13    3.91    0.52
   1   1  13    3.11    0.38
  -1   1 -14   78.03    2.33
   1   1  14   92.67    2.07
  -1   1 -15    6.14    0.67
  -1   1 -16   21.46    1.40
  -1   1 -17    0.06    0.21
  -1  -1 -17    0.16    0.19
  -1   1 -17    0.37    0.20
  -1   1 -18   14.70    1.18
  -1  -1 -18   18.00    1.34
  -1   1 -18   15.64    1.28
  -1  -1 -19   15.94    1.23
  -1   1 -19   16.11    1.24
  -1   1 -19   16.24    1.28
  -1   1 -20    3.37    0.57
  -1  -1 -20    3.14    0.53
  -1   1 -20    3.28    0.56
  -1  -1 -21    9.97    0.93
  -1   1 -21    7.90    0.82
  -1   1 -21    8.12    0.84
  -1   1 -22   11.66    0.95
  -1   1 -22   12.16    0.99
  -1  -1 -22   14.12    1.05
  -1   1 -23    2.27    0.43
  -1   1 -24   78.04    2.21
  -1   1 -25    1.02    0.24
  -1   1 -26   65.12    1.56
  -1   2  26    4.57    0.42
   1   2 -26    4.11    0.39
  -1   2  25   27.70    1.16
   1   2 -25   23.90    1.05
   1   2 -24    2.76    0.40
   1   2 -23    3.06    0.47
   1   2 -23    2.29    0.41
   1   2 -22   29.44    1.49
   1   2 -22   32.81    1.55
   1   2 -21   21.36    1.34
   1   2 -20   11.27    1.00
  -1   2  20   10.65    0.98
   1   2 -19   30.90    1.69
  -1   2  19   27.90    1.63
  -1   2  18   91.56    3.00
   1   2 -18   95.81    3.00
   1   2 -17   41.17    1.98
  -1   2  17   38.84    1.97
   1   2 -16   13.96    1.14
  -1   2  16   14.45    1.20
  -1   2  15   -0.14    0.09
  -1   2  14   77.35    2.15
  -1   2  13   27.67    1.25
  -1   2  12    1.65    0.32
  -1   2  11    0.14    0.11
  -1   2  10   42.07    1.47
   1  -2  -9   15.02    0.69
  -1   2   9   25.55    1.21
  -1   2   8   42.93    1.50
   1  -2  -8   36.55    1.07
  -1   2   7   43.23    1.45
   1  -2  -7   36.00    0.98
  -1   2   6   35.39    1.27
   1  -2  -6   29.59    0.81
  -1   2   5  117.47    2.26
   1  -2  -5   93.85    1.33
  -1   2   4    5.00    0.47
   1  -2  -4    3.99    0.24
  -1  -2   4    4.94    0.27
   1  -2  -3  472.09    2.57
  -1  -2   3  443.18    2.61
   1  -2  -2  484.29    2.75
  -1  -2   2  463.12    2.47
   1  -2  -1  529.11    3.10
  -1  -2   1  547.95    2.53
   1  -2   0  489.43    2.81
  -1   2   0  478.79    2.45
  -1  -2  -1   27.26    0.65
  -1   2  -1   35.46    0.70
  -1   2  -2   36.53    0.80
  -1  -2  -2   32.45    0.77
  -1   2  -3   96.17    0.82
  -1  -2  -3   94.95    1.44
  -1   2  -3   98.09    1.42
  -1   2  -4   17.72    0.65
  -1  -2  -4   13.81    0.62
  -1  -2  -5    0.66    0.16
  -1   2  -5    0.52    0.10
  -1   2  -6  143.39    1.71
  -1  -2  -6  141.93    2.09
  -1   2  -6  146.07    2.34
  -1   2  -7    4.06    0.32
  -1   2  -7    5.75    0.52
  -1   2  -8  163.89    2.13
  -1   2  -8  153.25    2.87
  -1   2  -9   18.01    0.74
  -1   2  -9   22.48    1.16
  -1   2 -10   15.51    0.98
  -1   2 -10   15.14    0.71
  -1   2 -11   14.78    1.00
   1   2  12   31.30    1.29
  -1   2 -12   40.67    1.67
  -1   2 -13    8.08    0.76
   1   2  13    6.42    0.60
   1   2  14   13.42    0.92
  -1   2 -14   14.52    1.04
  -1   2 -15    4.83    0.72
  -1   2 -15    3.78    0.59
   1   2  15    2.49    0.38
  -1   2 -16   29.04    1.70
  -1   2 -16   31.59    1.70
  -1   2 -16   31.20    1.84
  -1   2 -17   48.64    2.23
  -1   2 -17   51.36    2.33
  -1   2 -17   55.76    2.29
  -1   2 -18    0.37    0.18
  -1   2 -18    0.22    0.17
  -1   2 -19    1.71    0.42
  -1   2 -19    1.20    0.34
  -1   2 -20    2.38    0.45
  -1   2 -20    2.30    0.48
  -1   2 -21    1.72    0.39
  -1   2 -21    1.08    0.29
  -1   2 -22   36.67    1.68
  -1   2 -22   33.17    1.60
  -1   2 -23    0.71    0.22
  -1   2 -23    0.61    0.21
  -1   2 -24    7.95    0.67
  -1   2 -25   16.46    0.85
  -1   3  25   83.28    1.83
   1   3 -25   79.15    1.69
  -1   3  24   16.91    0.94
   1   3 -24   15.35    0.84
  -1   3  23   38.72    1.54
   1   3 -23   36.53    1.42
   1   3 -22    6.54    0.66
   1   3 -22    8.87    0.79
   1   3 -21    3.37    0.53
   1   3 -21    2.07    0.38
   1   3 -20    9.94    0.94
   1   3 -19    0.59    0.23
   1   3 -18   28.70    1.71
  -1   3  17   96.35    3.16
   1   3 -17  101.52    3.25
   1   3 -16   28.25    1.72
  -1   3  16   28.83    1.75
   1   3 -16   29.33    1.77
  -1   3  15  236.84    4.91
   1   3 -15  200.15    4.55
  -1   3  14   83.44    2.92
  -1   3  13   25.07    1.30
  -1   3  12    0.82    0.23
  -1   3  11    4.58    0.55
  -1   3  10   95.35    2.57
   1  -3 -10  100.87    2.16
   1  -3  -9   47.52    1.46
  -1   3   9   46.95    1.73
  -1   3   8   18.18    1.05
   1  -3  -8   17.54    0.84
  -1  -3   8   19.67    0.84
   1  -3  -7  311.01    3.28
  -1   3   7  309.81    4.21
   1  -3  -6  216.44    2.53
  -1   3   6  226.72    3.61
  -1   3   5  165.41    3.06
  -1  -3   5  160.66    2.17
   1  -3  -4   15.10    0.59
  -1  -3   4   15.82    0.65
  -1  -3   3    0.77    0.14
   1  -3  -3    0.50    0.11
  -1  -3   2   75.16    1.27
   1  -3  -2   76.05    1.34
   1  -3  -1    1.10    0.18
  -1  -3   1    0.77    0.13
  -1   3   0   20.98    0.53
   1  -3   0   22.50    0.79
  -1   3  -1   51.07    0.90
   1  -3   1   52.61    1.20
   1  -3   2   22.02    0.77
  -1  -3  -2   19.61    0.70
  -1   3  -3  271.28    2.63
  -1  -3  -3  279.13    2.85
  -1   3  -4   96.83    1.70
  -1  -3  -4  102.02    1.83
  -1   3  -5    0.15    0.10
  -1  -3  -5    0.11    0.10
  -1  -3  -6    0.20    0.11
  -1   3  -6    0.15    0.10
  -1  -3  -7   64.71    1.64
  -1   3  -7   65.09    1.73
  -1   3  -8   79.23    2.04
  -1   3  -9   14.65    0.92
  -1   3 -10   21.69    1.19
  -1   3 -11   39.75    1.69
  -1   3 -12   30.69    1.53
   1   3  12   35.09    1.53
   1   3  13    1.49    0.31
  -1   3 -13    1.53    0.37
  -1   3 -14   19.32    1.43
  -1   3 -14   20.79    1.47
  -1   3 -15    0.31    0.26
  -1   3 -15    0.29    0.20
  -1   3 -16   10.96    1.08
  -1   3 -16   10.44    1.10
  -1   3 -16   11.77    1.08
  -1   3 -17   12.37    1.11
  -1   3 -17   11.58    1.09
  -1   3 -17   11.50    1.12
  -1   3 -18    0.64    0.35
  -1   3 -18    0.18    0.19
  -1   3 -19    3.93    0.60
  -1   3 -19    4.37    0.68
  -1   3 -20   32.60    1.71
  -1   3 -20   28.57    1.55
  -1   3 -21   80.12    2.48
  -1   3 -21   83.97    2.62
  -1   3 -22    2.04    0.39
  -1   3 -22    2.31    0.43
  -1   3 -23    0.30    0.14
  -1   3 -23    0.38    0.20
  -1   3 -24   31.04    1.19
  -1   4  24    5.69    0.46
  -1   4  23   31.25    1.22
   1   4 -23   31.53    1.13
   1  -4 -23   28.83    1.02
  -1   4  22   12.73    0.87
   1   4 -22   11.92    0.77
   1   4 -22   13.95    0.89
   1   4 -21   22.84    1.24
   1   4 -21   20.55    1.10
  -1   4  21   21.84    1.23
   1   4 -20    2.05    0.41
   1   4 -20    1.77    0.34
  -1   4  20    2.63    0.45
   1   4 -19    0.19    0.12
   1   4 -19    1.33    0.34
   1   4 -18    1.96    0.43
   1   4 -18    1.54    0.41
   1   4 -17    6.39    0.84
   1   4 -17    6.36    0.81
   1   4 -16    2.64    0.55
   1   4 -15   91.37    3.14
   1   4 -14   14.57    1.27
   1   4 -13   25.56    1.63
   1   4 -12   14.63    1.20
   1  -4 -11    3.63    0.47
  -1   4  11    2.33    0.41
  -1   4  10    1.65    0.38
   1  -4 -10    1.13    0.26
  -1   4   9    2.30    0.44
   1  -4  -9    2.17    0.38
  -1   4   8   20.39    1.22
   1  -4  -8   20.95    1.08
   1  -4  -7   10.49    0.71
  -1   4   7   10.10    0.85
  -1   4   6    5.81    0.65
  -1  -4   6    6.45    0.51
  -1   4   5   14.36    1.02
   1  -4  -5   12.93    0.72
  -1  -4   5   15.77    0.77
  -1  -4   4  347.21    3.50
   1  -4  -4  431.38    3.86
   1  -4  -3  300.58    3.12
  -1  -4   3  251.27    2.83
  -1  -4   2   33.89    1.02
   1  -4  -2   33.90    1.03
   1  -4  -1    9.01    0.54
  -1  -4   1    7.93    0.49
   1  -4   0    9.87    0.59
  -1  -4   0   10.33    0.58
  -1  -4  -1   19.63    0.87
   1  -4   1   22.79    0.91
  -1  -4  -2    7.75    0.54
   1  -4   2    8.26    0.58
  -1  -4  -3    3.18    0.38
   1  -4   3    3.62    0.40
   1  -4   4   35.96    1.25
  -1  -4  -4   40.34    1.37
  -1  -4  -5   43.57    1.50
   1  -4   5   46.19    1.40
  -1  -4  -6   12.65    0.84
   1  -4   6   12.65    0.77
   1  -4   7    8.54    0.68
  -1  -4  -7    8.09    0.69
  -1   4  -7    9.31    0.73
  -1   4  -8   41.81    1.64
  -1  -4  -8   39.40    1.52
  -1   4  -9   25.90    1.36
  -1   4 -10    2.69    0.45
  -1   4 -11   37.59    2.02
  -1   4 -11   29.68    1.58
  -1   4 -12   22.02    1.57
  -1   4 -12   25.87    1.64
  -1   4 -13    6.52    0.86
  -1   4 -13    5.87    0.81
  -1   4 -14   23.16    1.66
  -1   4 -14   21.03    1.51
  -1   4 -15    5.22    0.77
  -1   4 -15    4.79    0.69
  -1   4 -16    1.45    0.38
  -1   4 -17    1.87    0.43
  -1   4 -17    2.15    0.48
  -1   4 -18   73.93    2.62
  -1   4 -18   70.73    2.69
  -1   4 -19    2.03    0.49
  -1   4 -19    1.72    0.40
  -1   4 -20  115.66    3.05
  -1   4 -20  115.00    2.95
  -1   4 -21    2.91    0.45
  -1   4 -21    2.88    0.44
  -1   4 -22   16.38    0.97
  -1   4 -22   14.79    0.88
  -1   4 -23    9.90    0.62
   1   4  23   10.12    0.64
  -1   4 -23   11.35    0.70
   1  -5 -21   16.06    0.85
  -1   5  21   17.61    0.93
   1   5 -21   18.08    0.92
  -1   5  20   14.98    0.96
   1   5 -20   15.68    0.97
  -1   5  19   27.51    1.41
   1   5 -19   28.31    1.44
  -1   5  18    0.82    0.29
   1   5 -18    0.80    0.31
  -1   5  17   18.54    1.30
   1   5 -17   17.26    1.29
  -1   5  16   49.99    2.21
   1   5 -16   46.89    2.14
  -1   5  15   18.42    1.38
   1   5 -15   16.51    1.31
  -1   5  14    3.84    0.64
   1   5 -14    3.22    0.60
   1   5 -13   65.17    2.62
  -1   5  13   66.03    2.64
   1   5 -12   24.41    1.59
   1   5 -11    0.63    0.26
   1   5 -10    9.25    0.93
   1   5  -9   74.55    2.61
   1   5  -8   94.43    2.90
   1   5  -7  144.72    3.50
  -1   5   7  146.53    3.65
  -1   5   6   56.16    2.24
   1  -5  -6   50.96    1.76
   1  -5  -5   14.63    0.89
   1  -5  -4    0.19    0.13
  -1  -5   3    8.34    0.61
   1  -5  -3    9.86    0.71
   1  -5  -2    7.88    0.59
  -1  -5   2    7.68    0.61
   1  -5  -1   67.16    1.71
  -1  -5   1   86.01    2.16
   1  -5   0    0.55    0.15
  -1  -5   0    0.84    0.21
   1  -5   1    3.94    0.42
  -1  -5  -1    4.06    0.47
   1  -5   2   22.90    1.06
  -1  -5  -2   29.27    1.31
   1  -5   3   14.17    0.86
  -1  -5  -3   14.90    0.97
  -1  -5  -4    0.72    0.26
   1  -5   4    0.52    0.20
   1  -5   5  118.04    2.64
  -1  -5  -5  121.24    2.95
   1  -5   6   10.57    0.83
  -1  -5  -6   11.93    0.94
  -1  -5  -7    3.42    0.55
  -1   5  -7    3.67    0.62
  -1   5  -8    0.37    0.22
  -1  -5  -8    0.16    0.19
  -1   5  -9   43.50    2.23
  -1  -5  -9   44.31    2.12
  -1   5 -10    7.24    0.92
  -1   5 -10    9.39    0.96
  -1  -5 -10    8.39    0.94
  -1   5 -11   18.13    1.45
  -1  -5 -11   19.39    1.46
  -1   5 -11   22.04    1.51
  -1   5 -12   44.28    2.24
  -1  -5 -12   44.89    2.23
  -1  -5 -13    2.00    0.50
  -1   5 -13    1.73    0.44
  -1   5 -13    1.88    0.46
  -1   5 -14    2.91    0.58
  -1  -5 -14    3.43    0.61
  -1  -5 -15    7.15    0.85
  -1  -5 -16    1.77    0.42
  -1  -5 -17    3.11    0.50
  -1   5 -17    1.79    0.34
  -1   5 -18    5.95    0.72
  -1  -5 -18    7.20    0.70
  -1   5 -19   54.26    1.99
  -1   5 -20    7.18    0.66
  -1   5 -21    1.70    0.30
  -1   5 -22   23.91    0.93
   1  -6 -20    4.81    0.41
   1   6 -19    0.03    0.08
   1  -6 -19    0.54    0.18
   1  -6 -18   33.19    1.37
   1   6 -18   33.53    1.38
   1   6 -17    1.15    0.30
   1  -6 -17    1.39    0.33
   1   6 -16    6.82    0.74
   1   6 -16    6.76    0.74
   1  -6 -16    7.31    0.76
   1   6 -15    0.51    0.27
   1  -6 -15    0.56    0.22
   1   6 -14    0.01    0.18
   1   6 -13    5.63    0.76
   1   6 -12    1.85    0.44
   1   6 -11   24.03    1.58
   1   6 -10   20.92    1.45
   1   6  -9   55.44    2.33
   1   6  -8   -0.03    0.16
   1  -6  -8    0.23    0.18
   1   6  -7    3.85    0.63
   1  -6  -7    4.40    0.65
   1   6  -6   15.79    1.25
   1  -6  -6   15.55    1.17
  -1  -6   6   15.82    1.09
  -1  -6   5   96.42    2.68
   1   6  -5   94.39    3.00
   1  -6  -4    0.46    0.23
   1   6  -4    0.21    0.17
   1   6  -3   22.13    1.45
   1  -6  -3   23.27    1.32
  -1  -6   3   26.61    1.39
   1  -6  -2   23.47    1.29
   1   6  -2   23.26    1.49
  -1  -6   2   23.53    1.30
  -1  -6   1   13.08    0.98
   1   6  -1   13.13    1.13
   1   6   0    0.19    0.15
  -1  -6   0    0.22    0.17
   1   6   1    5.96    0.79
  -1  -6  -1    3.80    0.56
   1   6   2    7.00    0.84
  -1  -6  -2    5.98    0.69
   1   6   3    3.06    0.56
  -1  -6  -3    2.55    0.46
   1   6   4    0.40    0.18
  -1  -6  -4    0.79    0.28
  -1   6  -4    0.32    0.20
  -1   6  -5    0.43    0.29
  -1  -6  -5    0.09    0.12
   1   6   5    0.45    0.26
  -1   6  -6    0.42    0.24
  -1  -6  -6    0.52    0.23
  -1  -6  -7   -0.01    0.19
  -1   6  -7    0.35    0.23
  -1  -6  -8    6.66    0.84
  -1   6  -8    6.49    0.90
  -1   6  -9    0.80    0.28
  -1   6  -9    0.66    0.32
  -1  -6  -9    0.51    0.27
  -1  -6 -10   26.48    1.71
  -1   6 -10   25.32    1.71
  -1   6 -10   29.68    1.67
  -1   6 -11    4.33    0.72
  -1   6 -11    5.10    0.69
  -1  -6 -11    4.07    0.66
  -1   6 -12    0.16    0.13
  -1  -6 -12    0.25    0.24
  -1   6 -13   24.35    1.56
  -1  -6 -13   23.70    1.55
  -1  -6 -14    8.61    0.90
  -1  -6 -15    2.55    0.48
  -1  -6 -16    4.31    0.56
  -1   6 -16    3.24    0.52
  -1   6 -17   33.67    1.52
  -1  -6 -17   33.56    1.43
  -1  -6 -18   25.55    1.10
  -1   6 -18   25.62    1.21
  -1   6 -19    8.35    0.62
   1  -7 -17    1.62    0.26
   1  -7 -16    0.53    0.17
   1   7 -16    0.55    0.16
   1  -7 -15    0.76    0.24
   1   7 -15    0.81    0.22
   1   7 -14    2.22    0.41
   1  -7 -14    2.11    0.40
   1  -7 -13   19.54    1.24
   1   7 -13   20.10    1.24
   1   7 -12    9.38    0.90
   1  -7 -12   10.40    0.95
   1   7 -11   43.48    1.99
   1  -7 -11   43.65    1.99
   1  -7 -10    8.07    0.88
   1   7 -10    7.29    0.84
   1   7  -9   25.08    1.57
   1  -7  -9   29.13    1.65
   1   7  -8   11.18    1.06
   1  -7  -8   12.19    1.07
   1   7  -7    0.67    0.30
   1  -7  -7    0.52    0.22
   1  -7  -6    3.72    0.58
   1   7  -6    1.76    0.43
   1   7  -5    9.16    1.00
  -1  -7   5    9.81    0.84
   1  -7  -5   10.66    0.95
   1   7  -4    3.93    0.67
   1  -7  -4    4.03    0.59
  -1  -7   4    3.24    0.50
  -1  -7   3   73.57    2.37
   1   7  -3   70.76    2.82
   1   7  -2   15.60    1.34
   1  -7  -2   15.85    1.08
  -1  -7   2   14.22    1.05
  -1  -7   1    2.19    0.41
   1   7  -1    2.69    0.57
  -1  -7   0    0.53    0.26
   1   7   0    0.34    0.28
   1   7   1   25.26    1.74
  -1  -7  -1   21.26    1.31
  -1  -7  -2    8.72    0.86
   1   7   2    9.14    1.05
   1   7   3    0.75    0.35
  -1  -7  -3    0.69    0.28
  -1  -7  -4    6.50    0.78
  -1   7  -5   19.08    1.60
  -1  -7  -5   20.80    1.40
  -1  -7  -6    2.92    0.56
  -1   7  -6    2.64    0.61
  -1  -7  -7   40.18    1.99
  -1   7  -7   39.21    2.20
  -1   7  -8    0.32    0.25
  -1   7  -8    0.18    0.22
  -1  -7  -8    0.14    0.23
  -1   7  -9   15.39    1.30
  -1  -7  -9   11.67    1.06
  -1   7  -9   14.15    1.07
  -1   7 -10   10.56    1.04
  -1  -7 -10    9.38    0.95
  -1   7 -10   10.52    0.91
  -1  -7 -11    2.28    0.46
  -1   7 -11    2.34    0.46
  -1  -7 -12    5.74    0.70
  -1  -7 -13    0.46    0.21
  -1  -7 -14    0.06    0.15
  -1  -7 -15   11.90    0.81
  -1   7 -15   11.10    0.81
  -1  -7 -16    1.53    0.27
  -1   7 -16    1.07    0.23
   1   8 -12    2.25    0.36
   1  -8 -12    2.47    0.35
   1  -8 -11   17.69    0.98
   1   8 -11   21.69    1.14
   1   8 -10    0.22    0.19
   1  -8 -10    0.49    0.20
   1   8  -9   22.62    1.33
   1  -8  -9   19.28    1.12
   1  -8  -8   60.19    2.01
   1   8  -8   63.47    2.31
   1   8  -7   12.90    1.09
   1  -8  -7   13.91    0.98
   1   8  -6    4.37    0.65
   1  -8  -6    3.82    0.51
   1   8  -5    4.17    0.65
   1  -8  -5    4.18    0.53
   1  -8  -4    1.01    0.27
   1   8  -4    1.50    0.42
   1   8  -3    5.37    0.76
   1   8  -2    1.80    0.45
  -1  -8   2    1.32    0.31
   1   8  -1    0.43    0.24
  -1  -8   1    0.08    0.11
  -1  -8   0   29.15    1.44
   1   8   0   32.47    1.91
  -1  -8  -1    8.81    0.81
   1   8   1   10.90    1.11
  -1  -8  -2    0.23    0.13
  -1  -8  -3    0.14    0.14
  -1  -8  -4    1.74    0.39
  -1  -8  -5    0.50    0.20
  -1  -8  -6   -0.08    0.19
  -1   8  -6    0.08    0.11
  -1  -8  -7    5.08    0.62
  -1   8  -7    5.47    0.59
  -1  -8  -8    3.67    0.52
  -1  -8  -9    1.03    0.27
  -1  -8 -10    3.94    0.50
  -1  -8 -11    0.32    0.18
  -1  -8 -12    3.33    0.41
   2   0 -26    6.62    0.49
   2   0 -25    0.14    0.12
  -2   0  24   55.39    1.74
   2   0 -24   59.29    1.91
  -2   0  23    0.28    0.19
  -2   0  22    6.42    0.70
  -2   0  21    0.06    0.16
  -2   0  20   41.90    1.92
  -2   0  19   -0.09    0.16
  -2   0  18    1.57    0.39
   2   0 -17    0.02    0.17
  -2   0  17   -0.19    0.21
  -2   0  16  184.94    4.12
  -2   0  16  199.31    3.86
  -2   0  15    0.18    0.15
  -2   0  14  231.65    3.95
  -2   0  13    0.29    0.18
  -2   0  12   98.00    2.35
  -2   0  12   95.87    2.14
  -2   0  11    0.26    0.15
  -2   0  11    0.06    0.09
  -2   0  10    1.06    0.22
  -2   0  10    0.80    0.21
  -2   0   9    0.42    0.15
  -2   0   9    0.44    0.17
  -2   0   8   35.24    1.21
  -2   0   8   41.62    1.30
  -2   0   7   -0.02    0.09
  -2   0   7    0.53    0.15
  -2   0   6   25.68    0.96
  -2   0   6   25.59    0.68
  -2   0   5    0.28    0.12
  -2   0   5    0.60    0.12
  -2   0   5    0.24    0.12
  -2   0   4  101.00    1.60
  -2   0   4  101.68    1.74
  -2   0   3    0.30    0.12
  -2   0   3    0.20    0.10
  -2   0   3    0.07    0.06
   2   0  -3    0.11    0.02
   2   0  -2  126.90    0.67
  -2   0   2  122.01    1.50
  -2   0   1    0.15    0.06
  -2   0   1    0.06    0.04
  -2   0   0   29.78    0.62
  -2   0   0   30.09    0.75
  -2   0  -1    0.41    0.09
  -2   0  -1    0.57    0.10
  -2   0  -2  352.30    2.36
  -2   0  -3    0.02    0.07
  -2   0  -3    0.23    0.08
  -2   0  -4   62.40    1.15
  -2   0  -4   54.04    1.43
  -2   0  -5    0.08    0.09
  -2   0  -5    0.31    0.11
  -2   0  -6   25.04    0.89
  -2   0  -6   28.24    0.92
  -2   0  -7    0.44    0.14
  -2   0  -7    0.09    0.08
  -2   0  -8  154.14    2.57
  -2   0  -9    0.20    0.13
  -2   0 -10    0.85    0.23
  -2   0 -11    0.94    0.26
  -2   0 -12  116.32    2.88
  -2   0 -13    0.23    0.21
  -2   0 -14  348.43    5.32
  -2   0 -15    0.53    0.24
  -2   0 -16  202.68    4.39
  -2   0 -16  259.17    5.42
  -2   0 -17   -0.09    0.23
  -2   0 -17   -0.13    0.22
  -2   0 -18    0.85    0.25
  -2   0 -18    1.09    0.38
  -2   0 -19    0.07    0.19
  -2   0 -19   -0.21    0.29
  -2   0 -20   34.60    1.88
  -2   0 -21    0.13    0.18
  -2   0 -22  104.06    2.89
  -2   0 -23    0.30    0.20
  -2   0 -24   19.16    1.03
  -2   0 -25    0.12    0.10
   2   1 -26    1.38    0.24
   2   1 -25    3.26    0.41
  -2   1  25    4.13    0.44
  -2   1  24    9.40    0.75
   2  -1 -24    9.00    0.69
   2   1 -24    9.02    0.75
  -2   1  23   21.35    1.21
  -2  -1  22    0.61    0.22
  -2   1  22    0.45    0.19
  -2   1  21   52.40    2.12
  -2  -1  21   54.43    2.04
  -2   1  20    0.93    0.32
  -2  -1  20    0.99    0.28
   2   1 -20    1.13    0.32
   2   1 -19   14.92    1.11
  -2  -1  19   14.37    1.14
  -2   1  19   15.74    1.19
   2   1 -18    1.73    0.38
  -2   1  18    1.22    0.35
  -2  -1  18    1.25    0.37
  -2   1  17    1.40    0.39
  -2  -1  17    0.73    0.28
   2   1 -17    0.61    0.21
  -2  -1  16   37.36    1.89
  -2   1  16   43.84    2.01
  -2  -1  15    0.32    0.18
  -2   1  15    0.26    0.17
  -2   1  14    2.59    0.40
  -2  -1  14    2.98    0.46
  -2  -1  13   74.94    2.02
  -2  -1  13   74.29    2.20
  -2   1  13   74.26    2.17
  -2  -1  12   20.52    1.05
  -2  -1  12   17.42    1.03
  -2   1  12   19.74    1.11
  -2  -1  11  313.86    4.10
  -2   1  11  299.32    4.29
  -2  -1  10   52.19    1.64
  -2  -1  10   50.71    1.61
  -2   1  10   52.67    1.51
  -2  -1   9    6.15    0.57
  -2   1   9    7.36    0.55
  -2   1   9    7.44    0.66
  -2   1   8    0.61    0.17
  -2  -1   8    0.54    0.19
  -2   1   8    0.64    0.20
  -2  -1   8    0.77    0.20
   2  -1  -7   29.37    0.74
  -2   1   7   28.29    1.03
  -2   1   7   28.06    1.17
  -2   1   6   58.58    1.43
  -2  -1   6   60.69    1.66
  -2   1   6   61.03    1.65
   2  -1  -6   62.27    1.00
  -2  -1   5   49.64    1.45
  -2  -1   5   51.97    1.21
  -2   1   5   49.87    1.24
   2  -1  -5   48.92    0.75
  -2  -1   4   13.56    0.72
  -2   1   4   12.43    0.60
   2  -1  -3   59.40    0.78
  -2  -1   3   57.70    1.40
  -2   1   3   57.36    1.23
  -2   1   3   60.35    1.26
  -2  -1   2   28.43    0.94
   2  -1  -2   30.25    0.60
  -2  -1   1   46.22    0.69
  -2  -1   1   44.74    1.05
  -2   1   1   43.72    0.82
  -2   1   0   18.99    0.48
  -2  -1   0   17.94    0.60
  -2  -1  -1    4.27    0.27
  -2   1  -1    5.15    0.30
  -2  -1  -2   65.73    0.97
  -2   1  -2   74.19    1.20
  -2  -1  -3   52.26    0.82
  -2  -1  -3   54.31    0.95
  -2   1  -3   51.82    1.04
  -2   1  -4   23.37    0.78
  -2  -1  -4   23.37    0.63
  -2  -1  -5  379.33    2.73
  -2   1  -5  387.11    3.05
  -2   1  -6   11.83    0.66
  -2  -1  -6   10.44    0.50
  -2   1  -7  139.84    2.44
  -2  -1  -7  133.90    1.98
  -2  -1  -8    1.79    0.24
  -2  -1  -8    1.76    0.24
  -2   1  -8    1.84    0.31
  -2  -1  -9    0.24    0.10
  -2  -1  -9    0.25    0.10
  -2   1 -10  117.11    2.78
  -2  -1 -10  160.42    2.64
  -2   1 -11    7.88    0.77
  -2  -1 -11    7.38    0.60
  -2   1 -12    0.59    0.25
  -2   1 -13   95.21    2.87
  -2   1 -14   28.37    1.58
  -2   1 -15  193.05    4.25
  -2   1 -15  185.57    4.17
  -2  -1 -16   13.33    1.20
  -2   1 -16   10.12    0.98
  -2   1 -16   11.59    1.18
  -2   1 -17   32.96    1.95
  -2   1 -17   32.28    1.76
  -2   1 -18    2.21    0.41
  -2   1 -18    3.45    0.62
  -2  -1 -18    3.33    0.61
  -2  -1 -19   15.44    1.27
  -2   1 -19   14.56    1.25
  -2   1 -19   12.39    1.08
  -2   1 -20   55.09    2.16
  -2   1 -20   59.90    2.47
  -2  -1 -21    0.10    0.15
  -2   1 -21    0.32    0.20
  -2   1 -21   -0.17    0.28
  -2   1 -22    3.04    0.53
  -2   1 -23   71.55    2.21
  -2   1 -24    2.60    0.40
  -2   1 -25   81.52    1.86
  -2   2  25    1.12    0.24
   2   2 -25    0.86    0.20
   2   2 -24    4.36    0.49
  -2   2  24    4.56    0.51
  -2   2  23    8.70    0.76
  -2   2  22   28.51    1.46
  -2   2  21   10.29    0.92
   2   2 -21   10.63    0.89
   2   2 -20    0.27    0.15
  -2   2  20    0.46    0.27
   2   2 -19   25.32    1.47
  -2   2  19   27.93    1.63
  -2  -2  18   36.68    1.81
   2   2 -18   33.67    1.69
  -2   2  17   22.95    1.50
  -2  -2  17   22.65    1.46
   2   2 -17   23.36    1.42
  -2   2  16   74.62    2.69
  -2  -2  16   82.45    2.82
  -2   2  15    1.31    0.35
  -2   2  14   51.84    1.97
  -2  -2  14   50.88    1.86
  -2  -2  13    2.09    0.38
  -2   2  13    2.23    0.40
  -2  -2  12   79.14    2.29
  -2   2  12   82.88    2.39
  -2  -2  11   82.75    2.43
  -2   2  11   87.36    2.43
  -2   2  10   32.00    1.44
  -2   2   9   93.04    2.36
   2  -2  -9   74.31    1.54
  -2   2   8   10.63    0.78
   2  -2  -8    9.38    0.54
  -2   2   7   17.17    0.97
   2  -2  -7   14.47    0.60
  -2   2   6   34.64    1.34
   2  -2  -6   29.22    0.78
   2  -2  -5   83.41    1.22
  -2   2   5   83.57    2.04
   2  -2  -4   86.37    1.20
  -2  -2   4   85.95    0.94
  -2   2   3   79.86    1.74
  -2  -2   3   75.44    0.99
   2  -2  -3   79.07    1.20
  -2  -2   2   26.89    0.39
  -2   2   2   24.32    0.88
  -2  -2   2   23.54    0.61
   2  -2  -2   26.48    0.73
  -2  -2   1   52.25    1.03
   2  -2  -1   51.13    0.99
  -2   2   1   53.96    1.15
  -2   2   0   55.71    1.03
  -2  -2   0   59.54    1.22
  -2   2   0   57.75    0.98
  -2   2  -1    2.46    0.15
  -2   2  -1    2.71    0.23
  -2  -2  -1    2.84    0.28
  -2  -2  -1    2.28    0.25
  -2  -2  -2   80.80    1.28
  -2   2  -2   83.85    1.43
  -2   2  -3    1.51    0.20
  -2  -2  -3    1.83    0.16
  -2   2  -4   75.82    1.52
  -2  -2  -4   78.46    0.95
  -2   2  -5    6.81    0.50
  -2   2  -5    4.91    0.36
  -2   2  -6    2.57    0.33
  -2   2  -6    1.99    0.25
  -2   2  -7    0.31    0.12
  -2   2  -7    0.28    0.15
  -2   2  -8    3.14    0.36
  -2   2  -8    4.08    0.48
  -2   2  -9  193.92    2.93
  -2   2  -9  202.88    3.66
  -2   2 -10    0.26    0.14
  -2   2 -10    0.33    0.21
  -2   2 -11   18.89    1.01
  -2   2 -11   23.68    1.39
  -2   2 -12   65.80    2.42
  -2   2 -13   87.53    2.84
   2   2  13   85.00    2.23
  -2   2 -14    7.00    0.81
  -2   2 -14    8.47    0.95
  -2   2 -14    8.50    0.93
  -2   2 -15   12.13    1.17
  -2   2 -15   11.18    1.06
  -2   2 -15    9.67    1.00
  -2   2 -16   54.50    2.49
  -2   2 -16   53.47    2.36
  -2   2 -16   53.70    2.33
  -2   2 -17  315.06    5.64
  -2   2 -17  321.63    6.03
  -2   2 -17  331.45    5.77
  -2   2 -18   55.08    2.48
  -2   2 -18   53.92    2.29
  -2   2 -19    0.22    0.25
  -2   2 -19   -0.12    0.25
  -2   2 -20   96.25    3.07
  -2   2 -20   93.48    2.83
  -2   2 -21   26.19    1.53
  -2   2 -21   24.16    1.38
  -2   2 -22   32.60    1.48
  -2   2 -22   35.52    1.63
  -2   2 -23    1.77    0.36
  -2   2 -24    0.31    0.15
  -2   2 -25    3.62    0.37
  -2   3  25   30.13    1.05
   2   3 -24   26.21    1.05
  -2   3  24   30.74    1.22
   2   3 -23    6.65    0.58
  -2   3  23    7.12    0.65
  -2   3  22    1.12    0.28
   2   3 -21    7.47    0.72
  -2   3  21    6.11    0.71
   2   3 -20    2.15    0.38
  -2   3  19    8.75    0.91
   2   3 -19    9.77    0.90
  -2   3  18   13.35    1.15
   2   3 -18   16.81    1.23
   2   3 -17   18.12    1.30
  -2   3  17   15.29    1.24
   2   3 -16   14.78    1.18
  -2   3  16    8.94    0.96
  -2   3  15   -0.15    0.28
  -2   3  14   65.50    2.62
  -2  -3  13   70.82    2.52
  -2   3  13   50.58    1.99
  -2   3  12   48.49    1.92
  -2   3  11   10.69    0.88
   2  -3 -11    6.44    0.56
  -2   3  10    6.81    0.69
   2  -3 -10    9.40    0.68
  -2   3   9   58.38    2.06
   2  -3  -9   58.00    1.63
  -2   3   8  253.84    4.29
   2  -3  -8  276.91    3.32
   2  -3  -7   14.63    0.71
  -2   3   7   12.29    0.93
  -2   3   6  110.36    2.76
   2  -3  -6  127.38    2.02
  -2   3   5    5.98    0.63
   2  -3  -5    4.30    0.34
  -2   3   4  178.33    3.36
   2  -3  -4  225.94    2.37
  -2  -3   3    7.14    0.43
  -2   3   3    7.58    0.66
   2  -3  -3    6.22    0.40
   2  -3  -2   49.66    1.17
  -2  -3   2   47.98    1.08
  -2   3   1    4.32    0.41
   2  -3  -1    4.06    0.35
  -2  -3   1    3.54    0.33
  -2   3   0   65.43    1.21
   2  -3   0   64.77    1.41
  -2  -3  -1   79.40    1.74
  -2   3  -1   79.02    1.34
   2  -3   1   77.81    1.49
   2  -3   2    6.32    0.45
  -2   3  -2    6.61    0.43
  -2  -3  -2    6.87    0.54
  -2  -3  -3   13.26    0.76
  -2   3  -3   14.80    0.67
  -2  -3  -4    1.01    0.20
  -2   3  -4    1.37    0.22
  -2   3  -5   14.22    0.75
  -2   3  -6   24.21    1.06
  -2   3  -7   57.68    1.77
  -2   3  -8   83.80    2.29
  -2   3  -9    0.31    0.18
  -2   3 -10   98.42    2.78
  -2   3 -11   41.34    1.88
  -2   3 -12   38.76    1.88
  -2   3 -13   24.86    1.69
  -2   3 -13   23.99    1.61
  -2   3 -14   15.31    1.32
  -2   3 -14   14.87    1.31
  -2   3 -15   -0.24    0.37
  -2   3 -15    0.24    0.19
  -2   3 -15    0.17    0.21
  -2   3 -16   15.64    1.34
  -2   3 -16   15.57    1.29
  -2   3 -16   14.03    1.22
  -2   3 -17   27.31    1.75
  -2   3 -17   25.94    1.65
  -2   3 -17   29.27    1.75
  -2   3 -18   64.88    2.51
  -2   3 -18   61.33    2.57
  -2   3 -18   57.79    2.39
  -2   3 -19    8.69    0.94
  -2   3 -19    8.28    0.87
  -2   3 -20   90.81    2.83
  -2   3 -20   90.96    2.71
  -2   3 -21   39.89    1.74
  -2   3 -21   40.41    1.70
  -2   3 -22   34.70    1.44
  -2   3 -22   36.01    1.51
  -2   3 -23    1.45    0.29
  -2   3 -23    1.71    0.30
  -2   3 -24    6.16    0.49
  -2   4  23    0.12    0.11
   2   4 -23    0.16    0.07
   2   4 -22    1.12    0.23
  -2   4  22    1.57    0.30
   2   4 -21    8.37    0.68
  -2   4  21    8.91    0.79
   2   4 -20    3.13    0.46
  -2   4  20    3.01    0.50
  -2   4  19   90.96    2.85
   2   4 -19  103.58    2.77
  -2   4  18    6.72    0.81
   2   4 -18    7.26    0.80
  -2   4  17   13.34    1.18
   2   4 -17   13.86    1.18
   2   4 -17   13.65    1.13
   2   4 -16    3.87    0.62
   2   4 -16    4.07    0.67
  -2   4  16    3.76    0.64
   2   4 -15    5.61    0.79
  -2   4  15    6.07    0.83
  -2   4  14   35.88    2.00
   2   4 -14   35.07    1.96
   2   4 -13   95.33    3.15
  -2   4  13   97.20    3.25
   2   4 -12    8.84    0.92
  -2   4  12    8.41    0.94
   2   4 -11    8.75    0.90
  -2   4  11    9.06    0.94
   2  -4 -11    7.61    0.72
   2  -4 -10   80.29    2.32
  -2   4  10   86.88    2.68
  -2   4   9   93.81    2.85
   2  -4  -9  108.12    2.58
  -2   4   8   23.80    1.43
   2  -4  -8   19.30    1.03
  -2   4   7    4.52    0.62
   2  -4  -7    4.64    0.49
  -2   4   6   90.08    2.72
   2  -4  -6   82.97    1.84
  -2   4   5  114.81    3.06
   2  -4  -5  122.56    2.28
   2  -4  -4   21.26    0.85
   2  -4  -3  117.76    2.01
   2  -4  -2   60.39    1.45
   2  -4  -1  135.21    2.24
  -2  -4   1  153.68    2.65
   2  -4   0   23.12    0.95
  -2  -4   0   25.56    1.11
   2  -4   1   40.41    1.31
  -2  -4  -1   45.69    1.55
   2  -4   2    0.15    0.13
  -2  -4  -2    0.13    0.16
   2  -4   3    4.48    0.45
  -2  -4  -3    5.41    0.57
   2  -4   4   17.84    0.89
  -2  -4  -4   20.13    1.10
  -2   4  -5    1.24    0.24
   2  -4   5    1.54    0.28
  -2  -4  -5    0.93    0.23
   2  -4   6    1.56    0.31
  -2   4  -6    1.80    0.31
  -2   4  -7  159.54    3.05
  -2   4  -8   36.57    1.56
  -2   4  -9    2.62    0.44
  -2   4 -10   51.34    2.23
  -2   4 -10   54.45    2.59
  -2  -4 -11    0.81    0.35
  -2   4 -11    0.32    0.26
  -2   4 -11    1.35    0.40
  -2   4 -12   22.48    1.60
  -2  -4 -12   21.50    1.50
  -2   4 -13   36.71    2.11
  -2   4 -14    5.23    0.77
  -2   4 -14    7.47    0.96
  -2   4 -15   18.53    1.46
  -2   4 -15   19.16    1.46
  -2   4 -16   20.44    1.47
  -2   4 -16   22.22    1.56
  -2   4 -16   20.30    1.46
  -2   4 -17   23.19    1.49
  -2   4 -17   23.86    1.55
  -2   4 -17   21.51    1.46
  -2   4 -18  150.97    3.71
  -2   4 -18  161.47    3.87
  -2   4 -18  160.86    3.71
  -2   4 -19   65.87    2.32
  -2   4 -19   65.97    2.30
  -2   4 -20    6.71    0.70
  -2   4 -20    6.69    0.69
  -2   4 -21   17.13    1.01
  -2   4 -21   16.62    0.98
  -2   4 -22    0.11    0.13
  -2   4 -22   -0.04    0.11
  -2   5  21    7.25    0.58
  -2   5  20    0.28    0.12
  -2   5  19    4.82    0.59
  -2   5  18    3.34    0.53
  -2   5  17    1.98    0.45
   2   5 -17    2.50    0.49
   2   5 -17    1.86    0.39
   2   5 -16   49.90    2.21
   2   5 -16   57.97    2.29
  -2   5  16   56.32    2.38
  -2   5  15   69.38    2.71
   2   5 -15   61.58    2.52
   2   5 -14    0.01    0.23
  -2   5  14    0.26    0.20
  -2   5  13   27.28    1.72
   2   5 -13   26.42    1.67
   2   5 -12    0.34    0.20
  -2   5  12    0.12    0.20
   2   5 -11    7.70    0.87
  -2   5  11    8.11    0.93
   2   5 -10    3.59    0.59
  -2   5  10    4.88    0.71
   2   5  -9   10.45    0.99
  -2   5   9   12.55    1.08
   2   5  -8   56.67    2.24
   2   5  -7   79.70    2.58
  -2  -5   7   84.37    2.55
   2   5  -6    0.14    0.11
  -2  -5   6    0.21    0.11
   2   5  -5    2.89    0.47
   2  -5  -5    2.14    0.34
   2  -5  -4   69.01    1.94
   2  -5  -3   30.16    1.16
   2  -5  -2    1.22    0.25
   2  -5  -1   13.29    0.77
   2  -5   0    3.79    0.42
   2  -5   1    6.34    0.57
   2  -5   2   14.84    0.88
   2  -5   3   36.83    1.44
  -2  -5  -3   41.48    1.84
   2  -5   4    2.94    0.42
  -2  -5  -4    2.83    0.47
  -2  -5  -5   33.98    1.71
  -2  -5  -5   28.38    1.52
  -2  -5  -6   13.77    1.13
  -2   5  -7    0.74    0.29
  -2  -5  -7    1.46    0.38
  -2   5  -8   29.79    2.03
  -2  -5  -8   23.80    1.57
  -2   5  -9   73.91    2.68
  -2   5  -9   75.49    3.19
  -2   5 -10   93.31    3.07
  -2   5 -10   92.82    3.47
  -2  -5 -10   86.70    3.12
  -2   5 -11   21.53    1.52
  -2  -5 -11   20.71    1.55
  -2   5 -11   23.27    1.71
  -2   5 -12    0.90    0.38
  -2  -5 -12    0.71    0.28
  -2  -5 -13    5.90    0.82
  -2   5 -13    4.53    0.74
  -2  -5 -14    0.34    0.22
  -2   5 -14    0.50    0.32
  -2   5 -15   12.01    1.10
  -2  -5 -15   15.69    1.20
  -2   5 -16   34.06    1.73
  -2   5 -16   31.75    1.71
  -2   5 -17    3.22    0.49
  -2   5 -17    3.24    0.50
  -2   5 -18    9.57    0.84
  -2   5 -18   10.43    0.81
  -2   5 -19   27.68    1.29
  -2   5 -20   14.35    0.84
  -2   5 -21   16.32    0.78
   2  -6 -19    4.80    0.46
   2  -6 -18    8.47    0.68
   2  -6 -17    9.29    0.78
   2   6 -16    8.42    0.79
   2   6 -15   16.43    1.18
   2   6 -14   16.59    1.24
   2   6 -13    2.34    0.49
   2   6 -12   48.25    2.19
   2   6 -11   65.75    2.50
   2   6 -10    4.37    0.66
   2   6  -9    7.92    0.89
   2   6  -8    1.70    0.44
   2   6  -7  161.19    3.91
   2   6  -6   14.21    1.17
  -2  -6   6   16.83    1.18
   2  -6  -6   18.58    1.26
   2   6  -5    5.45    0.71
   2  -6  -5    5.14    0.65
  -2  -6   5    4.59    0.62
   2   6  -4   49.05    2.13
  -2  -6   4   53.19    2.08
   2   6  -3   23.49    1.48
  -2  -6   3   26.93    1.49
   2   6  -2   -0.07    0.24
  -2  -6   2    0.11    0.10
   2   6  -1    6.63    0.81
  -2  -6   1    6.82    0.75
   2   6   0   67.52    2.55
  -2  -6   0   67.14    2.32
   2   6   1   33.95    1.83
  -2  -6  -1   36.55    1.75
   2   6   2    0.91    0.29
  -2  -6  -2    1.25    0.35
  -2  -6  -3    7.91    0.86
  -2  -6  -4   44.97    2.04
  -2  -6  -5   54.70    2.30
  -2  -6  -6   20.66    1.45
  -2  -6  -7    0.07    0.19
  -2   6  -7    0.87    0.43
  -2  -6  -8   38.12    2.04
  -2   6  -8   54.37    2.71
  -2   6  -9    0.81    0.36
  -2   6  -9    0.74    0.30
  -2  -6  -9    0.58    0.27
  -2   6 -10    1.66    0.42
  -2   6 -10    2.88    0.61
  -2  -6 -10    2.17    0.48
  -2   6 -11    1.47    0.37
  -2  -6 -11    1.80    0.46
  -2  -6 -12   16.80    1.31
  -2   6 -12   14.86    1.21
  -2  -6 -13   15.27    1.20
  -2   6 -13   14.04    1.16
  -2   6 -14    0.08    0.20
  -2  -6 -14    0.58    0.24
  -2   6 -15    1.64    0.35
  -2  -6 -15    2.25    0.42
  -2   6 -16   15.46    0.93
  -2  -6 -16   17.79    1.03
  -2   6 -16   14.83    1.00
  -2   6 -17    8.53    0.70
  -2   6 -18   33.82    1.24
   2  -7 -16    0.94    0.22
   2   7 -15    0.57    0.21
   2  -7 -15    0.66    0.21
   2   7 -14   13.11    0.92
   2  -7 -14   12.58    0.89
   2   7 -13    1.38    0.33
   2  -7 -13    1.06    0.28
   2   7 -12   17.33    1.19
   2  -7 -12   18.12    1.19
   2   7 -11   21.19    1.35
   2  -7 -11   24.37    1.42
   2   7 -10    0.17    0.16
   2  -7 -10    0.12    0.14
   2   7  -9   22.76    1.43
   2  -7  -9   24.09    1.44
   2   7  -8    1.35    0.37
   2  -7  -8    1.90    0.42
   2   7  -7    6.23    0.79
   2  -7  -7    6.16    0.71
   2   7  -6   16.30    1.27
   2  -7  -6   15.69    1.12
   2   7  -5    0.77    0.31
  -2  -7   5    0.64    0.27
   2   7  -4    6.10    0.82
  -2  -7   4    6.70    0.74
   2   7  -3    1.30    0.39
  -2  -7   3    0.94    0.30
   2   7  -2   29.66    1.78
  -2  -7   2   30.26    1.58
   2   7  -1    5.39    0.77
  -2  -7   1    5.29    0.70
   2   7   0    0.14    0.21
  -2  -7   0    1.54    0.37
   2   7   1    7.59    0.96
  -2  -7  -1    6.11    0.73
   2   7   2   10.46    1.11
  -2  -7  -2    9.93    0.95
   2   7   3    9.25    1.05
  -2  -7  -3    8.17    0.87
   2   7   4   34.52    2.04
  -2  -7  -4   33.02    1.76
  -2  -7  -5    0.13    0.22
   2   7   5    0.86    0.40
   2   7   6   43.17    2.23
  -2  -7  -6   40.55    2.00
  -2   7  -7    0.63    0.28
   2   7   7    0.93    0.34
  -2  -7  -7    0.43    0.27
  -2   7  -8   10.02    0.91
  -2  -7  -8    9.93    0.99
  -2  -7  -9    2.57    0.48
  -2   7  -9    2.93    0.50
  -2   7 -10    0.14    0.19
  -2  -7 -10    0.18    0.15
  -2   7 -11    3.83    0.54
  -2  -7 -11    4.06    0.60
  -2   7 -12    0.05    0.14
  -2  -7 -12    0.04    0.16
  -2   7 -13   17.71    1.01
  -2  -7 -13   20.57    1.16
  -2   7 -14   32.12    1.35
  -2  -7 -14   37.80    1.42
  -2   7 -15   10.69    0.71
   2   8 -12    8.00    0.61
   2   8 -11    0.78    0.21
   2  -8 -10    0.24    0.13
   2   8 -10    0.34    0.20
   2   8  -9   28.59    1.42
   2  -8  -9   27.43    1.19
   2   8  -8    0.74    0.28
   2   8  -7    2.22    0.46
   2   8  -6    3.68    0.58
   2   8  -5   27.05    1.56
   2   8  -4    2.54    0.50
   2   8  -3    1.07    0.34
   2   8  -2    3.53    0.59
  -2  -8   2    3.43    0.49
   2   8  -1    0.09    0.22
  -2  -8   1    0.17    0.15
   2   8   0    0.79    0.34
  -2  -8   0    0.69    0.25
   2   8   1    0.71    0.29
  -2  -8  -1    0.60    0.24
   2   8   2    0.85    0.35
  -2  -8  -2    0.49    0.25
   2   8   3   58.31    2.44
  -2  -8  -3   49.55    1.98
   2   8   4    2.23    0.49
  -2  -8  -4    2.16    0.46
  -2   8  -5   11.39    0.90
  -2  -8  -5   11.27    0.95
  -2   8  -6    1.48    0.33
  -2  -8  -6    1.21    0.34
  -2   8  -7    2.36    0.40
  -2  -8  -7    2.40    0.42
  -2   8  -8    3.00    0.43
  -2  -8  -8    2.37    0.41
  -2   8  -9    1.04    0.25
  -2  -8  -9    1.32    0.30
  -2  -8 -10    0.02    0.11
  -3   0  25   65.47    1.68
   3   0 -25   64.30    1.73
  -3   0  24    0.99    0.25
  -3   0  23  150.94    3.17
  -3   0  22    0.26    0.17
  -3   0  21    8.76    0.85
  -3   0  20    0.12    0.17
  -3   0  19   21.31    1.42
  -3   0  18    0.57    0.31
  -3   0  17  257.76    5.02
  -3   0  16    0.09    0.15
  -3   0  15  121.42    3.46
  -3   0  14    0.21    0.16
  -3   0  13  102.92    2.83
  -3   0  13  116.66    2.69
  -3   0  12    0.11    0.11
  -3   0  12    0.17    0.13
  -3   0  11    3.67    0.51
  -3   0  11    3.38    0.46
  -3   0  10    0.07    0.12
  -3   0  10    0.10    0.14
  -3   0   9   14.60    0.94
  -3   0   9   15.01    0.94
  -3   0   8    0.14    0.11
  -3   0   8   -0.11    0.16
  -3   0   7   21.12    0.78
  -3   0   7   21.96    1.03
  -3   0   6    0.27    0.18
  -3   0   6    0.24    0.12
  -3   0   6    0.20    0.19
  -3   0   5  693.50    5.01
  -3   0   5  690.05    5.52
  -3   0   4   -0.03    0.09
  -3   0   4    0.06    0.10
  -3   0   3  140.63    2.59
  -3   0   3  145.80    2.31
  -3   0   2    0.04    0.07
  -3   0   2   -0.01    0.09
   3   0  -2    0.14    0.03
  -3   0   1   55.21    1.72
  -3   0   1   60.64    1.38
  -3   0   0    0.01    0.05
  -3   0   0    0.24    0.11
  -3   0   0    0.14    0.16
  -3   0  -1  373.09    2.83
  -3   0  -1  306.39    4.22
  -3   0  -2   -0.03    0.08
  -3   0  -2   -0.02    0.12
  -3   0  -3  601.24    5.67
  -3   0  -3  589.95    4.13
  -3   0  -4    0.10    0.09
  -3   0  -4   -0.05    0.10
  -3   0  -5    6.96    0.58
  -3   0  -5    9.25    0.55
  -3   0  -6    0.58    0.16
  -3   0  -6   -0.06    0.13
  -3   0  -7  135.60    2.49
  -3   0  -7  149.10    2.50
  -3   0  -8    0.55    0.19
  -3   0  -9   29.44    1.31
  -3   0 -10    1.38    0.33
  -3   0 -11  118.04    2.96
  -3   0 -12    0.26    0.11
  -3   0 -13   70.95    2.52
  -3   0 -14   -0.04    0.20
  -3   0 -14    0.20    0.25
  -3   0 -15  960.95   11.38
  -3   0 -15  951.35    9.45
  -3   0 -16    0.40    0.32
  -3   0 -16    0.81    0.45
  -3   0 -17  100.83    3.11
  -3   0 -17  121.50    3.95
  -3   0 -18    0.04    0.20
  -3   0 -19   10.72    1.10
  -3   0 -20    0.31    0.23
  -3   0 -21  195.26    4.12
  -3   0 -22    0.49    0.25
  -3   0 -23   33.41    1.38
  -3   0 -24   -0.03    0.09
   3   1 -25    6.13    0.54
  -3   1  24   15.85    0.94
  -3  -1  24   15.65    0.88
  -3   1  24   16.68    0.91
  -3   1  23   15.68    1.02
  -3  -1  23   15.64    0.98
  -3   1  23   17.20    1.04
  -3   1  22    7.50    0.75
  -3   1  22    5.77    0.68
  -3  -1  22    6.56    0.69
  -3   1  21   26.59    1.49
  -3  -1  21   28.76    1.53
  -3   1  21   28.12    1.55
  -3   1  20    9.67    0.95
  -3   1  20    9.07    0.90
  -3   1  19    3.22    0.55
  -3  -1  19    2.83    0.55
  -3   1  18   55.93    2.30
  -3  -1  18   51.16    2.28
  -3   1  17   13.14    1.12
  -3  -1  17   14.82    1.25
  -3   1  16  110.97    3.31
  -3  -1  16  113.69    3.46
  -3   1  15    9.47    0.96
  -3   1  14    0.31    0.18
  -3  -1  14   -0.10    0.19
  -3  -1  14    0.25    0.21
  -3   1  13    1.16    0.31
  -3  -1  13    1.05    0.30
  -3  -1  13    0.76    0.25
  -3  -1  12   97.78    2.58
  -3  -1  12   93.89    2.63
  -3   1  12  101.00    2.71
  -3  -1  11   87.25    2.40
  -3   1  11   94.11    2.33
  -3  -1  11   94.92    2.55
  -3   1  10    1.22    0.29
  -3  -1  10    1.39    0.31
  -3  -1  10    0.99    0.27
  -3   1  10    0.88    0.25
  -3  -1   9    1.29    0.29
  -3   1   9    1.28    0.29
  -3  -1   9    1.46    0.31
  -3   1   9    1.62    0.33
  -3  -1   8  148.00    2.97
  -3   1   8  127.31    2.60
  -3   1   8  122.12    2.66
  -3  -1   8  147.39    2.78
  -3  -1   7  158.66    3.03
  -3   1   7  155.21    2.80
  -3   1   7  148.64    2.78
  -3  -1   6  128.65    2.65
  -3   1   6  126.53    2.46
  -3  -1   5   63.26    1.79
  -3   1   5   61.96    1.64
  -3   1   4   80.33    1.74
  -3  -1   4   78.17    1.89
  -3   1   4   71.20    1.68
   3  -1  -4   66.35    0.84
  -3  -1   3   76.20    1.80
   3  -1  -3   74.12    0.98
  -3   1   2    5.59    0.38
  -3  -1   2    5.32    0.45
  -3  -1   1    2.74    0.22
  -3   1   1    3.86    0.29
  -3  -1   1    3.43    0.34
  -3  -1   0   12.27    0.59
  -3  -1   0   12.24    0.50
  -3  -1  -1   47.81    0.97
  -3  -1  -1   48.17    1.10
  -3   1  -2   85.69    1.46
  -3   1  -2   88.86    1.58
  -3   1  -3   92.69    1.61
  -3   1  -3   97.97    1.69
  -3  -1  -3   94.95    1.38
  -3   1  -4   57.51    1.33
  -3   1  -4   60.04    1.39
  -3   1  -5  240.22    2.94
  -3   1  -5  248.32    3.03
  -3  -1  -6  238.66    3.49
  -3   1  -6  244.06    3.31
  -3  -1  -7   25.39    0.97
  -3   1  -7   24.02    1.00
  -3  -1  -7   27.61    1.15
  -3   1  -7   27.52    1.18
  -3   1  -8    2.11    0.31
  -3  -1  -8    1.67    0.29
  -3  -1  -8    2.18    0.30
  -3   1  -8    1.56    0.30
  -3   1  -9    1.73    0.31
  -3   1  -9    1.94    0.35
  -3  -1  -9    1.55    0.26
  -3  -1  -9    2.09    0.31
  -3   1 -10  148.87    2.92
  -3  -1 -10  160.61    2.86
  -3   1 -11    7.09    0.66
  -3   1 -11    5.67    0.67
  -3   1 -12   29.26    1.39
  -3   1 -12   22.75    1.40
  -3   1 -13   17.92    1.12
  -3   1 -13   18.89    1.31
  -3   1 -14    2.72    0.47
  -3  -1 -14    4.11    0.70
  -3   1 -14    3.53    0.69
  -3   1 -14    3.57    0.59
  -3  -1 -15   54.59    2.58
  -3   1 -15   50.61    2.61
  -3   1 -15   49.64    2.19
  -3   1 -15   46.21    2.20
  -3   1 -16    1.85    0.47
  -3   1 -16    1.71    0.50
  -3   1 -17    0.79    0.34
  -3   1 -17    0.56    0.25
  -3  -1 -17    1.35    0.44
  -3   1 -18    1.04    0.23
  -3   1 -18    2.11    0.52
  -3  -1 -18    2.08    0.51
  -3  -1 -19    0.07    0.17
  -3   1 -19    0.07    0.19
  -3   1 -19    0.04    0.20
  -3  -1 -20   25.67    1.53
  -3   1 -20   24.84    1.58
  -3   1 -21   34.27    1.74
  -3   1 -22    6.96    0.72
  -3   1 -23   33.37    1.40
  -3   1 -24    2.30    0.32
   3   2 -25   15.53    0.79
  -3   2  25   16.91    0.77
  -3   2  24   30.46    1.23
  -3   2  23    7.57    0.69
  -3   2  22    0.73    0.28
  -3  -2  22    0.80    0.26
  -3   2  22    0.66    0.24
  -3   2  21   44.26    1.93
  -3   2  21   41.64    1.81
  -3  -2  21   43.63    1.78
  -3  -2  20   97.82    2.85
  -3   2  20   97.92    3.04
  -3   2  19    0.42    0.20
  -3  -2  19    0.59    0.27
  -3   2  19    0.19    0.19
  -3   2  18   62.77    2.42
  -3  -2  18   61.27    2.52
  -3   2  18   68.84    2.71
  -3   2  17    1.07    0.38
  -3  -2  17    0.61    0.28
  -3   2  16   87.71    2.95
  -3   2  15  323.41    5.62
  -3   2  14   10.08    1.00
  -3  -2  13    9.57    0.86
  -3   2  13    8.58    0.81
  -3  -2  12    0.34    0.21
  -3   2  12    0.34    0.16
  -3   2  11    1.94    0.39
  -3  -2  11    2.27    0.41
  -3   2  10  132.58    3.17
  -3  -2  10  133.25    3.20
  -3   2   9    0.79    0.24
  -3  -2   9    0.89    0.28
  -3   2   8    9.12    0.80
  -3  -2   8    9.86    0.88
  -3  -2   7   83.27    2.50
  -3   2   7   76.84    2.22
  -3   2   6    1.00    0.25
  -3  -2   6    1.14    0.31
   3  -2  -6    1.49    0.19
  -3  -2   5    5.64    0.61
  -3   2   5    6.08    0.54
   3  -2  -5    4.40    0.29
  -3  -2   4  125.58    2.80
  -3   2   4  122.52    2.25
  -3  -2   3  252.04    3.72
  -3   2   3  253.65    2.99
  -3   2   2  197.67    2.41
   3  -2  -2  198.52    2.21
  -3  -2   1  105.03    1.28
  -3   2   1  108.61    1.56
   3  -2  -1  107.24    1.57
  -3  -2   0  272.87    2.15
  -3  -2   0  278.71    3.11
  -3  -2  -1   82.15    1.59
  -3   2  -1   90.99    1.66
  -3   2  -2   31.45    0.99
  -3  -2  -2   31.15    0.90
  -3  -2  -3   82.29    1.34
  -3   2  -3   84.86    1.67
  -3   2  -4   17.63    0.80
  -3   2  -5  220.34    2.91
  -3   2  -5  226.49    3.11
  -3   2  -6   36.76    1.19
  -3   2  -6   47.92    1.58
  -3   2  -7    2.67    0.34
  -3   2  -7    3.37    0.44
  -3   2  -8   73.96    1.88
  -3   2  -8   83.86    2.28
  -3   2  -9   18.83    1.00
  -3   2  -9   18.23    1.12
  -3   2 -10   49.10    1.70
  -3   2 -10   52.54    2.02
  -3   2 -11    9.00    0.75
  -3   2 -11    9.33    0.88
  -3   2 -12   10.41    0.84
  -3   2 -12   10.93    0.99
  -3   2 -13  455.87    7.08
  -3   2 -13  483.28    7.00
  -3   2 -14   64.05    2.69
  -3   2 -14   67.32    3.01
  -3   2 -15    0.83    0.26
  -3   2 -15    0.51    0.28
  -3   2 -15    0.48    0.20
  -3   2 -16   27.37    1.87
  -3   2 -16   28.69    1.73
  -3   2 -16   29.75    1.73
  -3   2 -17  114.33    3.75
  -3   2 -17  110.36    3.21
  -3   2 -17  103.48    3.26
  -3   2 -18  156.43    4.24
  -3   2 -18  162.85    3.82
  -3   2 -19   17.67    1.38
  -3   2 -19   16.68    1.19
  -3   2 -20    8.43    0.91
  -3   2 -20    7.65    0.76
  -3   2 -21    6.80    0.75
  -3   2 -21    6.59    0.68
  -3   2 -22   10.17    0.84
  -3   2 -23   22.44    1.08
  -3   2 -24   13.04    0.71
   3   3 -24    5.54    0.45
  -3   3  24    5.78    0.49
   3   3 -23    8.22    0.63
  -3   3  23    9.62    0.72
  -3   3  22   35.48    1.53
  -3   3  21   55.53    2.08
  -3   3  20    2.69    0.48
  -3   3  20    2.73    0.52
  -3   3  19    4.77    0.66
  -3  -3  19    7.03    0.76
  -3   3  19    6.34    0.81
  -3   3  18    3.65    0.57
  -3  -3  18    3.44    0.58
  -3   3  18    3.62    0.64
  -3   3  17   12.06    1.09
  -3   3  17   11.96    1.19
  -3   3  16    3.77    0.67
  -3   3  16    3.97    0.66
  -3   3  15   48.02    2.24
  -3   3  15   44.53    2.30
  -3   3  14   43.02    2.14
  -3   3  14   40.54    2.19
  -3   3  13  190.26    4.67
  -3   3  13  222.40    4.77
  -3   3  12    1.76    0.45
  -3   3  11   39.92    1.95
  -3  -3  11   39.11    1.92
  -3   3  10    6.78    0.80
  -3  -3  10    5.70    0.75
  -3   3   9   24.37    1.50
  -3  -3   9   23.98    1.53
  -3   3   8    9.15    0.90
  -3  -3   8   12.04    1.11
  -3   3   7   22.46    1.38
   3  -3  -7   25.22    0.96
  -3   3   6    0.67    0.24
   3  -3  -6    0.48    0.13
  -3   3   5    1.20    0.30
  -3  -3   5    0.83    0.33
   3  -3  -5    0.77    0.14
  -3   3   4   67.66    1.94
  -3  -3   4   69.02    2.43
  -3  -3   3  146.96    3.35
   3  -3  -3  122.88    1.92
   3  -3  -2   11.80    0.62
  -3  -3   2   15.37    1.03
  -3  -3   1    1.26    0.28
   3  -3  -1    0.98    0.20
  -3  -3   0    5.79    0.54
   3  -3   0    5.12    0.43
  -3  -3  -1  110.38    2.10
   3  -3   1   97.97    1.81
  -3   3  -2   52.91    1.38
   3  -3   2   51.18    1.38
  -3   3  -3   43.94    1.28
  -3   3  -4    0.02    0.07
  -3   3  -5   63.00    1.71
  -3   3  -6    3.42    0.45
  -3   3  -7  146.03    3.10
  -3   3  -8    4.12    0.55
  -3   3  -9   62.86    2.20
  -3   3 -10    4.54    0.62
  -3   3 -11  106.68    3.38
  -3   3 -11  109.96    3.55
  -3   3 -12    9.08    1.05
  -3   3 -12    9.38    1.06
  -3   3 -13   45.44    2.39
  -3   3 -13   42.00    2.26
  -3   3 -14    1.62    0.38
  -3   3 -14    2.13    0.50
  -3   3 -14    2.53    0.58
  -3   3 -15    6.16    0.88
  -3   3 -15    5.40    0.78
  -3   3 -15    7.51    0.89
  -3   3 -16    5.58    0.77
  -3   3 -16    4.97    0.76
  -3   3 -16    5.46    0.74
  -3   3 -17    5.39    0.79
  -3   3 -17    4.49    0.64
  -3   3 -17    5.28    0.74
  -3   3 -18    6.26    0.83
  -3   3 -18    6.32    0.73
  -3   3 -18    6.49    0.80
  -3   3 -19   -0.01    0.21
  -3   3 -19    0.07    0.14
  -3   3 -20    4.79    0.64
  -3   3 -20    4.77    0.56
  -3   3 -21    1.57    0.31
  -3   3 -21    1.26    0.29
  -3   3 -22    9.55    0.72
  -3   3 -23    5.46    0.47
  -3   4  23    0.85    0.18
  -3   4  22    1.39    0.27
   3   4 -22    1.36    0.23
   3   4 -21   11.71    0.76
  -3   4  21   12.06    0.87
  -3   4  20   39.99    1.73
  -3   4  19   63.40    2.35
  -3   4  18   63.74    2.48
  -3   4  17   18.52    1.39
  -3   4  16    5.03    0.76
  -3   4  15   26.49    1.76
  -3   4  14   51.63    2.35
  -3   4  14   46.84    2.36
   3   4 -13   52.91    2.34
  -3   4  13   50.45    2.37
  -3   4  12  105.93    3.35
  -3   4  12  102.08    3.42
  -3   4  11   22.22    1.54
   3   4 -11   20.85    1.39
   3   4 -10   23.91    1.47
  -3   4  10   22.00    1.49
  -3   4   9   33.47    1.87
  -3   4   9   33.09    1.77
  -3  -4   8   56.54    2.70
   3  -4  -8   54.10    1.76
  -3  -4   7    7.63    1.05
   3  -4  -7    5.54    0.53
  -3  -4   6    1.51    0.54
   3  -4  -6    0.99    0.22
  -3  -4   5    1.10    0.45
   3  -4  -5    0.73    0.19
  -3  -4   4   36.60    2.16
   3  -4  -4   24.55    0.98
  -3  -4   3    0.78    0.36
   3  -4  -3    0.12    0.08
  -3  -4   2   25.17    1.56
   3  -4  -2   17.03    0.83
  -3  -4   1  260.63    4.55
   3  -4  -1  230.90    3.11
   3  -4   0   62.14    1.65
   3  -4   1   38.58    1.37
   3  -4   2   12.81    0.82
   3  -4   3    1.74    0.30
   3  -4   4    3.23    0.41
  -3   4  -5    6.38    0.57
   3  -4   5    5.93    0.58
  -3   4  -6    8.33    0.69
   3  -4   6    8.83    0.74
  -3   4  -7   22.76    1.21
  -3   4  -8  163.86    3.98
  -3   4  -9   49.79    2.26
  -3   4 -10  117.50    3.61
  -3   4 -11   22.07    1.61
  -3   4 -12    2.93    0.59
  -3   4 -12    2.17    0.49
  -3   4 -13    4.68    0.73
  -3   4 -13    4.68    0.77
  -3   4 -14    1.41    0.41
  -3   4 -14    1.90    0.46
  -3   4 -15   13.88    1.23
  -3   4 -15   15.34    1.32
  -3   4 -15   13.59    1.17
  -3   4 -16   59.71    2.52
  -3   4 -16   57.02    2.39
  -3   4 -16   56.62    2.29
  -3   4 -17   26.95    1.62
  -3   4 -17   24.44    1.44
  -3   4 -17   24.76    1.48
  -3   4 -18   75.92    2.54
  -3   4 -18   74.13    2.33
  -3   4 -18   73.40    2.40
  -3   4 -19   30.26    1.49
  -3   4 -19   28.22    1.32
  -3   4 -20    7.75    0.68
  -3   4 -20    7.42    0.62
  -3   4 -21    1.73    0.28
  -3   4 -21    1.84    0.28
  -3   5  21    1.20    0.23
  -3   5  20   15.22    0.89
  -3   5  19    5.07    0.58
  -3   5  18   17.12    1.14
  -3   5  17   13.00    1.06
   3   5 -16    5.76    0.70
  -3   5  16    4.42    0.65
   3   5 -15    0.95    0.31
  -3   5  15    0.88    0.33
   3   5 -14    5.94    0.78
  -3   5  14    6.20    0.83
   3   5 -13    4.64    0.69
  -3   5  13    4.18    0.69
   3   5 -12   88.37    2.94
  -3   5  12   85.44    3.06
   3   5 -11   79.69    2.78
  -3   5  11   79.25    2.92
   3   5 -10    0.78    0.31
  -3   5  10    0.91    0.30
   3   5  -9    6.61    0.79
  -3   5   9    5.75    0.76
   3   5  -8   40.61    1.90
  -3   5   8   42.40    1.97
   3   5  -7   27.44    1.53
  -3   5   7   29.86    1.59
   3   5  -6    6.19    0.71
  -3   5   6    6.95    0.75
  -3  -5   6    6.22    0.73
  -3   5   5   40.34    1.92
   3   5  -5   33.95    1.67
  -3   5   5   37.80    1.68
  -3  -5   5   30.87    1.57
  -3   5   4  108.34    3.10
  -3  -5   4  108.60    2.93
  -3   5   3    0.01    0.11
   3   5  -3    0.00    0.20
  -3  -5   3    0.13    0.15
  -3   5   2   51.88    2.13
   3   5  -2   50.74    1.98
  -3  -5   2   47.74    1.94
  -3   5   1    4.32    0.61
  -3  -5   1    3.50    0.53
  -3   5   0   25.34    1.48
  -3  -5   0   20.90    1.31
  -3   5  -1    0.16    0.12
  -3  -5  -1    0.02    0.11
  -3   5  -2   47.38    2.03
  -3  -5  -2   40.66    1.86
  -3   5  -3    7.22    0.80
  -3  -5  -3    7.55    0.83
  -3   5  -4    2.44    0.50
  -3  -5  -4    2.97    0.53
  -3  -5  -5    3.54    0.61
  -3  -5  -6   58.05    2.44
  -3  -5  -7    1.61    0.40
  -3   5  -8   12.25    1.12
  -3  -5  -8   11.74    1.15
  -3   5  -9    4.76    0.72
  -3  -5  -9    4.94    0.74
  -3   5 -10   10.43    1.06
  -3  -5 -10   10.61    1.11
  -3   5 -11    0.31    0.22
  -3  -5 -11    0.33    0.18
  -3   5 -12    5.38    0.78
  -3   5 -13    0.55    0.28
  -3   5 -14   39.42    2.02
  -3   5 -15    5.04    0.67
  -3   5 -15    4.94    0.64
  -3   5 -16   14.41    1.06
  -3   5 -16   13.70    1.02
  -3   5 -17    2.88    0.44
  -3   5 -17    3.04    0.46
  -3   5 -18    0.25    0.18
  -3   5 -18    0.16    0.13
  -3   5 -19    0.11    0.11
   3  -6 -18   11.57    0.73
  -3   6  18   10.84    0.68
  -3   6  17    0.86    0.23
   3   6 -16   19.60    1.12
  -3   6  16   18.65    1.09
   3   6 -15    3.46    0.52
  -3   6  15    3.57    0.52
   3   6 -14   25.74    1.45
  -3   6  14   25.82    1.46
   3   6 -13    5.46    0.71
  -3   6  13    6.49    0.76
   3   6 -12    0.18    0.16
  -3   6  12   -0.02    0.16
   3   6 -11   18.56    1.30
  -3   6  11   19.59    1.35
   3   6 -10    5.29    0.71
   3   6  -9   19.95    1.36
   3   6  -8    1.87    0.44
   3   6  -7   20.89    1.41
   3   6  -6   91.38    2.89
   3   6  -5    2.32    0.50
  -3  -6   5    1.98    0.48
   3   6  -4   17.95    1.29
  -3  -6   4   18.18    1.26
   3   6  -3    3.60    0.59
  -3  -6   3    2.92    0.52
  -3   6   2    6.61    0.87
   3   6  -2    5.31    0.71
  -3  -6   2    4.65    0.67
   3   6  -1   18.08    1.32
  -3  -6   1   15.51    1.19
  -3   6   0   -0.16    0.20
   3   6   0   -0.16    0.22
  -3  -6   0    0.12    0.15
   3   6   1    6.41    0.79
  -3  -6  -1    7.34    0.83
  -3  -6  -2   40.53    1.98
  -3  -6  -3    3.73    0.61
  -3  -6  -4   25.02    1.60
  -3  -6  -5   29.38    1.77
  -3  -6  -6   54.43    2.43
  -3   6  -7    9.33    0.96
  -3  -6  -7    8.06    0.95
  -3   6  -8    6.17    0.79
  -3  -6  -8    6.32    0.84
  -3   6  -9   17.13    1.30
  -3  -6  -9   19.39    1.47
  -3   6 -10    5.96    0.76
  -3  -6 -10    8.95    0.99
  -3   6 -11   -0.04    0.18
  -3  -6 -11    0.13    0.19
  -3   6 -12   20.97    1.41
  -3  -6 -12   28.66    1.61
  -3   6 -13   27.16    1.54
  -3  -6 -13   36.66    1.69
  -3   6 -14   24.41    1.31
  -3   6 -14   23.47    1.31
  -3   6 -15    0.79    0.25
  -3   6 -15    0.64    0.23
  -3   6 -16   21.65    1.04
  -3   6 -16   19.52    0.98
  -3   6 -17   20.98    0.90
   3   7 -14    1.93    0.34
   3  -7 -14    2.16    0.33
   3   7 -13    8.33    0.73
   3  -7 -13    7.41    0.66
   3   7 -12    0.36    0.18
   3  -7 -12    0.31    0.17
   3   7 -11    0.38    0.16
   3  -7 -11    0.15    0.15
   3   7 -10   15.45    1.11
   3  -7 -10   16.96    1.09
   3   7  -9    4.59    0.63
   3   7  -8   25.36    1.49
   3   7  -7   51.07    2.14
   3   7  -6    0.88    0.36
   3   7  -5    5.41    0.73
   3   7  -4    6.04    0.79
   3   7  -3   17.93    1.34
  -3  -7   3   18.69    1.26
   3   7  -2    0.46    0.25
  -3  -7   2    0.22    0.15
   3   7  -1    1.12    0.36
  -3  -7   1    1.54    0.37
   3   7   0    1.53    0.42
  -3  -7   0    1.05    0.31
   3   7   1   16.89    1.37
  -3  -7  -1   16.85    1.26
   3   7   2    2.09    0.49
  -3  -7  -2    2.24    0.49
   3   7   3   13.61    1.24
  -3  -7  -3   14.48    1.19
   3   7   4    0.24    0.26
  -3  -7  -4    0.18    0.19
   3   7   5    7.45    0.93
  -3  -7  -5    5.29    0.74
  -3   7  -6   18.41    1.27
   3   7   6   22.12    1.56
  -3  -7  -6   20.69    1.43
   3   7   7    2.77    0.55
  -3   7  -7    2.02    0.43
  -3  -7  -7    2.26    0.49
   3   7   8    0.39    0.24
  -3   7  -8    0.26    0.15
  -3  -7  -8    0.13    0.16
  -3   7  -9    0.54    0.16
   3   7   9    0.72    0.26
  -3  -7  -9    0.75    0.27
  -3   7 -10    4.14    0.58
   3   7  10    6.08    0.71
  -3  -7 -10    5.63    0.67
  -3   7 -11   13.22    0.98
  -3  -7 -11   17.48    1.12
  -3   7 -12    1.62    0.33
  -3  -7 -12    2.06    0.36
  -3   7 -13    3.42    0.42
  -3   7 -13    3.99    0.43
   3   8 -10   16.40    0.92
   3   8  -9   23.28    1.18
   3   8  -8   22.79    1.22
   3   8  -7   21.13    1.22
   3   8  -6   18.62    1.18
   3   8  -5    3.22    0.53
   3   8  -4   10.42    0.93
   3   8  -3   -0.20    0.19
   3   8  -2    0.75    0.27
   3   8  -1    5.66    0.72
   3   8   0    0.66    0.25
   3   8   1    0.05    0.16
  -3  -8  -1   -0.18    0.22
   3   8   2    0.54    0.23
  -3  -8  -2    0.90    0.29
   3   8   3   11.34    1.02
  -3   8  -3    9.34    0.85
  -3  -8  -3   11.01    0.93
  -3   8  -4   44.91    1.80
  -3  -8  -4   44.58    1.84
  -3   8  -5    2.60    0.43
   3   8   5    2.49    0.47
  -3  -8  -5    3.19    0.51
  -3   8  -6   20.90    1.17
  -3  -8  -6   22.52    1.25
  -3   8  -7    4.83    0.55
  -3  -8  -7    5.90    0.61
  -3   8  -8    8.02    0.68
  -3  -8  -8    9.13    0.73
  -4   0  24   10.94    0.73
  -4   0  23    0.07    0.15
  -4   0  22   66.48    2.14
  -4   0  21    0.06    0.19
  -4   0  20    0.84    0.28
  -4   0  19    0.10    0.15
  -4   0  18  268.33    5.13
  -4   0  17    0.83    0.39
  -4   0  16  223.88    4.83
  -4   0  15    0.06    0.20
  -4   0  14   13.47    1.18
  -4   0  13    0.04    0.11
  -4   0  12    0.64    0.27
  -4   0  12    0.54    0.21
  -4   0  11   -0.01    0.09
  -4   0  11    0.01    0.14
  -4   0  10  111.87    3.02
  -4   0  10  122.97    3.11
  -4   0   9    0.30    0.24
  -4   0   9    1.97    0.43
  -4   0   8  166.05    3.53
  -4   0   8  189.31    3.59
  -4   0   7    0.15    0.15
  -4   0   7   -0.01    0.13
  -4   0   6   26.68    1.14
  -4   0   6   26.67    1.34
  -4   0   5   -0.03    0.07
  -4   0   5    0.14    0.20
  -4   0   4  118.63    2.62
  -4   0   4  136.35    2.79
  -4   0   3    0.34    0.16
  -4   0   3    0.13    0.12
  -4   0   2    9.35    0.79
  -4   0   2    9.72    0.67
  -4   0   1    0.14    0.15
  -4   0   1    1.66    0.27
  -4   0   0    1.10    0.30
  -4   0  -1    0.18    0.09
  -4   0  -1    0.14    0.19
  -4   0  -2    2.74    0.30
  -4   0  -2    3.49    0.50
  -4   0  -3    0.12    0.12
  -4   0  -3    0.02    0.11
  -4   0  -4  129.34    2.31
  -4   0  -4  132.13    2.98
  -4   0  -5    0.07    0.08
  -4   0  -5    0.14    0.13
  -4   0  -6   24.06    1.10
  -4   0  -6   26.61    1.18
  -4   0  -7    0.24    0.16
  -4   0  -7    0.13    0.10
  -4   0  -8   27.72    1.25
  -4   0  -8   33.95    1.46
  -4   0  -9    0.20    0.18
  -4   0  -9    0.13    0.14
  -4   0 -10   13.82    0.99
  -4   0 -10   13.03    0.99
  -4   0 -11    0.38    0.22
  -4   0 -12  111.89    3.78
  -4   0 -13    0.27    0.26
  -4   0 -14    6.24    0.94
  -4   0 -15    0.09    0.15
  -4   0 -16    1.96    0.53
  -4   0 -17   -0.10    0.29
  -4   0 -18    0.59    0.27
  -4   0 -19   -0.35    0.34
  -4   0 -20    7.16    0.78
  -4   0 -21    0.29    0.18
  -4   0 -22    1.07    0.23
  -4   1  24    1.78    0.30
  -4  -1  24    1.72    0.28
  -4   1  23   11.13    0.81
  -4  -1  23   10.97    0.78
  -4   1  22   19.37    1.15
  -4  -1  22   20.84    1.18
  -4   1  21    0.48    0.20
  -4  -1  21    0.34    0.20
  -4   1  21    0.50    0.21
  -4   1  20    0.88    0.28
  -4  -1  20    0.70    0.25
  -4   1  20    1.44    0.37
  -4   1  19    7.50    0.84
  -4  -1  19    9.93    0.99
  -4   1  19   11.15    1.05
  -4   1  18   56.21    2.30
  -4  -1  18   65.57    2.60
  -4   1  18   62.40    2.61
  -4   1  17   56.21    2.34
  -4  -1  17   56.02    2.47
  -4   1  17   60.89    2.66
  -4   1  16  147.39    3.82
  -4  -1  16  146.23    4.01
  -4   1  16  154.57    4.34
  -4   1  15  148.88    3.92
  -4   1  15  145.75    4.25
  -4   1  14   35.84    1.88
  -4   1  14   30.57    1.75
  -4   1  14   31.51    1.95
  -4   1  13    1.83    0.44
  -4   1  13    1.56    0.44
  -4   1  13    1.92    0.51
  -4   1  12   68.91    2.56
  -4  -1  12   66.79    2.37
  -4  -1  11    0.19    0.17
  -4   1  11    0.08    0.12
  -4  -1  10    4.62    0.62
  -4   1  10    5.24    0.67
  -4   1  10    4.72    0.60
  -4   1   9  112.33    2.99
  -4  -1   9  115.77    3.09
  -4   1   8    2.34    0.42
  -4  -1   8    2.67    0.48
  -4   1   8    2.44    0.43
  -4   1   7  246.77    4.04
  -4  -1   7  230.10    4.20
  -4   1   6    0.72    0.23
  -4  -1   6    0.52    0.20
  -4  -1   6    0.36    0.24
  -4  -1   5   64.17    2.07
  -4   1   5   63.68    1.83
  -4  -1   5   61.31    2.00
  -4  -1   4   34.11    1.55
  -4  -1   4   33.77    1.41
  -4   1   4   35.53    1.26
  -4  -1   3   20.84    1.24
  -4  -1   3   21.77    1.08
  -4  -1   2    9.45    0.85
  -4  -1   2    9.83    0.70
  -4  -1   1   85.89    1.96
  -4  -1   1   80.39    2.51
  -4  -1   0    6.46    0.72
  -4  -1   0    7.40    0.56
  -4  -1   0    6.61    0.43
  -4  -1  -1  144.91    3.41
  -4  -1  -1  148.45    2.26
  -4  -1  -2    2.23    0.28
  -4  -1  -2    3.07    0.51
  -4  -1  -2    3.14    0.32
  -4   1  -3  257.79    3.20
  -4  -1  -3  264.51    4.51
  -4   1  -4   15.28    0.78
  -4  -1  -4   15.17    0.76
  -4  -1  -4   17.96    1.14
  -4   1  -4   17.68    0.91
  -4   1  -5    0.47    0.16
  -4  -1  -5    0.41    0.15
  -4  -1  -5    0.70    0.24
  -4   1  -5    1.11    0.26
  -4  -1  -6  128.20    3.02
  -4   1  -6  123.77    2.61
  -4   1  -7   23.73    1.11
  -4  -1  -7   27.72    1.33
  -4   1  -7   26.55    1.26
  -4   1  -8   41.18    1.59
  -4  -1  -8   41.53    1.57
  -4   1  -8   39.86    1.62
  -4   1  -9  153.04    3.19
  -4   1  -9  145.54    3.27
  -4   1 -10   61.70    2.14
  -4   1 -10   64.04    2.27
  -4   1 -11  226.80    4.94
  -4   1 -11  219.32    5.19
  -4  -1 -12   24.70    1.71
  -4   1 -12   24.05    1.79
  -4   1 -12   25.08    1.67
  -4  -1 -13    8.66    1.03
  -4   1 -13    7.12    1.01
  -4   1 -13    9.77    1.03
  -4  -1 -14   56.81    2.69
  -4   1 -14   50.73    2.69
  -4   1 -14   53.92    2.37
  -4  -1 -15   15.61    1.41
  -4   1 -15   15.57    1.49
  -4  -1 -16    5.63    0.85
  -4   1 -16    5.60    0.88
  -4  -1 -17   80.95    3.06
  -4   1 -17   72.08    3.05
  -4  -1 -18    0.31    0.23
  -4   1 -18    0.64    0.29
  -4   1 -19   21.16    1.48
  -4   1 -20   16.32    1.21
  -4   1 -21   14.75    1.04
  -4   1 -22   -0.10    0.17
  -4   1 -23    0.90    0.19
  -4  -2  23   46.45    1.45
  -4   2  23   45.52    1.48
  -4   2  22    8.52    0.72
  -4  -2  22    8.84    0.73
  -4   2  22    8.72    0.74
  -4   2  21    1.97    0.39
  -4  -2  21    1.89    0.38
  -4   2  21    1.92    0.41
  -4   2  20   21.63    1.31
  -4  -2  20   21.97    1.36
  -4   2  20   22.86    1.43
  -4  -2  19  132.49    3.53
  -4   2  19  128.30    3.57
  -4   2  18   16.27    1.20
  -4  -2  18   14.68    1.27
  -4   2  18   15.63    1.32
  -4   2  17    4.04    0.62
  -4  -2  17    4.67    0.73
  -4   2  17    4.54    0.75
  -4   2  16   10.48    1.02
  -4   2  16   10.14    1.11
  -4   2  15   92.21    3.07
  -4   2  15   84.57    3.25
  -4   2  14   30.97    1.79
  -4   2  14   26.20    1.80
  -4   2  13    2.15    0.47
  -4   2  13    1.13    0.36
  -4   2  12    1.10    0.33
  -4   2  12    0.77    0.24
  -4   2  12    0.72    0.29
  -4   2  11   17.37    1.34
  -4  -2  11   16.65    1.25
  -4  -2  10   15.63    1.21
  -4   2  10   16.25    1.28
  -4   2   9    1.73    0.42
  -4  -2   9    1.53    0.37
  -4   2   8   49.02    2.05
  -4  -2   8   45.89    2.03
  -4   2   7    0.38    0.23
  -4  -2   7    0.10    0.16
  -4   2   6  101.16    2.61
  -4  -2   6   95.89    2.82
  -4  -2   5    1.16    0.33
  -4   2   5    1.12    0.26
  -4   2   4   14.32    0.83
  -4  -2   4   12.73    0.97
  -4  -2   3   12.29    0.89
  -4  -2   2    1.33    0.29
  -4  -2   1  105.70    2.31
   4  -2  -1  125.19    1.92
  -4  -2   0    0.36    0.15
   4  -2   0    0.35    0.10
  -4  -2  -1    5.13    0.45
  -4  -2  -2   93.84    1.78
  -4  -2  -3   41.69    1.23
  -4  -2  -4   19.39    0.91
  -4   2  -4   20.86    1.05
  -4  -2  -5    0.85    0.28
  -4   2  -5    0.62    0.22
  -4  -2  -6    0.16    0.16
  -4   2  -6    0.42    0.17
  -4  -2  -7    3.89    0.54
  -4   2  -7    2.93    0.44
  -4   2  -8    3.39    0.48
  -4  -2  -8    3.63    0.51
  -4   2  -8    3.84    0.53
  -4   2  -9   45.13    1.76
  -4   2  -9   47.65    1.94
  -4   2 -10    2.95    0.60
  -4   2 -10    3.88    0.66
  -4   2 -11   31.76    1.98
  -4   2 -11   36.65    2.12
  -4   2 -12   29.80    1.88
  -4   2 -12   31.17    2.02
  -4   2 -13   12.73    1.21
  -4   2 -13   12.88    1.32
  -4   2 -14   70.87    2.79
  -4   2 -14   69.02    3.09
  -4   2 -15    9.75    1.18
  -4   2 -15    9.76    1.02
  -4   2 -16    3.76    0.70
  -4   2 -16    3.43    0.61
  -4   2 -17   16.61    1.41
  -4   2 -18   26.71    1.72
  -4   2 -19    0.74    0.30
  -4   2 -20   10.79    0.94
  -4   2 -21    0.30    0.17
  -4   2 -22    0.16    0.10
  -4   3  23    5.04    0.46
  -4   3  22   65.04    1.86
  -4  -3  21   21.90    1.10
  -4   3  21   22.83    1.24
  -4  -3  20   52.34    1.91
  -4   3  20   49.53    1.98
  -4   3  19   12.99    0.99
  -4  -3  19   11.32    0.96
  -4   3  19   13.03    1.10
  -4   3  18    0.48    0.19
  -4  -3  18    0.94    0.26
  -4   3  18    0.71    0.31
  -4   3  17    1.76    0.42
  -4   3  17    2.07    0.46
  -4   3  16    2.51    0.49
  -4   3  16    1.66    0.45
  -4   3  15    1.97    0.45
  -4   3  15    1.06    0.36
  -4   3  14    9.13    1.00
  -4   3  14    8.63    1.04
  -4   3  13   70.66    2.74
  -4   3  13   62.31    2.77
  -4   3  12  120.89    3.54
  -4   3  12   98.91    3.46
  -4   3  11   20.84    1.54
  -4   3  10  119.85    3.76
  -4   3  10  120.44    3.56
  -4   3   9   23.56    1.68
  -4   3   9   22.78    1.49
  -4   3   8   10.78    1.00
  -4  -3   8   10.93    1.09
  -4  -3   7   27.41    1.72
  -4  -3   6    3.82    0.63
  -4  -3   5   35.80    1.88
  -4  -3   4  149.21    3.65
  -4  -3   3   50.66    2.01
  -4  -3   2   65.90    2.18
   4  -3  -2   60.44    1.48
  -4  -3   1   17.12    1.04
   4  -3  -1   15.45    0.77
   4  -3   0   12.59    0.73
   4  -3   1   76.20    1.80
   4  -3   2   27.55    1.08
   4  -3   3    0.32    0.15
  -4   3  -4  136.07    2.75
  -4   3  -5   65.91    2.00
  -4   3  -6  123.09    2.82
  -4   3  -7   14.39    1.00
  -4   3  -8   16.04    1.34
  -4   3  -8   16.54    1.26
  -4  -3  -8   12.93    1.01
  -4   3  -9   73.26    2.97
  -4   3  -9   76.09    2.79
  -4   3 -10    4.35    0.75
  -4   3 -10    4.88    0.75
  -4   3 -11   10.63    1.18
  -4   3 -11   11.13    1.16
  -4   3 -12    7.90    0.99
  -4   3 -12    8.28    1.03
  -4   3 -13   26.64    1.79
  -4   3 -13   25.30    1.79
  -4   3 -14   44.08    2.23
  -4   3 -14   39.95    2.24
  -4   3 -15   37.65    1.99
  -4   3 -15   40.72    2.23
  -4   3 -16   17.94    1.45
  -4   3 -16   17.90    1.33
  -4   3 -17    0.41    0.25
  -4   3 -17    0.19    0.17
  -4   3 -18    3.61    0.59
  -4   3 -19   15.54    1.12
  -4   3 -20    0.59    0.24
  -4   3 -21    0.57    0.19
  -4   4  22    1.02    0.21
  -4   4  21    0.59    0.22
  -4   4  20   47.04    1.73
  -4  -4  19   35.28    1.45
  -4   4  19   36.38    1.67
  -4  -4  18    6.29    0.69
  -4   4  18    6.29    0.76
  -4   4  17    3.00    0.53
  -4   4  16    2.65    0.52
  -4   4  15    3.65    0.66
  -4   4  14   11.43    1.05
  -4   4  14    9.15    1.05
  -4   4  13   10.39    1.04
  -4   4  13    8.64    1.03
  -4   4  12    1.72    0.44
  -4   4  12    0.35    0.27
  -4   4  11    0.53    0.27
  -4   4  11    0.48    0.27
  -4   4  10   10.44    1.05
  -4   4  10    9.43    1.01
  -4   4   9   18.44    1.38
  -4   4   9   18.62    1.37
  -4   4   8    7.30    0.85
   4   4  -8    7.67    0.79
  -4   4   8    7.25    0.83
  -4   4   7    0.59    0.24
   4   4  -7    0.30    0.11
  -4   4   7    0.50    0.19
  -4   4   6    1.71    0.38
   4   4  -6    2.18    0.42
  -4   4   6    1.90    0.40
  -4   4   5    3.87    0.59
   4   4  -5    4.00    0.55
  -4   4   5    3.58    0.53
  -4   4   4    2.28    0.44
  -4  -4   4    2.11    0.50
  -4  -4   4    1.58    0.37
  -4   4   4    2.14    0.39
  -4  -4   3   28.90    1.70
   4  -4  -2    5.33    0.48
   4  -4  -1   28.65    1.15
   4  -4   0   35.74    1.32
   4  -4   1    6.83    0.60
  -4   4  -2    7.93    0.76
   4  -4   2    6.80    0.63
  -4   4  -3    1.23    0.32
  -4   4  -4   16.86    1.16
  -4  -4  -4   16.51    1.24
  -4   4  -5    3.49    0.54
  -4   4  -6    0.19    0.24
  -4   4  -6   -0.07    0.19
  -4   4  -7   17.99    1.42
  -4   4  -8    9.16    1.02
  -4   4  -9    1.52    0.45
  -4   4 -10   25.71    1.76
  -4   4 -11   62.92    2.79
  -4   4 -11   70.87    2.79
  -4   4 -12   19.21    1.54
  -4   4 -12   19.79    1.50
  -4   4 -13   54.47    2.51
  -4   4 -13   54.99    2.49
  -4   4 -14   12.99    1.18
  -4   4 -14   12.57    1.17
  -4   4 -15    2.88    0.53
  -4   4 -15    2.34    0.48
  -4   4 -16   -0.02    0.18
  -4   4 -16   -0.16    0.32
  -4   4 -17    8.10    0.83
  -4   4 -17    7.99    0.79
  -4   4 -18    3.34    0.49
  -4   4 -19    1.12    0.27
  -4   5  20   25.41    1.02
  -4   5  19    1.74    0.31
  -4   5  18   20.39    1.15
  -4   5  17    6.03    0.68
  -4   5  16    1.06    0.29
  -4   5  15    9.91    0.96
  -4   5  14    2.39    0.49
  -4   5  13   15.68    1.28
   4   5 -12   17.62    1.28
  -4   5  12   15.88    1.29
   4   5 -11   46.47    2.06
  -4   5  11   38.62    2.05
  -4   5  10   33.69    1.89
   4   5 -10   34.65    1.79
  -4   5  10   31.14    1.81
  -4   5   9    0.62    0.25
   4   5  -9    0.36    0.19
  -4   5   9    0.42    0.23
  -4   5   8   36.40    1.98
   4   5  -8   33.77    1.74
  -4   5   8   33.57    1.81
  -4   5   7    8.80    0.97
   4   5  -7    9.14    0.90
  -4   5   7    8.02    0.86
  -4   5   6   29.72    1.76
   4   5  -6   30.74    1.63
  -4   5   6   29.34    1.59
  -4   5   5   14.27    1.21
   4   5  -5   13.92    1.10
  -4   5   5   13.54    1.05
  -4   5   4   39.99    1.97
   4   5  -4   36.96    1.79
  -4   5   4   38.39    1.74
  -4  -5   4   34.94    1.77
  -4   5   3   24.32    1.52
   4   5  -3   23.17    1.40
  -4   5   3   24.37    1.36
  -4  -5   3   22.62    1.45
  -4   5   2   33.55    1.76
   4   5  -2   36.59    1.73
  -4   5   2   32.84    1.55
  -4  -5   2   31.16    1.70
  -4   5   1   10.44    0.98
  -4   5   1    8.92    0.80
  -4  -5   1    9.32    0.94
  -4   5   0    4.14    0.64
  -4   5   0    4.98    0.59
  -4  -5   0    3.32    0.59
  -4   5  -1   22.61    1.44
  -4  -5  -1   23.45    1.53
  -4   5  -2   31.12    1.70
  -4  -5  -2   28.87    1.73
  -4   5  -3    0.19    0.20
  -4  -5  -3    0.49    0.27
  -4   5  -4   18.85    1.34
  -4  -5  -4   21.01    1.51
  -4  -5  -5   27.64    1.77
  -4   5  -6  105.26    3.34
  -4  -5  -6  106.45    3.50
  -4   5  -7   32.09    1.86
  -4  -5  -7   37.13    2.08
  -4   5  -8   25.29    1.66
  -4   5  -9    0.55    0.29
  -4   5 -10    5.31    0.79
  -4   5 -11    2.50    0.55
  -4   5 -12   21.97    1.55
  -4   5 -13   23.90    1.53
  -4   5 -14   23.85    1.44
  -4   5 -15    0.42    0.21
  -4   5 -16    1.68    0.35
  -4   5 -17    2.70    0.39
   4  -6 -17    3.80    0.39
  -4   6  16    0.90    0.22
   4  -6 -16    0.89    0.22
  -4   6  15    3.30    0.46
   4   6 -14   21.08    1.16
  -4   6  14   20.49    1.21
   4   6 -13    1.27    0.32
  -4   6  13    1.60    0.35
   4   6 -12   -0.08    0.15
  -4   6  12    0.10    0.15
   4   6 -11    2.07    0.42
  -4   6  11    2.51    0.49
   4   6 -10    4.61    0.62
  -4   6  10    4.69    0.66
   4   6  -9    7.62    0.81
  -4   6   9    8.30    0.86
   4   6  -8    2.07    0.46
  -4   6   8    2.66    0.49
   4   6  -7   14.75    1.15
  -4   6   7   15.23    1.14
  -4   6   6   11.89    1.16
   4   6  -6   10.35    0.97
  -4   6   6    9.99    0.90
  -4   6   5    2.23    0.51
   4   6  -5    1.74    0.42
  -4   6   4   -0.16    0.19
   4   6  -4    0.16    0.21
  -4   6   3   15.54    1.33
   4   6  -3   16.11    1.23
  -4  -6   3   12.35    1.10
  -4   6   2   22.70    1.61
   4   6  -2   19.94    1.38
  -4  -6   2   20.89    1.43
  -4   6   1    0.39    0.29
   4   6  -1    0.82    0.25
  -4  -6   1    0.10    0.15
  -4   6   0    0.85    0.35
   4   6   0    0.72    0.29
  -4  -6   0    0.68    0.30
  -4   6  -1    0.12    0.19
   4   6   1    0.00    0.18
  -4  -6  -1    0.31    0.26
  -4  -6  -2   23.56    1.61
  -4  -6  -3    3.18    0.60
  -4  -6  -4    0.92    0.37
  -4   6  -5   18.96    1.40
  -4  -6  -5   22.30    1.59
  -4   6  -6   15.97    1.28
  -4  -6  -6   15.00    1.31
  -4   6  -7   18.71    1.37
  -4  -6  -7   19.72    1.49
  -4   6  -8    0.90    0.33
  -4  -6  -8    1.71    0.45
  -4   6  -9   15.11    1.23
  -4  -6  -9   18.54    1.38
  -4   6 -10   12.37    1.10
  -4   6 -11    0.61    0.27
  -4   6 -12   11.36    0.96
  -4   6 -13    3.18    0.48
  -4   6 -14    2.63    0.40
  -4   6 -15    1.63    0.29
   4   7 -12    0.26    0.14
   4   7 -11    2.84    0.41
   4   7 -10   13.08    0.94
   4   7  -9    1.09    0.30
   4   7  -8   18.43    1.17
   4   7  -7    4.34    0.60
   4   7  -6   58.33    2.19
   4   7  -5    0.13    0.15
   4   7  -4   -0.19    0.25
   4   7  -3    4.11    0.61
   4   7  -2    1.62    0.41
   4   7  -1    8.22    0.90
   4   7   0   12.24    1.11
  -4  -7   0   11.19    1.04
   4   7   1   17.34    1.32
  -4  -7  -1   15.97    1.25
   4   7   2   30.54    1.76
  -4  -7  -2   29.71    1.71
   4   7   3    1.60    0.46
  -4  -7  -3    1.28    0.39
  -4   7  -4   11.11    1.01
   4   7   4   11.88    1.09
  -4  -7  -4   12.90    1.14
  -4   7  -5    2.61    0.49
   4   7   5    3.57    0.62
  -4  -7  -5    3.09    0.55
  -4   7  -6    5.70    0.70
   4   7   6    7.54    0.87
  -4  -7  -6    6.16    0.77
   4   7   7    4.81    0.68
  -4   7  -7    4.14    0.62
  -4  -7  -7    5.27    0.70
  -4   7  -8   13.54    1.04
   4   7   8   16.54    1.20
  -4  -7  -8   16.78    1.17
   4   7   9   11.59    0.95
  -4  -7  -9   12.62    0.95
  -4   7 -10   16.11    1.04
   4   7  10   22.05    1.21
  -4   7 -11   -0.02    0.11
   4   7  11    0.28    0.18
   4   8  -6    2.91    0.42
   4   8  -5   21.26    1.15
   4   8  -4    0.16    0.14
   4   8  -3    0.45    0.19
   4   8  -2    2.07    0.39
  -4   8   1    2.26    0.40
   4   8  -1    1.76    0.35
  -4   8   0    2.34    0.42
   4   8   0    2.75    0.46
  -4   8  -1    0.76    0.26
   4   8   1    0.92    0.29
  -4   8  -2   -0.06    0.15
   4   8   2   -0.10    0.19
  -4   8  -3    1.64    0.34
   4   8   3    1.53    0.35
  -4   8  -4   19.16    1.12
   4   8   4   21.38    1.21
  -4   8  -5    6.27    0.63
  -5   0  23    5.74    0.53
  -5   0  22   -0.02    0.13
  -5   0  21   21.72    1.21
  -5   0  20   -0.01    0.18
  -5   0  19   50.06    2.06
  -5   0  18    0.90    0.27
  -5   0  17   65.57    2.52
  -5   0  16    0.24    0.21
  -5   0  15    1.39    0.40
  -5   0  14   -0.06    0.17
  -5   0  13   97.01    3.15
  -5   0  12   -0.19    0.21
  -5   0  11   97.00    3.08
  -5   0  10    0.15    0.15
  -5   0   9   79.50    2.69
  -5   0   8    0.04    0.18
  -5   0   7   35.03    1.73
  -5   0   6    0.17    0.16
  -5   0   5   36.89    1.65
  -5   0   4    0.03    0.11
  -5   0   3  138.29    3.43
  -5   0   2   -0.01    0.15
  -5   0   1  307.65    5.41
  -5   0   0    0.06    0.15
  -5   0  -1    6.08    0.77
  -5   0  -2    0.10    0.17
  -5   0  -3   -0.01    0.10
  -5   0  -4    0.00    0.09
  -5   0  -5   76.89    2.04
  -5   0  -6    0.04    0.09
  -5   0  -7   73.07    2.22
  -5   0  -8   -0.23    0.24
  -5   0  -9   56.00    2.57
  -5   0 -10    0.24    0.23
  -5   0 -11    0.81    0.36
  -5   0 -12    0.18    0.16
  -5   0 -13    2.29    0.45
  -5   0 -13    2.61    0.60
  -5   0 -14   -0.11    0.20
  -5   0 -14   -0.01    0.23
  -5   0 -15   30.90    2.05
  -5   0 -16    0.03    0.20
  -5   0 -17  184.40    4.60
  -5   0 -18    0.26    0.21
  -5   0 -19    2.22    0.42
  -5   0 -20   -0.11    0.15
  -5   0 -21    0.36    0.14
  -5   1  23    2.03    0.30
  -5  -1  23    1.90    0.30
  -5  -1  22    2.12    0.35
  -5   1  22    1.84    0.33
  -5   1  21   20.70    1.14
  -5  -1  21   22.54    1.23
  -5   1  20   16.58    1.09
  -5  -1  20   15.35    1.09
  -5   1  19   32.72    1.61
  -5  -1  19   34.82    1.75
  -5   1  18    0.80    0.34
  -5  -1  18    0.75    0.34
  -5   1  17   29.70    1.65
  -5  -1  17   30.24    1.79
  -5   1  16   18.19    1.32
  -5  -1  16   17.29    1.38
  -5   1  16   20.36    1.55
  -5   1  15    2.98    0.56
  -5   1  15    3.00    0.56
  -5   1  15    2.59    0.57
  -5   1  14   17.30    1.38
  -5   1  14   18.68    1.40
  -5   1  14   18.95    1.54
  -5   1  13    0.22    0.11
  -5   1  13    0.13    0.17
  -5   1  12    5.63    0.78
  -5   1  12    5.91    0.81
  -5   1  12    5.86    0.84
  -5   1  11   11.28    1.09
  -5   1  11   11.24    1.12
  -5   1  11   11.39    1.14
  -5   1  10   38.70    1.99
  -5   1  10   40.57    2.12
  -5   1  10   44.43    2.17
  -5   1   9    0.58    0.27
  -5   1   9    0.44    0.27
  -5  -1   9    0.61    0.29
  -5  -1   8   83.88    2.88
  -5  -1   7    6.15    0.77
  -5  -1   6    0.24    0.14
  -5  -1   6    0.95    0.32
  -5  -1   5   26.12    1.49
  -5  -1   5   27.15    1.53
  -5  -1   4   38.41    1.89
  -5  -1   4   41.22    1.83
  -5  -1   3   23.46    1.54
  -5  -1   3   22.89    1.27
  -5  -1   2    0.25    0.22
  -5  -1   2    0.17    0.14
  -5  -1   1    6.21    0.83
  -5  -1   1    7.08    0.64
  -5  -1   0   48.85    2.35
  -5  -1   0   48.85    1.59
  -5  -1  -1   21.90    1.56
  -5  -1  -2   39.81    1.32
  -5  -1  -2   47.49    2.28
  -5  -1  -3    0.88    0.20
  -5  -1  -3    0.61    0.26
  -5  -1  -4    0.20    0.15
  -5  -1  -4   -0.03    0.13
  -5  -1  -5   83.00    2.67
  -5  -1  -5   76.35    2.09
  -5   1  -6    9.01    0.77
  -5  -1  -6   10.45    0.83
  -5  -1  -6   10.19    0.91
  -5  -1  -7    8.66    0.81
  -5  -1  -7    9.54    0.88
  -5   1  -8   12.04    1.23
  -5  -1  -8   10.60    1.04
  -5   1  -8   10.13    1.07
  -5  -1  -8   11.14    1.06
  -5   1  -9    0.52    0.34
  -5  -1  -9    0.47    0.25
  -5  -1  -9    0.80    0.31
  -5   1  -9    0.90    0.38
  -5  -1 -10   90.12    3.28
  -5   1 -10   83.86    3.29
  -5  -1 -10   91.49    3.03
  -5   1 -10   92.83    3.37
  -5   1 -11    0.11    0.18
  -5  -1 -11   -0.17    0.19
  -5  -1 -11    0.25    0.22
  -5   1 -11    0.19    0.21
  -5   1 -12    0.55    0.30
  -5  -1 -12    1.35    0.40
  -5   1 -12    0.52    0.29
  -5  -1 -13    0.28    0.20
  -5   1 -13    0.21    0.22
  -5  -1 -14   32.28    2.03
  -5   1 -14   27.87    2.00
  -5  -1 -15   27.81    1.85
  -5   1 -15   23.81    1.81
  -5   1 -16    0.20    0.13
  -5  -1 -16    0.15    0.17
  -5  -1 -17    1.27    0.40
  -5   1 -17    1.23    0.45
  -5   1 -18   51.42    2.28
  -5   1 -19   38.14    1.79
  -5   1 -20   32.17    1.46
  -5   1 -21    3.84    0.44
  -5   2  22   16.08    0.85
  -5  -2  22   17.13    0.90
  -5   2  22   16.93    0.83
  -5   2  21    3.06    0.41
  -5  -2  21    2.66    0.41
  -5   2  21    3.24    0.43
  -5  -2  20    2.61    0.47
  -5   2  20    2.19    0.39
  -5   2  19   85.23    2.50
  -5  -2  19   89.49    2.75
  -5   2  19   92.77    2.79
  -5   2  18   12.13    0.98
  -5  -2  18   12.05    1.09
  -5   2  18   11.94    1.08
  -5   2  17   14.70    1.13
  -5  -2  17   13.24    1.19
  -5   2  17   12.79    1.18
  -5   2  16   51.02    2.19
  -5   2  16   50.56    2.45
  -5   2  15   25.08    1.57
  -5   2  15   23.23    1.71
  -5   2  14   22.13    1.50
  -5   2  14   17.22    1.50
  -5   2  13   28.47    1.80
  -5   2  13   33.61    1.87
  -5   2  13   29.21    1.93
  -5   2  12    5.78    0.82
  -5   2  12    7.79    0.91
  -5   2  12    6.71    0.91
  -5   2  11   83.47    3.11
  -5   2  11   86.66    3.21
  -5   2  10   28.03    1.79
  -5   2  10   26.83    1.73
  -5   2   9    1.48    0.43
  -5   2   9    1.40    0.40
  -5   2   8  107.29    3.50
  -5   2   8  129.06    3.52
  -5  -2   7   15.20    1.25
  -5  -2   6   68.69    2.54
  -5  -2   6   66.23    2.56
  -5  -2   5    3.63    0.63
  -5  -2   5    2.94    0.53
  -5  -2   4    0.39    0.28
  -5  -2   4    0.27    0.13
  -5  -2   3  117.59    3.68
  -5  -2   3  116.21    3.00
  -5  -2   2   35.30    2.07
  -5  -2   2   41.85    1.73
  -5  -2   1   98.98    3.50
  -5  -2   1  101.66    2.62
  -5  -2   0   37.74    2.16
  -5  -2   0   41.88    1.53
  -5  -2  -1   21.56    1.63
  -5  -2  -2   37.53    2.13
  -5  -2  -3   44.68    2.25
  -5  -2  -4   95.28    3.16
  -5  -2  -5   16.68    1.32
  -5  -2  -6    4.13    0.54
  -5  -2  -6    4.04    0.65
  -5   2  -6    4.88    0.69
  -5   2  -7   38.10    2.31
  -5   2  -7   36.37    1.95
  -5  -2  -7   34.90    1.90
  -5   2  -8    1.03    0.37
  -5  -2  -8    1.28    0.40
  -5   2  -8    1.21    0.36
  -5   2  -9   30.16    2.03
  -5   2  -9   28.69    1.87
  -5  -2  -9   29.95    1.74
  -5   2 -10    0.34    0.26
  -5   2 -10    0.24    0.16
  -5   2 -11    4.25    0.76
  -5   2 -11    3.23    0.66
  -5   2 -12   85.79    3.18
  -5   2 -12   76.84    3.26
  -5   2 -13    0.70    0.32
  -5   2 -13    0.68    0.33
  -5   2 -14    6.09    0.91
  -5   2 -14    6.48    0.85
  -5   2 -15   52.67    2.61
  -5   2 -16   37.26    2.12
  -5   2 -17   14.99    1.27
  -5   2 -18    0.94    0.30
  -5   2 -19    5.27    0.64
  -5   2 -20   36.04    1.45
  -5   2 -21    0.06    0.11
  -5  -3  21    0.24    0.14
  -5   3  21    0.05    0.09
  -5   3  20    9.41    0.66
  -5  -3  20    9.70    0.76
  -5   3  20    9.64    0.78
  -5   3  19   25.66    1.27
  -5  -3  19   25.02    1.35
  -5   3  19   25.77    1.39
  -5   3  18    8.97    0.80
  -5  -3  18   10.24    0.95
  -5   3  18   10.17    0.96
  -5   3  17    2.73    0.56
  -5   3  17    2.47    0.44
  -5   3  16    0.55    0.26
  -5   3  16    1.07    0.34
  -5   3  15    0.33    0.21
  -5   3  15    0.27    0.24
  -5   3  14   10.01    1.12
  -5   3  13   29.79    1.93
  -5   3  12   20.90    1.62
  -5   3  11    2.81    0.57
  -5   3  10   18.37    1.52
  -5   3  10   17.89    1.43
  -5   3   9    1.78    0.48
  -5   3   9    1.59    0.42
  -5   3   8    0.03    0.17
  -5   3   8    0.46    0.25
  -5   3   7    0.52    0.31
  -5   3   7    0.43    0.19
  -5   3   6    8.76    0.88
  -5   3   6    8.63    1.11
  -5   3   6    8.57    0.88
  -5   3   5   96.68    2.79
  -5   3   5   96.10    3.70
  -5   3   5   94.63    2.81
  -5   3   4    3.66    0.53
  -5   3   4    3.86    0.77
  -5   3   4    3.74    0.55
  -5   3   3   22.56    1.30
  -5   3   3   24.80    1.95
  -5   3   3   24.06    1.34
  -5  -3   3   21.79    1.39
  -5   3   2    1.27    0.32
  -5   3   2    1.16    0.29
  -5   3   1    8.85    0.81
  -5   3   1    9.82    0.84
  -5   3   0    8.17    0.77
  -5   3   0    8.10    0.75
  -5   3  -1    6.04    0.65
  -5   3  -1    6.81    0.71
  -5   3  -2   35.90    1.69
  -5   3  -2   31.44    1.48
  -5   3  -3    3.54    0.54
  -5   3  -3    3.19    0.49
  -5   3  -4    8.38    0.86
  -5   3  -4   10.03    1.15
  -5   3  -4    8.92    0.83
  -5   3  -5   64.12    2.90
  -5   3  -5   61.17    2.38
  -5   3  -5   55.71    2.09
  -5   3  -6    0.65    0.28
  -5   3  -6    0.65    0.23
  -5   3  -6    0.65    0.24
  -5   3  -7   54.40    2.78
  -5   3  -7   53.11    2.33
  -5   3  -7   50.28    2.11
  -5   3  -8   14.55    1.45
  -5   3  -8   14.88    1.27
  -5   3  -9   15.11    1.45
  -5   3  -9   16.42    1.37
  -5   3 -10    4.33    0.76
  -5   3 -10    4.15    0.72
  -5   3 -11   50.61    2.52
  -5   3 -11   49.04    2.46
  -5   3 -12    0.15    0.25
  -5   3 -12    0.24    0.27
  -5   3 -13  101.38    3.30
  -5   3 -13   91.19    3.38
  -5   3 -14    1.02    0.38
  -5   3 -14    1.22    0.40
  -5   3 -15   12.29    1.16
  -5   3 -15   11.95    1.06
  -5   3 -16   15.68    1.25
  -5   3 -17   15.32    1.16
  -5   3 -18    0.88    0.27
  -5   3 -19    3.23    0.43
  -5   4  20    2.70    0.36
  -5   4  19    6.23    0.60
  -5  -4  19    5.61    0.53
  -5   4  18    5.21    0.60
  -5  -4  18    5.08    0.58
  -5   4  17   10.61    0.81
  -5   4  17   10.42    0.94
  -5  -4  17   10.90    0.92
  -5   4  16   28.19    1.44
  -5   4  16   24.60    1.54
  -5   4  15   31.05    1.62
  -5   4  15   27.64    1.70
  -5   4  14   38.01    1.88
  -5   4  14   32.54    1.91
  -5   4  13   31.92    1.80
  -5   4  13   24.58    1.67
  -5   4  12    0.18    0.18
  -5   4  12    0.15    0.20
  -5   4  11   11.56    1.12
  -5   4  11   12.03    1.18
  -5   4  10   52.25    2.40
  -5   4  10   52.61    2.43
  -5   4   9    2.55    0.54
  -5   4   9    2.46    0.51
  -5   4   8   13.92    1.22
  -5   4   8   13.89    1.20
  -5   4   7   51.64    2.32
  -5   4   7   51.87    2.25
  -5   4   6   67.04    2.59
  -5   4   6   63.56    2.43
  -5   4   5    4.25    0.65
  -5   4   5    4.07    0.60
  -5   4   4   33.92    1.79
   5   4  -4   33.08    1.63
  -5   4   4   32.67    1.65
  -5   4   3    0.24    0.20
  -5   4   3    0.29    0.16
  -5   4   2    2.00    0.41
  -5   4   2    1.87    0.36
  -5   4   1    0.12    0.12
  -5   4   1    0.30    0.13
  -5   4   0    1.52    0.37
  -5   4   0    1.53    0.34
  -5   4  -1   80.57    2.58
  -5  -4  -1   85.92    3.06
  -5   4  -2  226.95    4.34
  -5   4  -3    5.41    0.87
  -5   4  -3    4.88    0.65
  -5   4  -4    0.67    0.37
  -5   4  -4    0.96    0.30
  -5   4  -5   42.21    2.34
  -5   4  -5   38.78    1.85
  -5   4  -6   29.67    1.97
  -5   4  -6   25.18    1.52
  -5   4  -7    0.50    0.23
  -5   4  -8    2.72    0.62
  -5   4  -9   17.05    1.51
  -5   4  -9   18.64    1.39
  -5   4 -10   52.55    2.59
  -5   4 -10   54.67    2.41
  -5   4 -11   51.91    2.49
  -5   4 -11   55.55    2.43
  -5   4 -12    0.28    0.23
  -5   4 -12    0.38    0.25
  -5   4 -13   28.25    1.66
  -5   4 -13   27.47    1.66
  -5   4 -14   16.06    1.18
  -5   4 -14   16.24    1.23
  -5   4 -15    2.79    0.49
  -5   4 -15    2.45    0.47
  -5   4 -16    0.21    0.17
  -5   4 -16    0.30    0.14
  -5   4 -17    0.93    0.24
  -5   5  18    3.60    0.41
  -5   5  17    6.67    0.62
  -5  -5  17    6.23    0.54
  -5   5  16    0.24    0.16
  -5   5  15    1.56    0.38
  -5   5  14   10.77    0.97
  -5   5  13    0.21    0.14
  -5   5  13    0.10    0.14
  -5   5  12    9.47    0.93
  -5   5  12    8.07    0.90
  -5   5  11   10.43    1.00
  -5   5  11    9.14    0.96
  -5   5  10    0.18    0.13
  -5   5  10    0.52    0.29
  -5   5   9    0.06    0.16
  -5   5   9    0.37    0.24
  -5   5   8    0.29    0.20
   5   5  -8    0.19    0.21
  -5   5   8    0.31    0.26
  -5   5   7   25.69    1.67
   5   5  -7   26.84    1.52
  -5   5   7   24.33    1.52
  -5   5   6    0.45    0.26
   5   5  -6    0.18    0.16
  -5   5   6    0.01    0.16
  -5   5   5    1.06    0.36
   5   5  -5    1.64    0.39
  -5   5   5    1.46    0.38
  -5   5   4   47.89    2.20
   5   5  -4   49.89    2.07
  -5   5   4   45.79    1.97
  -5   5   3    6.85    0.83
   5   5  -3    7.44    0.81
  -5   5   3    6.63    0.72
  -5   5   2    5.72    0.76
   5   5  -2    5.87    0.72
  -5   5   2    5.77    0.68
  -5   5   1   21.45    1.43
  -5   5   1   20.93    1.28
  -5   5   0    0.43    0.24
  -5  -5   0    0.25    0.16
  -5   5  -1   12.10    1.07
  -5  -5  -1   11.06    1.15
  -5   5  -2   30.52    1.71
  -5  -5  -2   34.10    2.04
  -5   5  -3    1.17    0.47
  -5   5  -3    0.73    0.36
  -5  -5  -3    1.36    0.50
  -5   5  -4   46.16    2.38
  -5   5  -4   42.27    2.03
  -5  -5  -4   49.91    2.51
  -5   5  -5   16.72    1.43
  -5   5  -6   31.58    1.95
  -5   5  -7   14.25    1.31
  -5   5  -8    4.39    0.75
  -5   5  -9    8.92    1.02
  -5   5 -10   13.96    1.25
  -5   5 -11   30.87    1.76
  -5   5 -12    2.76    0.50
  -5   5 -13    0.35    0.25
  -5   5 -14   41.92    1.63
  -5   5 -15    0.50    0.21
  -5   6  15    4.93    0.46
  -5   6  14    2.50    0.36
  -5   6  13    2.27    0.38
  -5   6  12   24.07    1.28
  -5   6  11    0.21    0.14
   5   6 -10   26.12    1.33
  -5   6  10   23.13    1.34
  -5   6   9    0.54    0.25
   5   6  -9    0.34    0.18
  -5   6   9    0.51    0.24
  -5   6   8   12.38    1.09
   5   6  -8   10.86    0.92
  -5   6   8   10.42    0.91
  -5   6   7    0.17    0.15
   5   6  -7    0.28    0.20
  -5   6   7    0.42    0.19
  -5   6   6    7.08    0.87
   5   6  -6    7.83    0.80
  -5   6   6    6.60    0.72
  -5   6   5   10.06    1.05
   5   6  -5   10.73    0.94
  -5   6   5    8.56    0.82
  -5   6   4   13.74    1.23
   5   6  -4   12.72    1.05
  -5   6   4   10.67    0.92
  -5   6   3    7.43    0.89
   5   6  -3    7.00    0.78
  -5   6   2   10.71    1.07
   5   6  -2   11.97    1.03
  -5   6   1   16.22    1.33
   5   6  -1   16.71    1.24
  -5   6   0   31.61    1.84
   5   6   0   32.49    1.73
   5   6   1    1.63    0.43
  -5   6  -2    0.38    0.21
   5   6   2    0.73    0.36
  -5   6  -3   87.24    3.15
   5   6   3   90.33    2.95
  -5  -6  -3   92.04    3.28
  -5   6  -4   60.96    2.59
  -5  -6  -4   71.12    2.88
  -5   6  -5    8.65    0.97
  -5  -6  -5   10.99    1.11
  -5   6  -6    0.62    0.30
  -5  -6  -6    0.47    0.24
  -5   6  -7   19.32    1.41
  -5   6  -8   98.58    3.10
  -5   6  -9   15.46    1.19
  -5   6 -10    6.61    0.73
  -5   6 -11    1.27    0.31
  -5   6 -12    2.96    0.42
  -5   6 -13    1.89    0.31
   5   7  -9   11.15    0.76
   5   7  -8    0.95    0.23
   5   7  -7    2.74    0.41
   5   7  -6    7.57    0.70
   5   7  -5    2.46    0.43
   5   7  -4    3.73    0.54
   5   7  -3    0.14    0.17
  -5   7   2    5.53    0.73
   5   7  -2    5.08    0.64
  -5   7   1    0.35    0.21
   5   7  -1    0.14    0.17
  -5   7   0   10.90    1.04
   5   7   0    9.96    0.92
  -5   7  -1   26.60    1.58
   5   7   1   25.21    1.47
  -5   7  -2    2.20    0.46
   5   7   2    2.22    0.45
  -5   7  -3    0.10    0.20
   5   7   3    0.13    0.15
  -5   7  -4    0.58    0.23
   5   7   4    0.74    0.31
  -5   7  -5    6.30    0.74
   5   7   5    6.69    0.75
  -5   7  -6   22.57    1.34
   5   7   6   25.20    1.40
  -5   7  -7    2.24    0.42
   5   7   7    2.78    0.48
  -5   7  -8    1.47    0.33
   5   7   8    2.09    0.39
  -6   0  22    6.11    0.48
  -6   0  21    0.24    0.15
  -6   0  20   65.54    1.93
  -6   0  19    0.27    0.21
  -6   0  18   37.93    1.69
  -6   0  17    0.14    0.16
  -6   0  16    1.49    0.38
  -6   0  15    0.13    0.12
  -6   0  15    0.00    0.14
  -6   0  14    9.22    0.97
  -6   0  14    9.11    0.99
  -6   0  13    0.05    0.15
  -6   0  13    0.27    0.31
  -6   0  12   63.18    2.60
  -6   0  11    0.03    0.14
  -6   0  10  132.42    3.90
  -6   0   9    0.79    0.30
  -6   0   8    1.99    0.47
  -6   0   7    0.38    0.12
  -6   0   6  103.27    3.00
  -6   0   5    0.80    0.31
  -6   0   4    0.47    0.23
  -6   0   4    0.72    0.31
  -6   0   3    0.56    0.30
  -6   0   2  454.57    5.86
  -6   0   1    0.19    0.21
  -6   0   0    0.00    0.12
  -6   0   0    0.38    0.22
  -6   0  -1   -0.20    0.24
  -6   0  -1    0.32    0.19
  -6   0  -2    8.40    0.87
  -6   0  -2    9.32    0.92
  -6   0  -3   -0.21    0.27
  -6   0  -3    0.04    0.11
  -6   0  -4    6.06    0.78
  -6   0  -4    4.88    0.71
  -6   0  -5   -0.05    0.28
  -6   0  -5    0.01    0.14
  -6   0  -6   29.61    1.84
  -6   0  -6   26.32    1.73
  -6   0  -7   -0.22    0.34
  -6   0  -7    0.05    0.18
  -6   0  -8   12.15    1.22
  -6   0  -8   10.44    1.11
  -6   0  -9   -0.30    0.34
  -6   0  -9    0.46    0.30
  -6   0 -10   40.31    2.33
  -6   0 -10   42.29    2.20
  -6   0 -11   -0.16    0.28
  -6   0 -11   -0.09    0.16
  -6   0 -12    4.87    0.80
  -6   0 -12    6.49    0.82
  -6   0 -13   -0.13    0.21
  -6   0 -13    0.21    0.24
  -6   0 -14    4.00    0.72
  -6   0 -14    4.08    0.57
  -6   0 -15    0.29    0.28
  -6   0 -16  136.93    3.66
  -6   0 -17    0.02    0.15
  -6   0 -18   46.72    1.72
  -6   1  21   37.83    1.29
  -6  -1  21   36.82    1.32
  -6   1  20    2.03    0.34
  -6  -1  20    1.87    0.35
  -6   1  19    0.25    0.22
  -6  -1  19    0.39    0.22
  -6   1  18   19.29    1.15
  -6  -1  18   20.35    1.26
  -6   1  17    4.08    0.56
  -6  -1  17    4.39    0.63
  -6   1  16    2.86    0.48
  -6  -1  16    2.34    0.50
  -6   1  15   31.24    1.76
  -6   1  15   29.04    1.63
  -6  -1  15   27.53    1.68
  -6   1  14   12.84    1.18
  -6   1  14   11.52    1.06
  -6   1  13   71.76    2.81
  -6   1  13   81.27    2.89
  -6   1  12    0.28    0.29
  -6  -1  12    0.45    0.23
  -6   1  12    0.13    0.19
  -6   1  11    3.18    0.59
  -6  -1  10    2.92    0.58
  -6   1  10    2.86    0.57
  -6   1  10    2.55    0.55
  -6   1   9   -0.03    0.18
  -6  -1   9    0.89    0.31
  -6   1   9    0.31    0.19
  -6   1   9    0.78    0.33
  -6   1   8   60.73    2.55
  -6  -1   8   66.63    2.56
  -6   1   8   63.30    2.59
  -6   1   7   -0.12    0.20
  -6  -1   7    0.28    0.15
  -6   1   7    0.18    0.20
  -6   1   6    0.81    0.28
  -6  -1   6    0.92    0.32
  -6   1   6    0.56    0.27
  -6   1   5  146.48    3.64
  -6  -1   5  146.51    3.48
  -6   1   5  156.57    3.73
  -6   1   4    6.68    0.76
  -6   1   4    7.07    0.79
  -6   1   3  109.23    3.00
  -6   1   3  115.26    3.08
  -6   1   2    6.51    0.67
  -6  -1   2    5.83    0.72
  -6   1   2    6.11    0.67
  -6   1   2    6.94    0.77
  -6   1   2    6.75    0.76
  -6  -1   1   19.69    1.30
  -6   1   1   18.86    1.20
  -6  -1   0   44.65    1.99
  -6   1   0   47.48    1.97
  -6   1   0   48.34    2.04
  -6  -1  -1   21.80    1.42
  -6   1  -1   21.72    1.38
  -6   1  -1   22.57    1.41
  -6  -1  -2    0.85    0.34
  -6   1  -2    1.11    0.29
  -6  -1  -2    1.29    0.35
  -6   1  -2    1.04    0.31
  -6  -1  -3    6.21    0.80
  -6   1  -3    4.85    0.68
  -6  -1  -3    6.47    0.77
  -6   1  -3    5.89    0.75
  -6  -1  -4    0.69    0.35
  -6  -1  -4    0.37    0.22
  -6   1  -4    0.33    0.20
  -6   1  -5   71.05    2.73
  -6  -1  -5   71.72    2.80
  -6  -1  -5   77.79    2.80
  -6  -1  -6    0.71    0.34
  -6  -1  -6    0.38    0.19
  -6   1  -6    0.53    0.27
  -6  -1  -7    8.54    0.98
  -6   1  -7    7.35    0.95
  -6  -1  -7    7.83    0.97
  -6  -1  -8   14.69    1.33
  -6   1  -8   12.85    1.28
  -6  -1  -8   15.28    1.34
  -6  -1  -9    0.47    0.29
  -6  -1  -9    0.40    0.23
  -6   1  -9    0.72    0.34
  -6  -1 -10   58.35    2.72
  -6   1 -10   55.71    2.73
  -6  -1 -10   62.83    2.60
  -6  -1 -11    0.60    0.33
  -6  -1 -11    0.23    0.23
  -6   1 -11   -0.05    0.25
  -6  -1 -12    1.13    0.35
  -6   1 -12    0.53    0.19
  -6  -1 -12    1.12    0.42
  -6   1 -12    0.71    0.30
  -6  -1 -13   40.10    2.19
  -6   1 -13   38.20    2.26
  -6   1 -13   42.37    2.02
  -6  -1 -14   11.19    1.11
  -6   1 -14   12.06    1.25
  -6   1 -14   12.17    1.02
  -6  -1 -15   12.01    1.08
  -6   1 -15   11.49    1.16
  -6   1 -15   10.76    0.89
  -6   1 -16    0.60    0.23
  -6   1 -16    0.67    0.32
  -6   1 -17    0.02    0.20
  -6   1 -18    0.34    0.20
  -6   1 -19   21.50    1.03
  -6  -2  21    4.55    0.44
  -6   2  20   31.03    1.14
  -6  -2  20   36.37    1.38
  -6   2  19    2.85    0.39
  -6   2  19    2.92    0.41
  -6  -2  19    2.75    0.45
  -6   2  18   24.39    1.23
  -6   2  18   25.62    1.35
  -6  -2  18   22.82    1.32
  -6   2  17   30.45    1.44
  -6   2  17   29.21    1.58
  -6  -2  17   27.63    1.56
  -6   2  16    2.55    0.45
  -6  -2  16    1.73    0.42
  -6   2  16    2.30    0.45
  -6   2  15   42.44    1.85
  -6   2  15   39.03    2.07
  -6   2  14   11.09    1.15
  -6   2  13    0.28    0.21
  -6   2  13    0.44    0.29
  -6   2  12   33.93    1.98
  -6   2  12   35.88    2.13
  -6   2  11   11.90    1.20
  -6   2  11   13.17    1.28
  -6  -2  10   25.35    1.59
  -6   2  10   20.74    1.58
  -6   2  10   23.10    1.67
  -6  -2   9   13.48    1.15
  -6   2   9   11.31    1.17
  -6   2   9   12.16    1.19
  -6  -2   8    0.44    0.29
  -6   2   8    0.25    0.24
  -6   2   8    1.03    0.38
  -6  -2   7   90.44    2.80
  -6   2   7   80.61    3.22
  -6   2   7   83.23    2.95
  -6   2   6    0.80    0.35
  -6  -2   6    0.92    0.27
  -6   2   6    0.95    0.44
  -6   2   6    0.85    0.32
  -6   2   5   76.87    2.53
  -6   2   5   73.92    2.81
  -6  -2   5   78.67    2.52
  -6   2   5   69.80    3.08
  -6   2   5   77.61    2.69
  -6   2   4    8.24    0.82
  -6   2   4    8.56    0.96
  -6   2   4    9.46    1.16
  -6   2   4    9.17    0.92
  -6   2   3    2.32    0.42
  -6   2   3    2.56    0.49
  -6   2   3    2.87    0.69
  -6   2   3    2.69    0.48
  -6   2   2   11.43    0.93
  -6   2   2   11.81    1.06
  -6   2   2   11.87    1.00
  -6   2   1  146.01    3.30
  -6   2   1  146.02    3.35
  -6   2   1  149.66    3.51
  -6   2   0  188.99    3.68
  -6  -2   0  185.72    4.36
  -6   2   0  190.09    3.97
  -6   2   0  196.25    4.23
  -6   2   0  194.34    4.00
  -6   2  -1   98.24    2.64
  -6  -2  -1  102.08    3.27
  -6   2  -1  103.22    2.95
  -6   2  -2   23.84    1.29
  -6  -2  -2   26.21    1.69
  -6   2  -2   26.62    1.54
  -6  -2  -3   16.08    1.35
  -6   2  -3   15.88    1.23
  -6   2  -4   13.22    1.15
  -6  -2  -4   10.60    1.13
  -6   2  -5    4.91    0.72
  -6  -2  -5    6.21    0.87
  -6   2  -6    7.04    0.88
  -6  -2  -6    7.43    0.95
  -6   2  -7    6.56    0.88
  -6  -2  -7    7.29    0.94
  -6   2  -8   15.80    1.39
  -6  -2  -8   17.98    1.43
  -6   2  -9    0.10    0.21
  -6  -2  -9    0.65    0.31
  -6   2  -9    0.14    0.22
  -6   2 -10    4.23    0.75
  -6  -2 -10    5.37    0.75
  -6   2 -10    5.20    0.81
  -6   2 -11    5.09    0.83
  -6   2 -11    6.89    0.91
  -6   2 -12   19.87    1.61
  -6   2 -13   30.11    1.95
  -6   2 -14   18.47    1.47
  -6   2 -15    1.04    0.26
  -6   2 -15    1.45    0.43
  -6   2 -16   27.06    1.57
  -6   2 -16   25.01    1.20
  -6   2 -17   17.88    1.17
  -6   2 -17   16.28    0.84
  -6   2 -18    6.55    0.63
  -6  -3  20   42.79    1.29
  -6   3  19   45.69    1.42
  -6   3  19   46.72    1.51
  -6  -3  19   44.00    1.51
  -6   3  18   26.22    1.20
  -6   3  18   26.85    1.30
  -6  -3  18   25.14    1.27
  -6   3  17    9.48    0.80
  -6   3  17    9.78    0.87
  -6  -3  17    8.53    0.81
  -6   3  16   12.00    0.97
  -6   3  16   12.77    1.07
  -6   3  15    0.27    0.18
  -6   3  15    0.10    0.21
  -6   3  14    6.33    0.78
  -6   3  14    6.95    0.88
  -6   3  13    0.15    0.23
  -6   3  12    0.82    0.21
  -6   3  12    1.15    0.42
  -6   3  11   21.71    1.54
  -6   3  11   23.02    1.67
  -6   3  10   58.91    2.53
  -6   3  10   59.67    2.76
  -6   3  10   60.43    2.68
  -6   3   9    1.10    0.36
  -6   3   9    1.23    0.47
  -6   3   9    1.49    0.45
  -6   3   8   49.20    2.25
  -6   3   8   46.55    2.56
  -6   3   8   50.87    2.37
  -6   3   7   53.24    2.30
  -6   3   7   54.28    2.82
  -6   3   7   56.80    2.43
  -6   3   6   12.09    1.08
  -6   3   6   12.45    1.39
  -6   3   6   11.39    1.07
  -6   3   5    4.05    0.62
  -6   3   5    4.67    0.86
  -6   3   5    4.21    0.64
  -6   3   4   17.84    1.27
  -6   3   4   20.60    1.84
  -6   3   4   17.79    1.29
  -6   3   3    7.43    0.81
  -6   3   3    8.12    1.20
  -6   3   3    7.04    0.79
  -6   3   2    0.19    0.15
  -6   3   2   -0.08    0.16
  -6   3   1    5.79    0.69
  -6   3   1    5.34    0.69
  -6   3   0   12.17    0.99
  -6   3  -1   26.25    1.45
  -6   3  -1   30.30    1.60
  -6   3  -2  119.84    3.09
  -6   3  -2  131.01    3.35
  -6   3  -3    0.28    0.24
  -6   3  -3    0.14    0.21
  -6   3  -4   12.06    0.99
  -6   3  -4   13.60    1.13
  -6   3  -5    9.95    0.92
  -6   3  -5   11.22    1.06
  -6   3  -6   35.23    1.90
  -6   3  -6   34.32    1.73
  -6   3  -7   22.30    1.55
  -6   3  -7   28.92    2.12
  -6   3  -8   48.67    2.64
  -6   3  -8   38.62    2.07
  -6   3  -9    0.82    0.32
  -6   3  -9    1.12    0.35
  -6   3 -10    8.04    1.01
  -6   3 -10    7.04    0.92
  -6   3 -11   16.62    1.38
  -6   3 -11   19.02    1.45
  -6   3 -12    1.68    0.50
  -6   3 -12    1.20    0.38
  -6   3 -13    4.87    0.72
  -6   3 -13    5.43    0.72
  -6   3 -14    6.26    0.78
  -6   3 -15    1.50    0.37
  -6   3 -16    5.11    0.61
  -6   3 -16    4.55    0.48
  -6   3 -17    5.02    0.52
  -6   4  18   13.42    0.78
  -6  -4  18   13.06    0.76
  -6   4  17   28.40    1.13
  -6   4  17   27.31    1.25
  -6  -4  17   25.87    1.21
  -6   4  16   49.38    1.70
  -6   4  16   45.84    1.79
  -6   4  15   36.11    1.60
  -6   4  15   33.45    1.65
  -6   4  14    6.86    0.75
  -6   4  14    5.40    0.70
  -6   4  13    5.23    0.68
  -6   4  13    4.72    0.69
  -6   4  12    0.96    0.31
  -6   4  12    0.61    0.22
  -6   4  11   18.15    1.36
  -6   4  11   18.66    1.41
  -6   4  10   15.85    1.32
  -6   4  10   16.15    1.32
  -6   4   9    6.78    0.89
  -6   4   9    6.35    0.83
  -6   4   8   13.67    1.24
  -6   4   8   12.71    1.16
  -6   4   7   36.07    1.96
  -6   4   7   35.95    1.90
  -6   4   6   30.53    1.77
  -6   4   6   28.59    1.67
  -6   4   5   49.66    2.23
  -6   4   5   46.43    2.10
  -6   4   4   10.30    0.99
  -6   4   4    9.85    0.94
  -6   4   3    4.40    0.64
  -6   4   3    4.60    0.64
  -6   4   2    0.27    0.17
  -6   4   2    0.38    0.18
  -6   4   1    0.10    0.17
  -6   4   0    9.38    0.91
  -6   4  -1    2.22    0.50
  -6   4  -2   82.08    2.67
  -6   4  -3   79.05    2.59
  -6   4  -4    6.22    0.75
  -6   4  -5    0.88    0.41
  -6   4  -5   -0.03    0.17
  -6   4  -6    3.14    0.69
  -6   4  -7    0.14    0.23
  -6   4  -7   -0.18    0.16
  -6   4  -8    7.66    0.99
  -6   4  -8    6.85    0.79
  -6   4  -9    2.10    0.50
  -6   4  -9    1.24    0.35
  -6   4 -10    8.99    0.98
  -6   4 -10    7.78    0.84
  -6   4 -11   30.04    1.68
  -6   4 -11   24.26    1.44
  -6   4 -12    2.32    0.49
  -6   4 -12    1.76    0.38
  -6   4 -13    8.84    0.80
  -6   4 -13    8.81    0.80
  -6   4 -14   36.61    1.49
  -6   4 -15    0.20    0.12
  -6   5  16    7.94    0.59
  -6   5  15    0.40    0.15
  -6   5  14   13.05    0.82
  -6   5  14    9.96    0.80
  -6   5  13   34.62    1.47
  -6   5  13   28.92    1.45
  -6   5  12   -0.15    0.17
  -6   5  12    0.15    0.16
  -6   5  11    0.02    0.15
  -6   5  11    0.05    0.15
  -6   5  10   12.75    1.07
  -6   5  10   12.18    1.03
  -6   5   9   53.03    2.24
  -6   5   9   52.71    2.17
  -6   5   8   43.90    2.08
  -6   5   8   39.13    1.87
  -6   5   7    3.07    0.58
  -6   5   7    2.90    0.54
  -6   5   6    0.34    0.26
  -6   5   6    0.71    0.27
  -6   5   5    0.81    0.28
  -6   5   5    0.66    0.24
  -6   5   4    1.82    0.46
   6   5  -4    2.00    0.40
  -6   5   4    1.43    0.35
  -6   5   3    7.94    0.89
   6   5  -3    8.49    0.83
  -6   5   2   14.97    1.21
   6   5  -2   14.96    1.11
  -6   5   1    7.93    0.86
   6   5  -1    8.68    0.85
  -6   5   0    0.83    0.31
   6   5   0    0.61    0.24
  -6   5  -1   13.96    1.14
  -6   5  -2    0.44    0.28
  -6   5  -3    7.16    1.01
  -6   5  -3    5.83    0.75
  -6   5  -4   39.69    2.37
  -6   5  -5   17.95    1.59
  -6   5  -6    0.24    0.18
  -6   5  -7    4.99    0.78
  -6   5  -8    2.32    0.49
  -6   5  -9   27.54    1.61
  -6   5 -10   25.98    1.45
  -6   5 -11   28.43    1.40
  -6   5 -12    1.44    0.33
  -6   5 -13    1.29    0.27
  -6   6  11   25.69    1.16
  -6   6  10   13.01    0.88
  -6   6  10   10.03    0.77
  -6   6   9    5.69    0.63
  -6   6   8    5.09    0.64
  -6   6   7    0.52    0.23
  -6   6   6   26.54    1.55
  -6   6   5    5.50    0.73
   6   6  -5    5.89    0.64
  -6   6   4    2.42    0.51
   6   6  -4    1.92    0.36
  -6   6   3   15.36    1.22
   6   6  -3   14.47    1.03
  -6   6   2   18.23    1.34
   6   6  -2   17.52    1.15
  -6   6   1    2.55    0.51
   6   6  -1    2.69    0.48
   6   6   0    0.96    0.31
  -6   6  -1   14.78    1.33
   6   6   1   12.78    1.02
  -6   6  -2    8.48    1.00
   6   6   2    7.39    0.78
  -6   6  -3    3.12    0.61
   6   6   3    2.82    0.49
  -6   6  -4    4.09    0.69
   6   6   4    3.58    0.56
  -6   6  -5    3.55    0.61
   6   6   5    3.82    0.57
  -6   6  -6    0.31    0.20
   6   6   6    0.06    0.14
  -6   6  -7   11.54    0.97
   6   6   7   11.52    0.93
  -6   6  -8   29.29    1.41
   6   6   8   27.21    1.38
  -6   6  -9   18.53    1.02
   6   6   9   19.70    1.12
  -7   0  19   18.49    0.86
  -7   0  18    0.05    0.09
  -7   0  17   30.09    1.34
  -7   0  16    0.01    0.11
  -7   0  15   53.32    2.04
  -7   0  15   53.48    2.00
  -7   0  14    0.21    0.19
  -7   0  14    0.31    0.28
  -7   0  13    4.00    0.63
  -7   0  13    4.56    0.65
  -7   0  12    0.22    0.24
  -7   0  12   -0.04    0.23
  -7   0  11   11.79    1.11
  -7   0  10    0.00    0.14
  -7   0   9    0.07    0.17
  -7   0   9    0.15    0.18
  -7   0   8   -0.04    0.24
  -7   0   7   20.18    1.46
  -7   0   6    0.20    0.19
  -7   0   5    0.26    0.22
  -7   0   4    0.00    0.20
  -7   0   4   -0.09    0.22
  -7   0   3   61.93    2.32
  -7   0   3   62.93    2.41
  -7   0   2    0.57    0.40
  -7   0   2    2.43    0.58
  -7   0   1  214.52    4.42
  -7   0   1  205.19    4.38
  -7   0   0    1.20    0.42
  -7   0  -1   47.56    2.19
  -7   0  -2    0.40    0.35
  -7   0  -3   13.23    1.23
  -7   0  -4    0.59    0.35
  -7   0  -4    0.14    0.22
  -7   0  -5    0.70    0.38
  -7   0  -5    0.52    0.32
  -7   0  -6    0.19    0.37
  -7   0  -6    0.76    0.39
  -7   0  -7   68.64    2.92
  -7   0  -7   75.58    2.95
  -7   0  -8    0.38    0.37
  -7   0  -8    0.20    0.26
  -7   0  -9   44.79    2.26
  -7   0  -9   36.71    2.12
  -7   0 -10    0.41    0.34
  -7   0 -10    0.01    0.15
  -7   0 -11    3.16    0.58
  -7   0 -11    2.26    0.51
  -7   0 -12    0.18    0.20
  -7   0 -12    0.04    0.23
  -7   0 -13    2.54    0.46
  -7   0 -13    1.30    0.37
  -7   0 -14    0.48    0.22
  -7   0 -14    0.15    0.17
  -7   0 -15   16.20    1.04
  -7   0 -16    0.12    0.08
  -7  -1  19    3.26    0.38
  -7   1  18    0.18    0.09
  -7  -1  18    0.17    0.14
  -7   1  17   18.47    0.96
  -7  -1  17   17.44    1.03
  -7   1  16    0.46    0.20
  -7  -1  16    0.66    0.25
  -7  -1  15    1.19    0.35
  -7   1  14   59.82    2.31
  -7  -1  14   63.13    2.37
  -7  -1  13   50.61    2.09
  -7  -1  13   52.34    2.24
  -7   1  12   62.45    2.53
  -7  -1  12   63.14    2.44
  -7   1  11   33.74    1.88
  -7  -1  11   40.20    1.98
  -7   1  10    0.32    0.20
  -7  -1   9    0.07    0.19
  -7   1   9   -0.03    0.18
  -7  -1   8   -0.01    0.23
  -7   1   8    0.06    0.20
  -7   1   7   11.12    1.12
  -7  -1   7   12.21    1.12
  -7   1   7   12.25    1.25
  -7   1   6   36.97    1.83
  -7   1   6   34.78    1.95
  -7  -1   6   38.26    1.93
  -7   1   6   40.15    2.07
  -7   1   6   35.66    2.13
  -7   1   5    5.79    0.71
  -7   1   5    6.27    0.82
  -7  -1   5    5.22    0.70
  -7   1   4   25.98    1.47
  -7   1   4   24.95    1.61
  -7  -1   4   25.20    1.53
  -7   1   3   21.84    1.47
  -7  -1   3   23.62    1.47
  -7   1   2   17.07    1.20
  -7   1   2   16.69    1.27
  -7  -1   1   29.89    1.73
  -7   1   1   28.83    1.59
  -7   1   1   28.86    1.68
  -7  -1   0   12.50    1.15
  -7   1   0   12.17    1.07
  -7   1   0   12.47    1.11
  -7  -1  -1   21.99    1.54
  -7   1  -1   21.37    1.45
  -7   1  -1   22.52    1.49
  -7  -1  -2    0.32    0.29
  -7   1  -2   -0.06    0.25
  -7  -1  -3   21.46    1.58
  -7   1  -3   20.97    1.52
  -7   1  -3   20.79    1.46
  -7  -1  -4   33.00    1.98
  -7   1  -4   29.13    1.85
  -7   1  -4   30.52    1.79
  -7  -1  -5   42.70    2.29
  -7   1  -5   41.71    2.25
  -7   1  -5   45.02    2.20
  -7  -1  -6   44.67    2.33
  -7   1  -6   41.30    2.29
  -7   1  -6   47.05    2.30
  -7  -1  -7   21.73    1.63
  -7   1  -7   19.57    1.57
  -7  -1  -7   21.80    1.55
  -7   1  -7   20.96    1.57
  -7  -1  -8    7.64    0.97
  -7   1  -8    7.04    0.92
  -7  -1  -8    6.83    0.88
  -7   1  -8    6.75    0.92
  -7  -1  -9   15.96    1.32
  -7   1  -9   16.02    1.39
  -7  -1  -9   13.14    1.18
  -7   1  -9   13.44    1.28
  -7  -1 -10    2.33    0.54
  -7   1 -10    1.74    0.46
  -7  -1 -10    1.51    0.41
  -7   1 -10    1.94    0.50
  -7  -1 -11    0.09    0.22
  -7   1 -11    0.09    0.22
  -7  -1 -11    0.20    0.14
  -7   1 -11    0.12    0.19
  -7  -1 -12   62.83    2.21
  -7   1 -12   59.30    2.31
  -7  -1 -12   54.62    2.21
  -7   1 -12   50.07    2.35
  -7  -1 -13    1.83    0.37
  -7   1 -13    1.99    0.43
  -7  -1 -13    2.00    0.40
  -7   1 -13    1.48    0.42
  -7   1 -14   50.53    1.75
  -7   1 -14   47.83    2.04
  -7   1 -15    1.39    0.27
  -7   1 -15    1.40    0.34
  -7   1 -16    2.99    0.41
  -7   2  18    3.56    0.42
  -7  -2  18    3.27    0.40
  -7   2  17    4.71    0.53
  -7  -2  17    4.07    0.51
  -7   2  16   17.57    1.10
  -7  -2  16   17.02    1.09
  -7   2  15   11.13    0.94
  -7   2  15   12.08    0.94
  -7  -2  15   11.92    0.97
  -7   2  14    2.51    0.49
  -7  -2  14    2.21    0.45
  -7   2  14    2.15    0.46
  -7   2  13    5.96    0.75
  -7   2  13    6.28    0.78
  -7   2  12   13.38    1.16
  -7   2  12   14.12    1.20
  -7   2  12   15.93    1.29
  -7   2  11    0.27    0.25
  -7   2  11    0.86    0.38
  -7  -2  11    0.43    0.22
  -7   2  11    0.88    0.40
  -7   2  10   26.92    1.67
  -7   2  10   25.57    1.73
  -7   2  10   28.46    1.79
  -7   2   9    3.46    0.62
  -7  -2   9    4.41    0.65
  -7   2   9    3.97    0.72
  -7   2   9    4.56    0.74
  -7   2   8    0.50    0.24
  -7  -2   8    0.57    0.21
  -7   2   8    0.69    0.38
  -7   2   8    0.29    0.21
  -7   2   7    1.59    0.42
  -7  -2   7    2.73    0.51
  -7   2   7    1.85    0.53
  -7   2   7    3.07    0.57
  -7   2   6   10.36    1.00
  -7  -2   6   11.79    1.04
  -7   2   6   11.39    1.27
  -7   2   6   11.57    1.11
  -7   2   5   59.25    2.34
  -7   2   5   62.26    2.70
  -7  -2   5   68.45    2.46
  -7   2   5   69.26    3.19
  -7   2   5   62.80    2.55
  -7   2   4   13.06    1.09
  -7   2   4   13.00    1.26
  -7  -2   4   13.04    1.09
  -7   2   4   15.17    1.55
  -7   2   4   14.01    1.21
  -7   2   3   82.25    2.66
  -7   2   3   89.55    3.18
  -7  -2   3   91.32    2.83
  -7   2   3   94.65    3.88
  -7   2   2   25.78    1.45
  -7   2   2   27.23    1.75
  -7   2   2   28.70    2.18
  -7   2   1   17.75    1.18
  -7   2   1   17.39    1.19
  -7   2   1   18.35    1.44
  -7   2   0    3.80    0.54
  -7   2   0    3.82    0.58
  -7   2   0    4.27    0.69
  -7   2   0    5.65    0.98
  -7   2  -1    0.22    0.19
  -7   2  -1    0.69    0.33
  -7   2  -2   15.02    1.23
  -7   2  -3    3.10    0.54
  -7   2  -3    2.85    0.55
  -7   2  -4    4.12    0.64
  -7   2  -4    5.12    0.73
  -7   2  -5    1.93    0.42
  -7   2  -5    2.70    0.54
  -7   2  -6   21.32    1.60
  -7   2  -6   20.87    1.50
  -7   2  -7    8.29    1.00
  -7   2  -7    8.66    0.98
  -7   2  -8    0.62    0.26
  -7   2  -8    0.90    0.39
  -7   2  -9    7.78    0.95
  -7   2  -9    7.27    0.92
  -7   2 -10   26.60    1.71
  -7   2 -10   23.37    1.60
  -7   2 -11    5.06    0.71
  -7   2 -11    4.42    0.68
  -7   2 -12    1.84    0.43
  -7   2 -12    1.32    0.39
  -7   2 -13    0.87    0.27
  -7   2 -13    1.22    0.36
  -7   2 -14    0.20    0.20
  -7   2 -14    0.31    0.24
  -7   2 -15    7.59    0.57
  -7   2 -15    7.44    0.68
  -7   3  17   30.62    1.17
  -7  -3  17   30.37    1.20
  -7   3  16   17.13    0.98
  -7   3  16   16.58    0.94
  -7  -3  16   16.34    0.98
  -7   3  15    0.41    0.23
  -7  -3  15    0.32    0.16
  -7   3  15    0.40    0.19
  -7   3  14    0.02    0.17
  -7   3  14   -0.13    0.19
  -7   3  13    8.08    0.83
  -7   3  13    8.32    0.84
  -7   3  12    3.13    0.54
  -7   3  12    3.65    0.59
  -7   3  11    0.46    0.24
  -7   3  11    1.19    0.36
  -7   3  10   27.52    1.68
  -7   3  10   28.71    1.75
  -7   3   9   69.46    2.68
  -7   3   9   70.81    2.76
  -7   3   8    6.62    0.84
  -7   3   8    7.30    0.98
  -7   3   8    7.49    0.92
  -7   3   7   17.78    1.34
  -7   3   7   20.86    1.72
  -7   3   7   18.90    1.42
  -7   3   6    2.78    0.55
  -7  -3   6    3.55    0.55
  -7   3   6    4.30    0.83
  -7   3   6    3.29    0.59
  -7   3   5    0.22    0.23
  -7  -3   5    0.11    0.19
  -7   3   5    0.26    0.27
  -7   3   5    0.36    0.22
  -7   3   4   15.07    1.18
  -7  -3   4   17.01    1.17
  -7   3   4   17.97    1.73
  -7   3   3    0.69    0.23
  -7  -3   3    0.79    0.23
  -7   3   3    0.95    0.47
  -7   3   2    1.44    0.36
  -7   3   2    1.58    0.55
  -7   3   1   19.06    1.25
  -7   3   0    1.92    0.42
  -7   3  -1    2.75    0.49
  -7   3  -1    2.36    0.43
  -7   3  -2   17.49    1.19
  -7   3  -2   16.59    1.23
  -7   3  -3    3.08    0.50
  -7   3  -3    2.63    0.47
  -7   3  -4    1.38    0.32
  -7   3  -4    1.44    0.29
  -7   3  -5    8.10    0.90
  -7   3  -5    7.91    0.87
  -7   3  -6    2.80    0.48
  -7   3  -6    3.56    0.59
  -7   3  -7   -0.49    0.49
  -7   3  -7    0.17    0.17
  -7   3  -8    8.13    0.93
  -7   3  -8    7.51    0.85
  -7   3  -9   43.53    2.13
  -7   3  -9   38.03    1.87
  -7   3 -10   28.74    1.66
  -7   3 -10   22.05    1.39
  -7   3 -11   21.36    1.34
  -7   3 -11   15.58    1.13
  -7   3 -12    5.80    0.65
  -7   3 -12    5.36    0.64
  -7   3 -13    8.88    0.72
  -7   3 -13    8.55    0.74
  -7   3 -14    1.28    0.25
  -7   3 -14    0.60    0.17
  -7   4  15    0.74    0.18
  -7  -4  15    0.57    0.18
  -7   4  15    0.73    0.19
  -7   4  14   -0.08    0.14
  -7   4  14   -0.06    0.16
  -7   4  13    0.38    0.18
  -7   4  13    0.28    0.12
  -7   4  12    3.69    0.53
  -7   4  12    3.10    0.49
  -7   4  11    9.14    0.88
  -7   4  11    7.73    0.80
  -7   4  10   32.77    1.69
  -7   4  10   31.88    1.68
  -7   4   9    7.81    0.87
  -7   4   9    7.45    0.83
  -7   4   8    2.81    0.55
  -7   4   8    2.90    0.55
  -7   4   7    1.48    0.40
  -7   4   7    1.54    0.44
  -7   4   6   14.97    1.18
  -7   4   6   15.64    1.22
  -7   4   5   20.23    1.36
  -7   4   4    1.87    0.41
  -7   4   3   13.83    1.10
  -7   4   2   13.91    1.10
  -7   4   1    1.18    0.33
  -7   4   0    0.29    0.23
  -7   4  -1    0.20    0.17
  -7   4  -2    7.86    0.80
  -7   4  -3    0.10    0.15
  -7   4  -3    0.02    0.25
  -7   4  -4    5.13    0.63
  -7   4  -5    0.26    0.25
  -7   4  -7    4.35    0.57
  -7   4  -8    0.43    0.28
  -7   4  -9   -0.07    0.31
  -7   4 -10    4.44    0.54
  -7   4 -11    2.89    0.40
  -7   4 -12   13.88    0.84
  -7   5  11    1.12    0.26
  -7   5  10    4.65    0.57
  -7   5   9   21.03    1.24
  -7   5   8   26.79    1.45
  -7   5   7    6.77    0.75
  -7   5   6    3.32    0.55
  -7   5   5   11.66    1.00
  -7   5   4    7.11    0.79
  -7   5   3    2.96    0.51
  -7   5   2    0.76    0.25
  -7   5   1    0.44    0.22
  -7   5   0    2.08    0.43
   7   5   1   10.36    0.86
   7   5   2    2.69    0.43
   7   5   3    4.86    0.60
   7   5   4    0.24    0.16
   7   5   5    2.43    0.42
  -7   5  -6   -0.25    0.21
   7   5   6    0.31    0.17
  -7   5  -7   26.93    1.22
  -7   5  -8    7.58    0.61
  -8   0  15    0.10    0.13
  -8   0  14   17.67    1.06
  -8   0  13    0.01    0.11
  -8   0  13    0.12    0.12
  -8   0  12    5.94    0.68
  -8   0  12    4.87    0.62
  -8   0  11    0.06    0.11
  -8   0  11   -0.53    0.23
  -8   0  10    0.24    0.20
  -8   0   9    0.27    0.25
  -8   0   8    1.19    0.36
  -8   0   7    0.14    0.22
  -8   0   7    0.18    0.28
  -8   0   6   93.80    3.10
  -8   0   6   85.99    3.19
  -8   0   5   -0.05    0.22
  -8   0   4    1.93    0.48
  -8   0   3   -0.09    0.28
  -8   0   2    0.15    0.20
  -8   0   1   -0.15    0.21
  -8   0   0   64.15    2.52
  -8   0   0   60.99    2.49
  -8   0  -1    0.25    0.35
  -8   0  -1    0.13    0.26
  -8   0  -2   98.93    3.26
  -8   0  -2  100.27    3.22
  -8   0  -3    1.06    0.49
  -8   0  -3    0.14    0.26
  -8   0  -4   11.69    1.19
  -8   0  -4   10.94    1.06
  -8   0  -5    0.40    0.35
  -8   0  -6    0.57    0.36
  -8   0  -7    0.09    0.28
  -8   0  -8    7.49    0.90
  -8   0  -9    0.52    0.34
  -8   0 -10   79.19    2.55
  -8   0 -10   77.25    2.33
  -8   0 -11    0.60    0.29
  -8   1  15    0.28    0.16
  -8   1  14    1.21    0.32
  -8  -1  14    1.44    0.29
  -8   1  13   39.47    1.70
  -8  -1  13   40.15    1.56
  -8   1  12   13.51    1.04
  -8   1  12   13.65    1.03
  -8  -1  12   13.18    0.96
  -8   1  11    0.28    0.19
  -8   1  11    0.65    0.27
  -8  -1  11    0.27    0.18
  -8   1  10    8.97    0.89
  -8   1  10    7.34    0.83
  -8  -1  10    8.33    0.85
  -8   1   9    2.48    0.47
  -8   1   9    2.12    0.47
  -8  -1   9    2.04    0.45
  -8   1   8    7.68    0.83
  -8   1   8    7.57    0.92
  -8  -1   8    6.76    0.84
  -8   1   7    0.55    0.24
  -8  -1   7    0.00    0.17
  -8   1   7    0.36    0.23
  -8  -1   6    0.76    0.31
  -8   1   6    0.80    0.37
  -8   1   5   37.41    2.00
  -8  -1   5   39.35    1.96
  -8   1   5   40.39    2.29
  -8   1   4   24.37    1.63
  -8  -1   4   23.47    1.50
  -8   1   4   27.52    1.95
  -8   1   3    6.24    0.84
  -8  -1   3    5.20    0.73
  -8   1   2   36.82    1.73
  -8   1   2   35.23    1.96
  -8  -1   2   33.98    1.79
  -8   1   1    5.48    0.69
  -8   1   1    5.73    0.78
  -8  -1   1    4.18    0.63
  -8   1   0    3.79    0.62
  -8   1   0    3.66    0.65
  -8  -1   0    3.93    0.65
  -8   1   0    4.94    0.91
  -8   1  -1    2.65    0.59
  -8   1  -1    2.00    0.50
  -8  -1  -1    1.48    0.46
  -8   1  -1    1.60    0.58
  -8   1  -2   11.76    1.11
  -8   1  -2   11.94    1.13
  -8   1  -2   14.96    1.48
  -8   1  -3   21.88    1.52
  -8   1  -3   22.85    1.55
  -8   1  -4    0.67    0.45
  -8   1  -4    0.41    0.27
  -8   1  -5   26.31    1.71
  -8   1  -5   27.98    1.67
  -8   1  -6    0.35    0.35
  -8   1  -6    0.84    0.29
  -8   1  -7    0.52    0.40
  -8   1  -8    0.31    0.32
  -8   1  -9   18.01    1.31
  -8   1 -10   17.86    1.22
  -8   1 -11    1.04    0.36
  -8   1 -12    0.49    0.25
  -8   2  15    0.06    0.11
  -8   2  14   22.68    1.15
  -8  -2  14   22.24    1.07
  -8   2  13    2.81    0.45
  -8  -2  13    2.76    0.42
  -8   2  12    2.88    0.48
  -8  -2  12    2.62    0.45
  -8   2  11   22.47    1.36
  -8  -2  11   23.87    1.25
  -8  -2  11   26.59    1.46
  -8   2  10    0.85    0.28
  -8   2  10    1.18    0.35
  -8  -2  10    1.02    0.28
  -8   2   9    2.34    0.47
  -8   2   9    2.41    0.52
  -8  -2   9    2.23    0.43
  -8   2   8   16.72    1.20
  -8   2   8   16.72    1.36
  -8   2   7    6.53    0.75
  -8  -2   7    5.77    0.71
  -8   2   7    6.75    0.91
  -8   2   6    1.28    0.34
  -8  -2   6    1.02    0.32
  -8   2   6    1.01    0.38
  -8   2   5    6.22    0.72
  -8  -2   5    6.40    0.77
  -8   2   5    6.61    0.95
  -8   2   4   40.84    1.79
  -8  -2   4   40.48    1.89
  -8   2   3    8.77    0.83
  -8  -2   3    6.64    0.77
  -8   2   3    8.99    1.17
  -8   2   2    0.21    0.30
  -8  -2   2    0.25    0.16
  -8   2   2    0.73    0.37
  -8   2   1   37.12    2.07
  -8   2   1   41.11    2.48
  -8   2   0   19.24    1.23
  -8   2   0   21.41    1.56
  -8   2  -1   16.50    1.18
  -8  -2  -1   17.14    1.28
  -8   2  -2   46.56    2.02
  -8   2  -3    1.39    0.44
  -8   2  -4   20.96    1.42
  -8   2  -5    5.19    0.75
  -8   2  -6    3.11    0.61
  -8   2  -7   74.32    2.66
  -8   2  -8    9.70    0.97
  -8   2  -9    0.60    0.35
  -8   2 -10   22.49    1.28
  -8   2 -11   14.56    0.94
  -8   3  13    0.28    0.17
  -8   3  12    0.46    0.21
  -8  -3  12    0.23    0.17
  -8   3  11   10.91    0.87
  -8   3  10   14.46    1.03
  -8   3   9    0.14    0.15
  -8  -3   9    0.03    0.13
  -8   3   8   11.60    0.96
  -8   3   7   12.93    1.02
  -8   3   6   18.54    1.23
  -8  -3   6   19.29    1.19
  -8   3   5   25.62    1.43
  -8  -3   5   25.46    1.39
  -8   3   4    4.96    0.64
  -8  -3   4    5.10    0.63
  -8   3   3    3.11    0.52
  -8  -3   3    3.09    0.50
  -8   3   2    3.34    0.52
  -8  -3   2    3.01    0.48
  -8   3   1    2.65    0.46
  -8  -3   1    2.88    0.48
  -8   3   0    5.40    0.63
  -8  -3   0    5.56    0.68
  -8  -3  -1   -0.12    0.24
  -8   3  -2    7.32    0.72
  -8  -3  -2    7.22    0.79
  -8   3  -3    3.13    0.51
  -8   3  -4   28.57    1.48
  -8   3  -5    3.87    0.59
  -8   3  -6    0.76    0.33
  -8   3  -7    0.93    0.36
  -8   3  -8   29.89    1.46
  -8   3  -9    2.36    0.42
  -8   3 -10   21.12    1.06
  -8   4  10    6.35    0.60
  -8   4   9    7.64    0.70
  -8   4   8   14.81    1.01
  -8   4   7   10.27    0.86
  -8   4   6    8.78    0.81
  -8   4   5    6.84    0.72
  -8   4   4    0.44    0.23
  -8   4   3   50.69    1.92
  -8   4   2   21.36    1.23
  -8   4   1    3.69    0.51
  -8   4   0    4.72    0.58
  -8  -4  -1    0.53    0.20
  -8  -4  -2    0.05    0.12
  -8  -4  -3    0.66    0.24
  -8  -4  -4    0.55    0.23
  -8  -4  -5   59.82    1.95
  -9   0  10   -0.09    0.13
  -9   0   9    9.12    0.81
  -9   0   8    0.14    0.19
  -9   0   7   25.23    1.48
  -9   0   6   -0.06    0.16
  -9   0   5    5.18    0.74
  -9   0   4   -0.09    0.24
  -9   0   3   -0.10    0.28
  -9   0   3    0.04    0.17
  -9   0   2   -0.17    0.29
  -9   0   2    0.19    0.24
  -9   0   1    1.36    0.41
  -9   0   1    1.43    0.50
  -9   0   0    0.40    0.38
  -9   0   0    0.28    0.37
  -9   0  -1   56.97    2.38
  -9   0  -1   69.72    2.88
  -9   0  -2    0.10    0.20
  -9   0  -2   -0.18    0.29
  -9   0  -3   33.37    1.78
  -9   0  -4   -0.15    0.26
  -9   0  -5   -0.22    0.26
  -9   1   9    2.09    0.39
  -9  -1   9    1.46    0.29
  -9   1   8   28.79    1.51
  -9  -1   8   28.64    1.43
  -9   1   7    2.19    0.47
  -9  -1   7    1.65    0.39
  -9   1   6    0.53    0.29
  -9  -1   6    0.34    0.19
  -9   1   5    9.21    0.98
  -9  -1   5    7.82    0.86
  -9  -1   4    0.10    0.15
  -9   1   4    0.05    0.20
  -9  -1   4    0.55    0.29
  -9  -1   3    3.31    0.55
  -9   1   3    4.07    0.71
  -9  -1   3    3.30    0.64
  -9  -1   2   28.14    1.60
  -9   1   2   35.81    2.05
  -9  -1   1    0.65    0.34
  -9   1   1    0.59    0.31
  -9   1   0   56.97    2.39
  -9  -1   0   51.29    2.20
  -9   1  -1   12.26    1.11
  -9  -1  -1   11.59    1.06
  -9   1  -2    6.70    0.81
  -9  -1  -2    5.87    0.75
  -9   1  -3   19.88    1.32
  -9  -1  -3   18.83    1.32
  -9  -1  -4   15.29    1.16
  -9  -1  -5    3.66    0.56
  -9  -1  -6    7.25    0.75
  -9  -2   7    4.01    0.53
  -9  -2   6   16.41    1.11
  -9  -2   5   19.12    1.28
  -9  -2   4   11.99    0.96
  -9   2   4   15.21    1.18
  -9  -2   3    1.73    0.42
  -9   2   3    1.68    0.42
  -9  -2   2   37.41    1.74
  -9  -2   1    4.54    0.62
  -9  -2   0    0.62    0.28
  -9  -2  -1   25.46    1.46
  -9  -2  -2   13.17    1.03
  -9  -2  -3    4.91    0.65
  -9  -2  -4   -0.12    0.21
  -9  -2  -5    0.06    0.19
   0   0   0    0.00    0.00
;
_shelx_hkl_checksum              16186
_shelx_res_file
;
    shelx.res created by SHELXL-2014/7
TITL shelxt_a.res in P2(1)/n
CELL  1.54178   7.7829   7.4284  21.9087   90.000   94.399   90.000
ZERR     4.00   0.0003   0.0003   0.0007    0.000    0.003    0.000
LATT   1
SYMM  1/2 - X, 1/2 + Y, 1/2 - Z
SFAC  C    H    N    O    S
UNIT  44 56 8 8 8
temp -100
L.S.  10
acta 135
conf
bond $h
htab
HTAB N1 O1
EQIV $1 -x+1/2, y-1/2, -z+1/2
HTAB C10 O2_$1
EQIV $2 x+1, y, z
HTAB C11 O2_$2
omit     1   0   1
omit     0   2   2
omit  -1   1   4
omit   1   2   0
omit    -1   2   1
omit  -1   2   2
omit     0   1   3
omit     1   0   5
omit  -3   0   5
omit  -1   2   3
omit    -5   0   1
omit   2   0   2
omit     3   0   3
omit    -1   3   6
omit    -6   0   2
omit     0   2   3
WGHT    0.078900    0.349800
EXTI    0.007788
FVAR       0.26378
S1    5    0.566032    0.461346    0.250464    11.00000    0.03279    0.03837 =
         0.00970   -0.01010    0.00384   -0.00198
S2    5    0.781518    0.593683    0.361131    11.00000    0.02119    0.03914 =
         0.01511   -0.01051    0.00194   -0.00106
O1    4    0.637240    0.696981    0.512436    11.00000    0.01387    0.03631 =
         0.01389    0.00075   -0.00311    0.00243
O2    4    0.177286    0.755884    0.404526    11.00000    0.01980    0.04602 =
         0.01227   -0.00389   -0.00507    0.00503
N1    3    0.454392    0.664262    0.407151    11.00000    0.01654    0.02511 =
         0.00416   -0.00273   -0.00255    0.00053
H1N   2    0.538867    0.652477    0.428012    11.00000    0.02328
N2    3    0.435060    0.599373    0.347487    11.00000    0.02237    0.02404 =
         0.00609   -0.00240   -0.00073   -0.00182
C1    1    0.499315    0.776212    0.536928    11.00000    0.01747    0.01741 =
         0.00926    0.00409    0.00084   -0.00384
C2    1    0.505984    0.839840    0.596793    11.00000    0.02791    0.02928 =
         0.00873    0.00240   -0.00560   -0.00719
AFIX  43
H2A   2    0.609308    0.828123    0.622524    11.00000   -1.20000
AFIX   0
C3    1    0.362788    0.920223    0.619119    11.00000    0.04043    0.03057 =
         0.00896   -0.00520    0.00245   -0.00685
AFIX  43
H3A   2    0.369238    0.964855    0.659866    11.00000   -1.20000
AFIX   0
C4    1    0.210822    0.935951    0.582607    11.00000    0.03164    0.02701 =
         0.01741   -0.00431    0.00956    0.00103
AFIX  43
H4A   2    0.112316    0.990273    0.597914    11.00000   -1.20000
AFIX   0
C5    1    0.204890    0.871049    0.523317    11.00000    0.01913    0.02032 =
         0.01376    0.00044    0.00130   -0.00108
AFIX  43
H5A   2    0.100028    0.880868    0.498332    11.00000   -1.20000
AFIX   0
C6    1    0.346022    0.792101    0.498822    11.00000    0.01765    0.01388 =
         0.00644    0.00298    0.00061   -0.00235
C7    1    0.798002    0.692560    0.548495    11.00000    0.01665    0.03770 =
         0.03166    0.00637   -0.00927   -0.00211
AFIX 137
H7A   2    0.885859    0.637450    0.524748    11.00000   -1.50000
H7B   2    0.785563    0.621635    0.585615    11.00000   -1.50000
H7C   2    0.832915    0.815562    0.559870    11.00000   -1.50000
AFIX   0
C8    1    0.317950    0.735555    0.432791    11.00000    0.01571    0.01901 =
         0.00680    0.00274   -0.00133   -0.00190
C9    1    0.575761    0.557572    0.323880    11.00000    0.02339    0.01927 =
         0.00845   -0.00035    0.00127   -0.00137
C10   1    0.338234    0.449921    0.232615    11.00000    0.03573    0.05882 =
         0.02266   -0.01898   -0.00855    0.00330
AFIX 137
H10A  2    0.314112    0.384932    0.193980    11.00000   -1.50000
H10B  2    0.291146    0.572071    0.228616    11.00000   -1.50000
H10C  2    0.284591    0.386497    0.265467    11.00000   -1.50000
AFIX   0
C11   1    0.927555    0.488755    0.312710    11.00000    0.02615    0.04164 =
         0.02101   -0.00586    0.00469    0.00645
AFIX 137
H11A  2    1.046363    0.510769    0.329150    11.00000   -1.50000
H11B  2    0.910442    0.539254    0.271366    11.00000   -1.50000
H11C  2    0.905742    0.358844    0.311127    11.00000   -1.50000
AFIX   0
HKLF 4
REM  shelxt_a.res in P2(1)/n
REM R1 =  0.0460 for    2189 Fo > 4sig(Fo)  and  0.0486 for all    2367 data
REM    162 parameters refined using      0 restraints
END
WGHT      0.0787      0.3475
REM Instructions for potential hydrogen bonds
HTAB N1 O1
HTAB C10 O2_$1
HTAB C11 O2_$2
REM Highest difference peak  0.373,  deepest hole -0.330,  1-sigma level  0.082
Q1    1   0.5776  0.4651  0.3072  11.00000  0.05    0.37
Q2    1   0.5536  0.4571  0.1914  11.00000  0.05    0.33
Q3    1   0.8103  0.5946  0.4176  11.00000  0.05    0.33
Q4    1   0.6860  0.3772  0.2745  11.00000  0.05    0.32
Q5    1   0.3052  0.6424  0.5150  11.00000  0.05    0.32
Q6    1   0.3941  0.3010  0.1514  11.00000  0.05    0.31
Q7    1   0.6874  0.6519  0.3401  11.00000  0.05    0.31
Q8    1   0.6562  0.5844  0.2388  11.00000  0.05    0.30
Q9    1   0.5603  0.7150  0.5233  11.00000  0.05    0.29
Q10   1   0.4483  0.3849  0.2304  11.00000  0.05    0.29
Q11   1   0.2678  0.7783  0.5142  11.00000  0.05    0.27
Q12   1   0.4628  0.4912  0.2286  11.00000  0.05    0.26
Q13   1   0.6805  0.4835  0.3758  11.00000  0.05    0.26
Q14   1   0.4353  0.8651  0.6143  11.00000  0.05    0.25
Q15   1   0.1197  0.6247  0.3846  11.00000  0.05    0.25
Q16   1   0.7678  0.6139  0.3047  11.00000  0.05    0.24
Q17   1   0.8900  0.7248  0.3577  11.00000  0.05    0.24
Q18   1   0.4457  0.6402  0.3508  11.00000  0.05    0.24
Q19   1   0.7719  0.2978  0.2382  11.00000  0.05    0.23
Q20   1   0.3050  0.8904  0.3875  11.00000  0.05    0.23
;
_shelx_res_checksum              90949
loop_
_space_group_symop_operation_xyz
'x, y, z'
'-x+1/2, y+1/2, -z+1/2'
'-x, -y, -z'
'x-1/2, -y-1/2, z-1/2'
loop_
_atom_site_type_symbol
_atom_site_label
_atom_site_fract_x
_atom_site_fract_y
_atom_site_fract_z
_atom_site_U_iso_or_equiv
_atom_site_adp_type
_atom_site_calc_flag
_atom_site_occupancy
S S1 0.56603(7) 0.46135(8) 0.25046(2) 0.0268(2) Uani d 1
S S2 0.78152(6) 0.59368(8) 0.36113(2) 0.0251(2) Uani d 1
O O1 0.63724(17) 0.6970(2) 0.51244(6) 0.0216(3) Uani d 1
O O2 0.17729(18) 0.7559(2) 0.40453(6) 0.0264(4) Uani d 1
N N1 0.4544(2) 0.6643(2) 0.40715(7) 0.0154(4) Uani d 1
H H1N 0.539(3) 0.652(3) 0.4280(12) 0.023(6) Uiso d 1
N N2 0.4351(2) 0.5994(2) 0.34749(7) 0.0176(4) Uani d 1
C C1 0.4993(2) 0.7762(3) 0.53693(8) 0.0147(4) Uani d 1
C C2 0.5060(3) 0.8398(3) 0.59679(8) 0.0223(5) Uani d 1
H H2A 0.6093 0.8281 0.6225 0.027 Uiso calc 1
C C3 0.3628(3) 0.9202(3) 0.61912(9) 0.0266(5) Uani d 1
H H3A 0.3692 0.9649 0.6599 0.032 Uiso calc 1
C C4 0.2108(3) 0.9360(3) 0.58261(10) 0.0250(5) Uani d 1
H H4A 0.1123 0.9903 0.5979 0.030 Uiso calc 1
C C5 0.2049(3) 0.8710(3) 0.52332(9) 0.0177(4) Uani d 1
H H5A 0.1000 0.8809 0.4983 0.021 Uiso calc 1
C C6 0.3460(2) 0.7921(2) 0.49882(8) 0.0127(4) Uani d 1
C C7 0.7980(3) 0.6926(3) 0.54850(11) 0.0292(5) Uani d 1
H H7A 0.8859 0.6375 0.5247 0.044 Uiso calc 1
H H7B 0.7856 0.6216 0.5856 0.044 Uiso calc 1
H H7C 0.8329 0.8156 0.5599 0.044 Uiso calc 1
C C8 0.3180(2) 0.7356(3) 0.43279(8) 0.0139(4) Uani d 1
C C9 0.5758(3) 0.5576(3) 0.32388(8) 0.0170(4) Uani d 1
C C10 0.3382(3) 0.4499(4) 0.23262(11) 0.0396(6) Uani d 1
H H10A 0.3141 0.3849 0.1940 0.059 Uiso calc 1
H H10B 0.2911 0.5721 0.2286 0.059 Uiso calc 1
H H10C 0.2846 0.3865 0.2655 0.059 Uiso calc 1
C C11 0.9276(3) 0.4888(3) 0.31271(10) 0.0295(5) Uani d 1
H H11A 1.0464 0.5108 0.3291 0.044 Uiso calc 1
H H11B 0.9104 0.5393 0.2714 0.044 Uiso calc 1
H H11C 0.9057 0.3588 0.3111 0.044 Uiso calc 1
loop_
_atom_site_aniso_label
_atom_site_aniso_U_11
_atom_site_aniso_U_22
_atom_site_aniso_U_33
_atom_site_aniso_U_12
_atom_site_aniso_U_13
_atom_site_aniso_U_23
S1 0.0328(3) 0.0384(4) 0.0097(3) -0.0020(2) 0.0038(2) -0.01010(19)
S2 0.0212(3) 0.0391(4) 0.0151(3) -0.0011(2) 0.0019(2) -0.0105(2)
O1 0.0139(7) 0.0363(8) 0.0139(7) 0.0024(6) -0.0031(5) 0.0007(6)
O2 0.0198(7) 0.0460(10) 0.0123(7) 0.0050(7) -0.0051(5) -0.0039(6)
N1 0.0165(8) 0.0251(9) 0.0042(7) 0.0005(7) -0.0025(6) -0.0027(6)
N2 0.0224(8) 0.0240(9) 0.0061(7) -0.0018(7) -0.0007(6) -0.0024(6)
C1 0.0175(9) 0.0174(9) 0.0093(8) -0.0038(7) 0.0008(7) 0.0041(7)
C2 0.0279(11) 0.0293(11) 0.0087(9) -0.0072(9) -0.0056(7) 0.0024(8)
C3 0.0404(13) 0.0306(11) 0.0090(9) -0.0068(9) 0.0024(8) -0.0052(8)
C4 0.0316(12) 0.0270(11) 0.0174(10) 0.0010(9) 0.0096(9) -0.0043(8)
C5 0.0191(9) 0.0203(9) 0.0138(9) -0.0011(7) 0.0013(7) 0.0004(7)
C6 0.0177(9) 0.0139(8) 0.0064(8) -0.0024(7) 0.0006(6) 0.0030(6)
C7 0.0166(10) 0.0377(13) 0.0317(12) -0.0021(9) -0.0093(8) 0.0064(10)
C8 0.0157(9) 0.0190(9) 0.0068(8) -0.0019(7) -0.0013(6) 0.0027(7)
C9 0.0234(10) 0.0193(9) 0.0084(8) -0.0014(7) 0.0013(7) -0.0004(7)
C10 0.0357(14) 0.0588(17) 0.0227(11) 0.0033(12) -0.0086(10) -0.0190(11)
C11 0.0262(11) 0.0416(13) 0.0210(11) 0.0064(10) 0.0047(9) -0.0059(10)
loop_
_atom_type_symbol
_atom_type_description
_atom_type_scat_dispersion_real
_atom_type_scat_dispersion_imag
_atom_type_scat_source
C C 0.0181 0.0091 'International Tables Vol C Tables 4.2.6.8 and 6.1.1.4'
H H 0.0000 0.0000 'International Tables Vol C Tables 4.2.6.8 and 6.1.1.4'
N N 0.0311 0.0180 'International Tables Vol C Tables 4.2.6.8 and 6.1.1.4'
O O 0.0492 0.0322 'International Tables Vol C Tables 4.2.6.8 and 6.1.1.4'
S S 0.3331 0.5567 'International Tables Vol C Tables 4.2.6.8 and 6.1.1.4'
loop_
_geom_angle_atom_site_label_1
_geom_angle_atom_site_label_2
_geom_angle_atom_site_label_3
_geom_angle
C9 S1 C10 101.07(10)
C9 S2 C11 104.77(10)
C1 O1 C7 118.23(16)
C8 N1 N2 119.76(16)
C8 N1 H1N 117.2(19)
N2 N1 H1N 122.7(19)
C9 N2 N1 115.35(16)
O1 C1 C2 122.80(17)
O1 C1 C6 117.25(16)
C2 C1 C6 119.95(18)
C3 C2 C1 120.40(18)
C3 C2 H2A 119.8
C1 C2 H2A 119.8
C4 C3 C2 120.53(18)
C4 C3 H3A 119.7
C2 C3 H3A 119.7
C3 C4 C5 118.7(2)
C3 C4 H4A 120.7
C5 C4 H4A 120.7
C4 C5 C6 122.66(19)
C4 C5 H5A 118.7
C6 C5 H5A 118.7
C5 C6 C1 117.76(16)
C5 C6 C8 115.35(16)
C1 C6 C8 126.88(16)
O1 C7 H7A 109.5
O1 C7 H7B 109.5
H7A C7 H7B 109.5
O1 C7 H7C 109.5
H7A C7 H7C 109.5
H7B C7 H7C 109.5
O2 C8 N1 122.69(16)
O2 C8 C6 120.62(16)
N1 C8 C6 116.69(15)
N2 C9 S1 119.27(15)
N2 C9 S2 123.33(14)
S1 C9 S2 117.39(11)
S1 C10 H10A 109.5
S1 C10 H10B 109.5
H10A C10 H10B 109.5
S1 C10 H10C 109.5
H10A C10 H10C 109.5
H10B C10 H10C 109.5
S2 C11 H11A 109.5
S2 C11 H11B 109.5
H11A C11 H11B 109.5
S2 C11 H11C 109.5
H11A C11 H11C 109.5
H11B C11 H11C 109.5
loop_
_geom_bond_atom_site_label_1
_geom_bond_atom_site_label_2
_geom_bond_distance
S1 C9 1.7564(19)
S1 C10 1.788(3)
S2 C9 1.761(2)
S2 C11 1.792(2)
O1 C1 1.369(2)
O1 C7 1.428(2)
O2 C8 1.225(2)
N1 C8 1.347(2)
N1 N2 1.391(2)
N1 H1N 0.78(3)
N2 C9 1.285(3)
C1 C2 1.391(3)
C1 C6 1.408(2)
C2 C3 1.386(3)
C2 H2A 0.9500
C3 C4 1.381(3)
C3 H3A 0.9500
C4 C5 1.383(3)
C4 H4A 0.9500
C5 C6 1.389(3)
C5 H5A 0.9500
C6 C8 1.506(2)
C7 H7A 0.9800
C7 H7B 0.9800
C7 H7C 0.9800
C10 H10A 0.9800
C10 H10B 0.9800
C10 H10C 0.9800
C11 H11A 0.9800
C11 H11B 0.9800
C11 H11C 0.9800
loop_
_geom_hbond_atom_site_label_D
_geom_hbond_atom_site_label_H
_geom_hbond_atom_site_label_A
_geom_hbond_site_symmetry_A
_geom_hbond_distance_DH
_geom_hbond_distance_HA
_geom_hbond_distance_DA
_geom_hbond_angle_DHA
N1 H1N O1 . 0.78(3) 1.97(3) 2.627(2) 141(2)
C10 H10A O2 2_545 0.98 2.37 3.326(3) 165.9
C11 H11A O2 1_655 0.98 2.61 3.341(3) 131.3
loop_
_geom_torsion_atom_site_label_1
_geom_torsion_atom_site_label_2
_geom_torsion_atom_site_label_3
_geom_torsion_atom_site_label_4
_geom_torsion
C8 N1 N2 C9 170.57(17)
C7 O1 C1 C2 -5.0(3)
C7 O1 C1 C6 174.99(17)
O1 C1 C2 C3 179.51(18)
C6 C1 C2 C3 -0.5(3)
C1 C2 C3 C4 1.0(3)
C2 C3 C4 C5 -0.4(3)
C3 C4 C5 C6 -0.6(3)
C4 C5 C6 C1 1.0(3)
C4 C5 C6 C8 -177.78(18)
O1 C1 C6 C5 179.54(16)
C2 C1 C6 C5 -0.5(3)
O1 C1 C6 C8 -1.8(3)
C2 C1 C6 C8 178.17(18)
N2 N1 C8 O2 -4.3(3)
N2 N1 C8 C6 176.21(15)
C5 C6 C8 O2 -1.7(3)
C1 C6 C8 O2 179.63(19)
C5 C6 C8 N1 177.76(17)
C1 C6 C8 N1 -0.9(3)
N1 N2 C9 S1 176.15(13)
N1 N2 C9 S2 -4.5(3)
C10 S1 C9 N2 -1.1(2)
C10 S1 C9 S2 179.49(14)
C11 S2 C9 N2 173.48(18)
C11 S2 C9 S1 -7.15(15)

_cod_database_fobs_code 1546698
