#------------------------------------------------------------------------------
#$Date: 2017-07-25 05:22:00 +0300 (Tue, 25 Jul 2017) $
#$Revision: 198995 $
#$URL: file:///home/coder/svn-repositories/cod/cif/1/54/66/1546606.cif $
#------------------------------------------------------------------------------
#
# This file is available in the Crystallography Open Database (COD),
# http://www.crystallography.net/
#
# All data on this site have been placed in the public domain by the
# contributors.
#
data_1546606
loop_
_publ_author_name
'Asanuma, Yuki'
'Eguchi, Hiroshi'
'Nishiyama, Hiroki'
'Tomita, Ikuyoshi'
'Inagi, Shinsuke'
_publ_section_title
;
 Synthesis of Ring-Fused Pyridinium Salts by Intramolecular Nucleophilic
 Aromatic Substitution Reaction and Their Optoelectronic Properties.
;
_journal_name_full               'Organic letters'
_journal_paper_doi               10.1021/acs.orglett.7b00590
_journal_year                    2017
_chemical_formula_sum            'C30 H16 F8 N2 O6 S2'
_chemical_formula_weight         716.57
_space_group_crystal_system      triclinic
_space_group_IT_number           2
_space_group_name_Hall           '-P 1'
_space_group_name_H-M_alt        'P -1'
_symmetry_space_group_name_Hall  '-P 1'
_symmetry_space_group_name_H-M   'P -1'
_atom_sites_solution_hydrogens   geom
_audit_creation_method           SHELXL-2014/7
_cell_angle_alpha                69.659(5)
_cell_angle_beta                 83.463(6)
_cell_angle_gamma                74.090(5)
_cell_formula_units_Z            1
_cell_length_a                   8.2750(10)
_cell_length_b                   8.3407(9)
_cell_length_c                   11.0735(10)
_cell_measurement_reflns_used    5798
_cell_measurement_temperature    93(2)
_cell_measurement_theta_max      27.46
_cell_measurement_theta_min      3.20
_cell_volume                     689.03(13)
_computing_cell_refinement       'RAPID AUTO'
_computing_data_collection       'RAPID AUTO'
_computing_data_reduction        'RAPID AUTO'
_computing_publication_material  'Yadokari-XG (Wakita, Nemoto et al., 2009)'
_computing_structure_refinement  'SHELXL-2014/7 (Sheldrick, 2014)'
_computing_structure_solution    'SHELXT Version 2014/4 (Sheldrick, 2014)'
_diffrn_ambient_temperature      93(2)
_diffrn_measured_fraction_theta_full 0.995
_diffrn_measured_fraction_theta_max 0.993
_diffrn_measurement_device_type  'rigaku raxis rapid'
_diffrn_measurement_method       'oscillation method'
_diffrn_radiation_type           MoK\a
_diffrn_radiation_wavelength     0.71075
_diffrn_reflns_av_R_equivalents  0.0225
_diffrn_reflns_av_unetI/netI     0.0349
_diffrn_reflns_Laue_measured_fraction_full 0.995
_diffrn_reflns_Laue_measured_fraction_max 0.993
_diffrn_reflns_limit_h_max       10
_diffrn_reflns_limit_h_min       -10
_diffrn_reflns_limit_k_max       9
_diffrn_reflns_limit_k_min       -10
_diffrn_reflns_limit_l_max       13
_diffrn_reflns_limit_l_min       -14
_diffrn_reflns_number            6746
_diffrn_reflns_point_group_measured_fraction_full 0.995
_diffrn_reflns_point_group_measured_fraction_max 0.993
_diffrn_reflns_theta_full        25.242
_diffrn_reflns_theta_max         27.462
_diffrn_reflns_theta_min         3.194
_exptl_absorpt_coefficient_mu    0.300
_exptl_absorpt_correction_T_max  1.0000
_exptl_absorpt_correction_T_min  0.7725
_exptl_absorpt_correction_type   multi-scan
_exptl_absorpt_process_details   'ABSCOR (Rigaku, 1995)'
_exptl_crystal_colour            ' yellow '
_exptl_crystal_density_diffrn    1.727
_exptl_crystal_description       ' brock '
_exptl_crystal_F_000             362
_exptl_crystal_size_max          0.400
_exptl_crystal_size_mid          0.110
_exptl_crystal_size_min          0.090
_refine_diff_density_max         0.548
_refine_diff_density_min         -0.287
_refine_diff_density_rms         0.109
_refine_ls_extinction_method     none
_refine_ls_goodness_of_fit_ref   1.082
_refine_ls_hydrogen_treatment    constr
_refine_ls_matrix_type           full
_refine_ls_number_parameters     217
_refine_ls_number_reflns         3128
_refine_ls_number_restraints     0
_refine_ls_restrained_S_all      1.082
_refine_ls_R_factor_all          0.0556
_refine_ls_R_factor_gt           0.0433
_refine_ls_shift/su_max          0.000
_refine_ls_shift/su_mean         0.000
_refine_ls_structure_factor_coef Fsqd
_refine_ls_weighting_details
'w=1/[\s^2^(Fo^2^)+(0.0562P)^2^+0.2457P] where P=(Fo^2^+2Fc^2^)/3'
_refine_ls_weighting_scheme      calc
_refine_ls_wR_factor_gt          0.0981
_refine_ls_wR_factor_ref         0.1035
_reflns_Friedel_coverage         0.000
_reflns_number_gt                2647
_reflns_number_total             3128
_reflns_threshold_expression     'I > 2\s(I)'
_cod_data_source_file            ol7b00590_si_002.cif
_cod_data_source_block           4a
_cod_database_code               1546606
_shelx_shelxl_version_number     2014/7
_shelx_space_group_comment
;
The symmetry employed for this shelxl refinement is uniquely defined
by the following loop, which should always be used as a source of
symmetry information in preference to the above space-group names.
They are only intended as comments.
;
_shelx_estimated_absorpt_t_min   0.890
_shelx_estimated_absorpt_t_max   0.974
_shelx_res_file
;

    asa5.res created by SHELXL-2014/7

TITL asa5_a.res in P-1
REM  Yadorkari-X generated
CELL 0.71075 8.2750 8.3407 11.0735 69.6590 83.4630 74.0900
ZERR 1.0 0.0010 0.0009 0.0010 0.0050 0.0060 0.0050
LATT 1
REM  SPGR P-1 triclinic
SFAC C H F N O S
UNIT 30 16 8 2 6 2
SIZE 0.40 0.11 0.09
TEMP -180.0
L.S. 10
FMAP 2
PLAN -20
ACTA
CONF
LIST 4
BOND $H
MERG 2
OMIT -10.000000 55.000000

WGHT    0.056200    0.245700
FVAR       2.17818
C1    1    0.505803    0.168914    0.416421    11.00000    0.01845    0.01917 =
         0.01358   -0.00394   -0.00093   -0.00822
C2    1    0.626288    0.018102    0.411428    11.00000    0.01717    0.02460 =
         0.01348   -0.00624    0.00281   -0.00844
C3    1    0.620256   -0.153918    0.485690    11.00000    0.01602    0.02055 =
         0.01490   -0.00499   -0.00155   -0.00552
C4    1    0.585072    0.351980    0.206191    11.00000    0.02211    0.02457 =
         0.01689   -0.00660    0.00179   -0.00936
AFIX  43
H4    2    0.631550    0.247840    0.184359    11.00000   -1.20000
AFIX   0
C5    1    0.598773    0.510336    0.120368    11.00000    0.02285    0.02865 =
         0.01669   -0.00497    0.00156   -0.01084
AFIX  43
H5    2    0.658450    0.515998    0.041064    11.00000   -1.20000
AFIX   0
C6    1    0.524818    0.664162    0.149402    11.00000    0.02578    0.02296 =
         0.02362   -0.00152   -0.00053   -0.01042
AFIX  43
H6    2    0.538489    0.775291    0.092760    11.00000   -1.20000
AFIX   0
C7    1    0.431676    0.652084    0.261582    11.00000    0.02383    0.02101 =
         0.02311   -0.00378   -0.00103   -0.00632
AFIX  43
H7    2    0.375424    0.757311    0.279510    11.00000   -1.20000
AFIX   0
C8    1    0.417223    0.489651    0.350079    11.00000    0.01637    0.02065 =
         0.01854   -0.00562   -0.00290   -0.00623
C9    1    0.307201    0.476311    0.463273    11.00000    0.01619    0.02103 =
         0.01694   -0.00486   -0.00368   -0.00444
C10   1    0.223931    0.630728    0.492267    11.00000    0.02205    0.02090 =
         0.02198   -0.00600   -0.00331   -0.00538
AFIX  43
H10   2    0.245509    0.740782    0.440756    11.00000   -1.20000
AFIX   0
C11   1    0.111222    0.623338    0.594954    11.00000    0.02182    0.02389 =
         0.02467   -0.01119   -0.00424   -0.00064
AFIX  43
H11   2    0.055094    0.727969    0.613733    11.00000   -1.20000
AFIX   0
C12   1    0.080330    0.462468    0.670558    11.00000    0.02158    0.03034 =
         0.01921   -0.01008    0.00206   -0.00367
AFIX  43
H12   2    0.003065    0.457583    0.741323    11.00000   -1.20000
AFIX   0
C13   1    0.160463    0.309520    0.644208    11.00000    0.02305    0.02557 =
         0.01809   -0.00732    0.00311   -0.00675
AFIX  43
H13   2    0.137097    0.200778    0.696809    11.00000   -1.20000
AFIX   0
C14   1    0.276706    0.312236    0.540198    11.00000    0.01585    0.02190 =
         0.01524   -0.00624   -0.00133   -0.00579
S1    6    1.251078    0.148879    0.195300    11.00000    0.02154    0.01939 =
         0.01615   -0.00524    0.00071   -0.00711
F1    3    0.761941    0.037730    0.333472    11.00000    0.02230    0.02418 =
         0.02499   -0.00541    0.01064   -0.00867
F2    3    0.949807    0.204465    0.110568    11.00000    0.01965    0.05887 =
         0.03895   -0.01079   -0.00024   -0.00973
F3    3    1.143695    0.211666   -0.035264    11.00000    0.03782    0.06462 =
         0.01693   -0.00411   -0.00176   -0.02261
O1    5    1.415748    0.072226    0.152044    11.00000    0.02195    0.02511 =
         0.02768   -0.01046    0.00049   -0.00559
F4    3    1.120992   -0.037123    0.103139    11.00000    0.05505    0.03649 =
         0.04874   -0.01455   -0.02041   -0.01660
O2    5    1.199932    0.045185    0.320713    11.00000    0.03565    0.02804 =
         0.01635   -0.00293    0.00054   -0.01252
O3    5    1.215960    0.335629    0.173053    11.00000    0.03051    0.02202 =
         0.02960   -0.00912    0.00550   -0.00831
N1    4    0.505272    0.338922    0.324241    11.00000    0.01786    0.01978 =
         0.01372   -0.00367   -0.00021   -0.00765
C15   1    1.108908    0.131039    0.087782    11.00000    0.02302    0.03141 =
         0.02003   -0.00422   -0.00095   -0.00866

HKLF 4

REM  asa5_a.res in P-1
REM R1 =  0.0433 for    2647 Fo > 4sig(Fo)  and  0.0556 for all    3128 data
REM    217 parameters refined using      0 restraints

END

WGHT      0.0562      0.2457

REM Highest difference peak  0.548,  deepest hole -0.287,  1-sigma level  0.109
Q1    1   0.5013  0.2599  0.3635  11.00000  0.05    0.55
Q2    1   0.6856 -0.3969  0.4934  11.00000  0.05    0.53
Q3    1   0.4519  0.1651  0.4717  11.00000  0.05    0.53
Q4    1   1.2424  0.2545  0.1786  11.00000  0.05    0.50
Q5    1   0.4552  0.4148  0.3394  11.00000  0.05    0.49
Q6    1   1.3497  0.1123  0.1752  11.00000  0.05    0.49
Q7    1   0.3723  0.4805  0.4157  11.00000  0.05    0.49
Q8    1   1.3561  0.1528  0.1603  11.00000  0.05    0.47
Q9    1   0.3914  0.0589  0.5537  11.00000  0.05    0.47
Q10   1   0.5577  0.0878  0.4142  11.00000  0.05    0.46
Q11   1   0.7593 -0.3179  0.3990  11.00000  0.05    0.46
Q12   1   0.2800  0.5440  0.4891  11.00000  0.05    0.44
Q13   1   1.1942  0.1569  0.1221  11.00000  0.05    0.43
Q14   1   0.4260  0.5659  0.3064  11.00000  0.05    0.43
Q15   1   0.3220  0.2333  0.5277  11.00000  0.05    0.41
Q16   1   0.5661  0.3449  0.2788  11.00000  0.05    0.41
Q17   1   0.4577  0.6439  0.1984  11.00000  0.05    0.40
Q18   1   0.5734  0.5880  0.1426  11.00000  0.05    0.40
Q19   1   1.2135  0.1365  0.2788  11.00000  0.05    0.40
Q20   1   0.1516  0.6289  0.5275  11.00000  0.05    0.39
;
_shelx_res_checksum              19413
_shelx_hkl_file
;
   0   0   2 1150.59   14.55
   0   0   2 1151.03    9.87
   0   0  -2 1130.61   21.22
   0   0   3 3923.00   51.54
   0   0   3 3900.99   45.38
   0   0  -3 3838.84   62.17
   0   0   4 9704.24  201.71
   0   0   4 9840.93  170.04
   0   0   410115.21  172.80
   0   0  -4 9808.32  184.01
   0   0   5 1136.40   27.24
   0   0   5 1070.87   14.08
   0   0   5 1100.70   14.37
   0   0  -5 1083.77   18.51
   0   0   6 6220.92  104.59
   0   0   6 6300.63   85.39
   0   0   6 6158.05   89.48
   0   0  -6 6611.02  124.59
   0   0   7  617.83   17.55
   0   0   7  603.12   10.97
   0   0  -7  667.20   17.25
   0   0   8 1183.34   16.53
   0   0   8 1173.20   16.70
   0   0  -8 1220.35   24.77
   0   0   9  831.60   14.87
   0   0  -9  837.26   22.57
   0   0  10  402.95   11.15
   0   0 -10  415.64   30.52
   0   0  11   70.30    9.80
   0   0  11   71.85    8.03
   0   0 -11  110.20   28.54
   0   0 -12  168.34   20.25
   0   0 -13 1191.45   37.60
   0   1 -12  362.13   35.31
   0   1 -11  -12.01   26.06
   0  -1  11   13.15   12.05
   0  -1  11    3.83   13.56
   0   1 -10 1364.30   30.99
   0  -1  10 1280.45   26.20
   0  -1  10 1358.00   26.82
   0   1  -9 4377.64   94.35
   0  -1   9 4340.33   79.96
   0  -1   9 4176.32   59.94
   0  -1   9 4244.90   69.68
   0   1  -8 1609.22   28.95
   0  -1   8 1615.89   30.45
   0  -1   8 1591.87   27.39
   0   1  -7   29.40   18.06
   0  -1   7   11.39   11.27
   0  -1   7    1.29   11.29
   0  -1   7    8.67   10.77
   0   1  -6  153.78   10.87
   0  -1   6  176.50   11.23
   0  -1   6  144.62    7.54
   0   1  -5 4009.58   56.34
   0  -1   5 3957.13   56.48
   0  -1   5 3904.25   57.64
   0   1  -4 9788.10  179.00
   0  -1   4 9693.56  195.50
   0  -1   4 9294.40  178.34
   0   1  -3   16.16    7.34
   0  -1   3    3.11   12.47
   0  -1   3   21.49    7.06
   0   1  -2 1890.13   27.70
   0   1  -2 1946.76   23.08
   0  -1   2 1938.92   28.23
   0   1  -142819.41 1970.91
   0  -1   142718.25 1934.15
   0  -1   141121.21 1953.83
   0   1   2 4675.02   49.03
   0  -1  -2 4643.45   49.66
   0  -1  -3   86.88   16.12
   0  -1  -3   55.31    3.10
   0   1   5 4043.80   39.00
   0  -1  -5 3901.26   57.33
   0   1   6 1102.42    9.15
   0  -1  -6 1123.06   20.69
   0   1   7   16.41    3.02
   0   1   7    3.39    3.46
   0  -1  -7   14.92   19.27
   0   1   8  190.42    3.79
   0  -1  -8  242.88   23.55
   0  -1  -9 7184.59  168.04
   0  -1 -10  485.66   21.87
   0  -1 -11  192.88   19.90
   0  -1 -12    5.31   19.01
   0  -1 -13  169.41   23.60
   0   2 -12  769.46   41.10
   0   2 -11  254.05   19.20
   0  -2  11  236.28   20.39
   0  -2  11  218.27   20.97
   0   2 -10   89.89   25.11
   0  -2  10   81.72   17.96
   0  -2  10   65.72   17.66
   0   2  -9  146.51   23.40
   0  -2   9  120.68   26.25
   0  -2   9  130.47   18.25
   0  -2   9  153.66   10.88
   0   2  -8   84.76   12.82
   0  -2   8   90.94   22.42
   0  -2   8   98.54   10.42
   0  -2   8  127.29   15.87
   0   2  -7   62.02   10.88
   0  -2   7   58.72   11.94
   0  -2   7   68.35   14.53
   0   2  -6   17.52    9.55
   0  -2   6   10.35   16.07
   0  -2   6   11.82   13.99
   0   2  -5 4358.05   72.78
   0  -2   5 4446.21   64.99
   0  -2   5 4262.18   74.10
   0   2  -4 4463.60   62.13
   0  -2   4 4546.81   62.57
   0  -2   4 4511.62   64.88
   0   2  -3 2207.54   28.93
   0  -2   3 2214.37   26.12
   0  -2   3 2176.76   38.97
   0   2  -2   -2.18   15.36
   0  -2   2    5.68    5.90
   0  -2   2   24.14    9.19
   0   2  -1 1806.67   24.73
   0  -2   1 1740.63   25.57
   0   2   0  363.99   11.79
   0  -2   0  393.17   19.57
   0   2   126896.46  897.09
   0  -2  -126757.78  899.16
   0   2   2 2661.26   29.99
   0  -2  -2 2511.93   35.89
   0   2   3 3018.44   35.93
   0  -2  -3 2903.14   35.29
   0   2   4 2339.63   23.29
   0  -2  -4 2324.45   32.83
   0  -2  -4 2297.92   26.02
   0   2   5  811.80    6.53
   0  -2  -5  831.12   17.55
   0  -2  -5  841.80    8.19
   0  -2  -6 1101.61   31.00
   0  -2  -7   17.00   12.26
   0  -2  -8  309.08   16.99
   0  -2  -9 1909.52   37.86
   0  -2 -10  -13.12   16.95
   0  -2 -11   67.89   18.98
   0  -2 -12   49.03   21.53
   0  -2 -13  152.41   25.05
   0  -2 -14   59.56   25.83
   0  -3  11  236.12   16.50
   0  -3  11  230.94   25.13
   0  -3  10  231.74   19.68
   0  -3  10  250.44   25.43
   0  -3  10  225.59   23.54
   0  -3   9  133.73   16.11
   0  -3   9  134.89   22.30
   0  -3   9  142.57   21.16
   0  -3   8   90.11   22.25
   0  -3   8   93.42   13.87
   0  -3   8  102.50   19.54
   0  -3   7 2894.69   47.67
   0  -3   7 2772.20   44.39
   0  -3   6 1182.96   30.40
   0  -3   6 1157.24   30.88
   0  -3   5  539.35   19.12
   0  -3   5  454.00   23.73
   0  -3   4  669.55   12.80
   0  -3   4  632.32   16.44
   0   3  -3 1215.33   20.80
   0  -3   3 1174.99   15.76
   0  -3   3 1258.04   31.04
   0   3  -2 5608.77   87.64
   0  -3   2 5417.75   74.64
   0  -3   2 5518.27   88.19
   0   3  -1  153.23   11.64
   0  -3   1  153.04   11.88
   0   3   0 1005.73   17.68
   0  -3   0 1020.78   29.11
   0   3   114176.75  325.25
   0  -3  -114180.90  328.68
   0   3   2  350.99   17.02
   0  -3  -2  325.38   17.08
   0   3   3  489.37    9.99
   0  -3  -3  470.25   15.62
   0   3   4  218.16   10.51
   0  -3  -4  238.34   10.84
   0   3   5   27.05    6.83
   0  -3  -5   26.16    7.06
   0   3   6   35.52    4.85
   0  -3  -6   55.96   11.41
   0  -3  -6   41.30    5.28
   0  -3  -8   95.40   15.27
   0  -3  -9   37.28   26.08
   0  -3 -10  995.13   43.98
   0  -3 -11  143.11   33.54
   0  -3 -12  933.80   50.63
   0  -3 -13  619.01   33.64
   0  -3 -14   47.12   26.07
   0  -4  10   68.85   17.87
   0  -4  10   64.75   28.27
   0  -4  10   45.19   15.69
   0  -4   9  510.65   32.28
   0  -4   9  485.67   21.68
   0  -4   9  491.20   20.17
   0  -4   8  594.76   30.91
   0  -4   8  630.94   21.06
   0  -4   7 1883.57   45.34
   0  -4   7 1855.51   35.77
   0  -4   6   -5.99   10.79
   0  -4   6   42.45   13.25
   0  -4   5 3326.97   59.07
   0  -4   5 3200.56   70.94
   0  -4   4   85.02   13.83
   0  -4   4  131.44   13.81
   0  -4   3 1705.47   22.37
   0  -4   3 1683.66   43.52
   0   4  -2    4.49   19.46
   0  -4   2   -2.17   10.26
   0  -4   2   10.91   12.28
   0   4  -1  232.55   22.10
   0  -4   1  256.64   14.15
   0   4   0  340.71   14.38
   0  -4   0  372.32   23.60
   0   4   1  266.65   12.11
   0  -4  -1  278.56   12.82
   0   4   2 4481.79   77.30
   0  -4  -2 4493.80   67.04
   0   4   316132.55  429.31
   0  -4  -315863.91  401.71
   0   4   4 9436.88  186.86
   0  -4  -4 9571.75  178.40
   0   4   5  103.56    6.72
   0  -4  -5  118.80   11.50
   0   4   6  547.34    8.92
   0  -4  -6  517.26   13.00
   0  -4  -7 1443.53   28.03
   0  -4  -7 1449.75   19.40
   0  -4  -8   70.17   24.35
   0  -4  -8   29.31    4.74
   0  -4  -9 1343.37   32.34
   0  -4 -10 3910.58   78.01
   0  -4 -11  167.88   22.37
   0  -4 -12  524.35   46.36
   0  -4 -13  154.51   42.60
   0  -4 -14  270.00   48.36
   0  -5   9  993.15   29.20
   0  -5   9 1075.12   34.34
   0  -5   9 1019.41   44.46
   0  -5   8   41.32   23.34
   0  -5   8   33.39   28.24
   0  -5   7  -19.76   20.77
   0  -5   7  -39.85   26.82
   0  -5   6 2934.69   63.36
   0  -5   6 2963.78   57.66
   0  -5   5   12.42   16.04
   0  -5   5   22.19   25.21
   0  -5   4 1115.36   19.04
   0  -5   4 1099.26   27.39
   0  -5   3  235.16    9.53
   0  -5   3  230.69   27.73
   0   5  -2  688.71   20.29
   0  -5   2  683.39   17.98
   0  -5   2  655.50   21.23
   0   5  -1  411.00   27.38
   0  -5   1  466.41   18.23
   0   5   0   29.97   13.13
   0  -5   0    6.64   22.07
   0   5   1 1352.24   25.96
   0  -5  -1 1394.49   37.47
   0   5   2 6629.68  115.44
   0  -5  -2 6494.80  132.49
   0   5   3  295.87   19.96
   0  -5  -3  259.39   12.92
   0   5   4  387.39   19.68
   0  -5  -4  394.77   19.85
   0   5   5  128.99    9.65
   0  -5  -5  106.01   15.60
   0   5   6  182.40   14.07
   0  -5  -6  191.76   14.85
   0   5   7   31.55   10.71
   0  -5  -7   18.03   14.05
   0  -5  -7   29.82    7.40
   0  -5  -8   54.62   25.31
   0  -5  -8   39.96   10.15
   0  -5  -9 5389.18  132.13
   0  -5  -9 5068.89   72.44
   0  -5 -10 1672.05   40.00
   0  -5 -11   16.24   20.86
   0  -5 -12 1582.29   47.53
   0  -5 -13  324.35   29.76
   0  -5 -14  288.16   49.60
   0  -6   8  111.93   26.21
   0  -6   8  161.16   24.86
   0  -6   8  121.52   35.04
   0  -6   7   95.29   14.40
   0  -6   7   83.23   33.74
   0  -6   6    5.33   12.35
   0  -6   6   42.82   19.02
   0  -6   5   89.89   18.25
   0  -6   5  110.90   32.03
   0  -6   4   76.10   10.11
   0  -6   4  108.50   19.53
   0  -6   3  300.05   17.32
   0  -6   3  279.80   33.94
   0  -6   2 3360.28   58.28
   0  -6   2 3328.42   64.33
   0   6  -1   18.05   15.38
   0  -6   1  -27.45   16.84
   0   6   0 8991.36  218.17
   0  -6   0 8585.24  187.99
   0   6   1 1130.74   26.44
   0  -6  -1 1192.75   40.48
   0   6   2 1156.35   25.53
   0  -6  -2 1163.94   26.49
   0   6   3 1270.86   36.82
   0  -6  -3 1215.51   37.63
   0   6   4  473.45   24.51
   0  -6  -4  435.71   24.88
   0   6   5 2691.58   42.15
   0  -6  -5 2566.28   41.56
   0   6   6 1443.30   33.29
   0  -6  -6 1366.72   33.50
   0   6   7  667.46   14.42
   0  -6  -7  678.70   15.75
   0  -6  -8  409.66   30.60
   0  -6  -8  363.87   11.72
   0  -6  -9   67.42   18.24
   0  -6  -9   83.00   13.26
   0  -6 -10  150.54   20.99
   0  -6 -10  129.12    8.80
   0  -6 -10  124.97   10.35
   0  -6 -11  738.97   31.93
   0  -6 -12  581.40   48.47
   0  -6 -13 1381.34   72.86
   0  -7   6    7.01   20.73
   0  -7   6   27.70   22.57
   0  -7   5  161.52   21.14
   0  -7   5  214.55   38.84
   0  -7   4    0.12   17.99
   0  -7   4   32.99   22.22
   0  -7   3  278.72   12.45
   0  -7   3  370.04   40.22
   0  -7   2  251.48   17.85
   0  -7   2  229.81   23.43
   0  -7   1   85.99   20.65
   0  -7   0  470.18   24.36
   0   7   1  540.81   21.81
   0  -7  -1  485.81   36.96
   0   7   2  380.34   19.79
   0  -7  -2  402.18   21.39
   0   7   3   -2.57   23.96
   0  -7  -3    2.59   25.63
   0   7   4  479.13   28.90
   0  -7  -4  466.57   19.65
   0   7   5 1517.79   29.67
   0  -7  -5 1474.54   30.41
   0   7   6  453.00   16.92
   0  -7  -6  403.68   26.47
   0  -7  -7 2390.12   53.36
   0  -7  -8  537.28   22.87
   0  -7  -8  538.34   24.16
   0  -7  -9  300.58   35.28
   0  -7  -9  378.25   21.39
   0  -7 -10  216.71   36.03
   0  -7 -10  228.88   17.78
   0  -7 -11  481.91   45.62
   0  -7 -12   12.75   39.20
   0  -7 -13  377.04   32.61
   0  -8   4  -35.79   27.28
   0  -8   3  212.96   13.26
   0  -8   3  354.98   46.73
   0  -8   2   19.46   11.17
   0  -8   2    4.31   24.05
   0  -8   1  302.02   20.96
   0  -8   1  371.55   28.14
   0  -8   0   -0.42   21.81
   0  -8  -1  650.63   44.98
   0  -8  -2  111.56   34.33
   0  -8  -3   43.65   19.00
   0  -8  -4  142.37   30.51
   0  -8  -5  109.68   29.14
   0  -8  -6 1121.36   41.92
   0  -8  -7  473.13   19.81
   0  -8  -8   92.65   18.74
   0  -8  -8   42.66   23.68
   0  -8  -9  240.30   22.05
   0  -8  -9  192.16   15.13
   0  -8 -10  109.80   22.31
   0  -8 -10   85.53   21.34
   0  -8 -11  -16.15   38.25
   0  -8 -12   98.46   43.39
   0  -9   2  261.60   52.84
   0  -9   1  974.19   42.89
   0  -9   0  188.42   29.36
   0  -9  -1  160.68   26.66
   0  -9  -2  111.55   39.52
   0  -9  -3   28.45   21.81
   0  -9  -4  504.45   41.64
   0  -9  -5  -21.84   19.82
   0  -9  -6  805.84   28.26
   0  -9  -7  292.81   20.89
   0  -9  -8  194.45   29.52
   0  -9  -9  228.71   23.20
   0  -9  -9  213.34   29.06
   0  -9 -10  134.16   24.02
   0  -9 -10  124.17   27.55
   0 -10  -1   43.50   29.25
   0 -10  -2  397.44   52.74
   0 -10  -3  730.15   36.52
   0 -10  -4  500.98   32.69
   0 -10  -5   -4.70   23.04
   0 -10  -6  566.76   46.69
   0 -10  -8  778.48   45.90
   1 -10  -6   13.10   38.52
   1 -10  -5  162.48   26.75
   1 -10  -4  964.83   63.28
   1 -10  -3  130.15   29.80
   1  -9 -10  159.61   30.85
   1  -9  -9   28.75   29.81
   1  -9  -8  188.32   20.95
   1  -9  -7  229.76   35.27
  -1   9   7  234.03   21.63
   1  -9  -6   17.67   33.27
  -1   9   6   14.54   19.62
  -1   9   5   70.81   20.90
   1  -9  -4   34.24   23.14
  -1   9   4   20.23   21.62
   1  -9  -3  268.42   26.64
  -1   9   3  250.97   24.75
   1  -9  -2   80.78   24.84
  -1   9   2   43.42   23.02
   1  -9  -1   24.38   42.59
   1  -9   0   72.69   47.22
   1  -9   1  231.69   18.85
   1  -9   1  402.42   52.48
   1  -8 -11   17.20   24.57
   1  -8 -10  136.46   39.01
   1  -8 -10  143.91   15.91
   1  -8  -9   93.67   26.71
   1  -8  -8  344.92   29.77
  -1   8   8  300.29   28.56
   1  -8  -7  386.15   32.37
  -1   8   7  385.12   20.12
   1  -8  -6    3.08   28.24
  -1   8   6   14.72   27.73
   1  -8  -5  853.31   28.80
  -1   8   5  847.79   43.18
   1  -8  -4   51.55   31.68
  -1   8   4   58.19   31.25
   1  -8  -3  299.28   37.56
  -1   8   3  331.60   36.04
   1  -8  -2    3.09   21.37
  -1   8   2    8.89   20.21
   1  -8  -1   99.10   23.44
  -1   8   1   52.24   21.94
   1  -8   0   46.03   39.49
  -1   8   0  -27.50   34.65
   1  -8   1    9.62   41.45
  -1   8  -1    1.88   22.42
   1  -8   2  198.28   16.22
   1  -8   2  242.31   47.81
   1  -8   3  527.58   32.71
   1  -8   3  773.68   36.99
   1  -8   4  503.15   33.49
   1  -8   4  634.53   36.13
   1  -7 -12   52.42   27.38
   1  -7 -11  916.18   37.09
   1  -7 -10   -3.34   22.21
   1  -7 -10   33.53   11.81
   1  -7  -9 1694.96   31.49
  -1   7   9 1569.61   39.89
   1  -7  -8  357.29   25.24
  -1   7   8  342.39   24.97
   1  -7  -7   56.26   14.22
  -1   7   7   31.59   22.77
   1  -7  -6 4068.85   93.12
  -1   7   6 3949.57   88.56
   1  -7  -5   91.16   15.72
  -1   7   5   53.12   14.59
   1  -7  -4   14.69   15.79
  -1   7   4  -14.24   14.89
   1  -7  -3  189.61   18.79
  -1   7   3  174.10   17.14
   1  -7  -2  266.54   33.61
  -1   7   2  173.69   31.93
   1  -7  -1  328.48   22.49
  -1   7   1  346.12   22.11
   1  -7   0 1340.62   37.03
  -1   7   0 1417.58   54.17
   1  -7   1  674.63   29.42
  -1   7  -1  641.84   27.67
   1  -7   2  468.60   25.97
   1  -7   2  476.83   28.22
  -1   7  -2  479.74   25.62
   1  -7   3  173.41   24.23
   1  -7   3  325.92   25.93
   1  -7   4   32.82   13.80
   1  -7   4   38.03   23.06
   1  -7   5   -9.92   24.34
   1  -7   5   -5.02   38.46
   1  -7   6   26.54   15.97
   1  -7   6   31.52   24.51
   1  -6 -13  580.01   36.06
   1  -6 -12   84.65   26.62
   1  -6 -11  198.04   41.12
   1  -6 -10 1499.37   40.45
   1  -6 -10 1436.65   29.94
   1  -6  -9 1924.43   44.45
   1  -6  -9 1853.88   37.61
  -1   6   9 1847.72   36.64
   1  -6  -8   34.26   10.61
  -1   6   8   45.01    9.80
   1  -6  -7 1910.32   42.73
  -1   6   7 1959.58   42.48
   1  -6  -6  542.53   17.23
  -1   6   6  605.00   16.88
  -1   6   5   51.18   20.36
   1  -6  -4  410.80   17.13
  -1   6   4  421.22   26.48
   1  -6  -3   29.30   14.97
  -1   6   3   60.23   14.05
   1  -6  -2 2045.02   55.51
  -1   6   2 2058.45   38.91
   1  -6  -1 2446.49   46.93
  -1   6   1 2456.74   59.74
   1  -6   0 7949.96  211.08
  -1   6   0 7933.60  165.64
   1  -6   1  547.69   24.08
  -1   6  -1  570.12   23.61
   1  -6   2 1143.55   32.93
  -1   6  -2 1255.98   47.76
   1  -6   3  737.70   27.21
   1  -6   3  811.96   29.04
  -1   6  -3  785.18   42.39
   1  -6   4  508.95   25.77
   1  -6   4  522.64   40.97
   1  -6   5   55.48   13.45
   1  -6   5   67.40   20.11
   1  -6   6  400.58   18.90
   1  -6   6  417.66   39.24
   1  -6   7    8.16   15.92
   1  -6   7   61.55   21.12
   1  -5 -13  235.14   49.35
   1  -5 -11 1056.17   35.95
   1  -5 -10 2227.15   48.38
   1  -5 -10 1831.65   26.59
   1  -5  -9  894.00   43.49
   1  -5  -9  914.35   19.62
   1  -5  -8 1076.16   23.46
  -1   5   8 1055.11   22.55
   1  -5  -7  268.98   17.02
  -1   5   7  267.22   15.87
   1  -5  -6  749.87   23.75
  -1   5   6  790.55   16.32
   1  -5  -5 2295.46   45.75
  -1   5   5 2348.48   35.49
   1  -5  -4   43.36   18.47
  -1   5   4   -6.25   10.70
   1  -5  -3 1117.38   33.18
  -1   5   3 1097.81   22.01
   1  -5  -2 2297.65   38.73
  -1   5   2 2349.07   51.93
   1  -5  -1   -9.63   22.06
  -1   5   1    3.22   12.40
   1  -5   0   23.02   14.59
  -1   5   0   33.32   22.42
   1  -5   1    7.18   25.03
  -1   5  -1   -4.46   23.29
   1  -5   2   66.80   26.03
  -1   5  -2  -16.56   23.33
   1  -5   3  216.41   11.74
   1  -5   3  236.61   29.89
  -1   5  -3  222.14   28.24
   1  -5   4   -3.13   10.81
   1  -5   4   28.19   16.59
  -1   5  -4   -0.39   26.56
   1  -5   5 1048.14   32.55
   1  -5   5 1100.71   44.11
   1  -5   6  248.00   15.58
   1  -5   6  255.13   19.59
   1  -5   7  675.52   22.25
   1  -5   7  760.28   38.16
   1  -5   8  607.20   36.19
   1  -5   8  690.27   26.44
   1  -5   9  164.98   32.33
   1  -5   9  201.25   20.61
   1  -4 -14  244.36   30.43
   1  -4 -13  274.88   29.17
   1  -4 -12  213.93   42.14
   1  -4 -11   76.99   34.49
   1  -4 -10  572.06   25.96
   1  -4  -9  213.70   30.14
   1  -4  -9  183.78    7.13
  -1   4   9  185.71    6.92
   1  -4  -8  389.91   19.52
   1  -4  -8  358.21   11.48
  -1   4   8  370.14   11.50
   1  -4  -7  130.36   11.60
  -1   4   7  142.64   11.41
   1  -4  -6  449.24   15.74
  -1   4   6  473.64   15.74
   1  -4  -5  771.67   20.58
  -1   4   5  813.54   20.42
   1  -4  -4  222.66   10.58
  -1   4   4  219.67   16.49
   1  -4  -3  481.42   13.64
  -1   4   3  513.64   13.74
   1  -4  -2  665.83   25.21
  -1   4   2  650.76   24.05
   1  -4  -1  742.48   26.67
  -1   4   1  701.73   16.75
   1  -4   0    5.92   12.06
  -1   4   0   -8.97   11.81
   1  -4   1 1023.50   32.95
  -1   4  -1 1034.99   21.23
   1  -4   2  267.53   15.29
  -1   4  -2  273.80   14.81
   1  -4   3  767.67   15.31
   1  -4   3  744.12   20.91
  -1   4  -3  744.83   19.14
   1  -4   4  368.81   12.78
   1  -4   4  348.80   26.96
  -1   4  -4  380.62   26.64
   1  -4   5  111.69   18.75
   1  -4   5  113.15   14.98
  -1   4  -5   96.82   23.48
   1  -4   6 1633.15   31.24
   1  -4   6 1627.82   46.14
   1  -4   7 1510.16   32.08
   1  -4   7 1559.28   32.54
   1  -4   8  342.69   28.78
   1  -4   8  296.80   18.44
   1  -4   9  187.93   19.16
   1  -4   9  234.42   28.00
   1  -4  10  260.36   34.59
   1  -4  10  252.28   21.06
   1  -4  10  256.90   30.09
   1  -3 -14  440.46   32.47
   1  -3 -13   96.55   25.66
   1  -3 -12  423.19   28.10
   1  -3 -11   50.87   34.06
   1  -3 -10  505.41   36.88
   1  -3  -8  541.44   31.51
   1  -3  -8  513.19    8.18
  -1   3   8  531.11    9.25
   1  -3  -7  882.03   21.97
   1  -3  -7  824.30   13.01
  -1   3   7  871.79   13.19
   1  -3  -6 2706.37   35.74
  -1   3   6 2855.89   36.82
   1  -3  -5  413.84   13.18
  -1   3   5  431.92    8.51
   1  -3  -4  491.22   10.54
  -1   3   4  507.36   15.51
   1  -3  -3  584.25   12.52
  -1   3   3  583.44   11.94
   1  -3  -2 9243.40  171.84
  -1   3   2 9314.15  170.98
   1  -3  -1 1104.33   19.26
  -1   3   1 1124.03   19.81
   1  -3   0  436.02   14.15
  -1   3   0  454.92   13.78
   1  -3   1  538.06   23.43
  -1   3  -1  520.37   14.96
   1  -3   2 3698.13   56.07
  -1   3  -2 3718.20   67.29
   1  -3   3 1743.01   32.40
   1  -3   3 1785.38   28.26
  -1   3  -3 1742.93   27.94
   1  -3   4 2531.77   44.72
   1  -3   4 2422.76   38.41
  -1   3  -4 2393.76   47.76
   1  -3   5  463.05   13.71
   1  -3   5  449.85   24.07
  -1   3  -5  456.26   15.50
   1  -3   6 2494.18   40.72
   1  -3   6 2438.92   40.18
   1  -3   7  220.21   15.11
   1  -3   7  207.13   14.00
   1  -3   8  360.55   18.26
   1  -3   8  404.40   25.37
   1  -3   9  343.90   31.23
   1  -3   9  325.68   25.32
   1  -3  10   44.46   18.12
   1  -3  10   24.40   23.77
   1  -3  10   18.99   22.74
   1  -3  11  302.98   23.61
   1  -3  11  243.11   26.95
   1  -3  11  263.93   17.37
   1  -2 -13  332.92   44.36
   1  -2 -12  -10.39   33.47
   1  -2 -11  208.97   21.70
   1  -2 -10 1864.56   41.69
   1  -2  -9  758.33   35.35
   1  -2  -8  193.96   16.05
  -1   2   8  200.08    5.17
   1  -2  -7 1767.64   43.95
   1  -2  -7 1837.80   19.52
  -1   2   7 1874.99   20.08
   1  -2  -6  172.55   13.16
   1  -2  -6  150.89    6.76
   1  -2  -5 2132.17   25.73
  -1   2   5 2114.79   25.63
   1  -2  -4 2393.25   31.63
  -1   2   4 2443.24   31.48
   1  -2  -3 1174.46   21.89
  -1   2   3 1223.59   15.90
   1  -2  -2  412.47   10.87
  -1   2   2  408.61   16.87
   1  -2  -1  197.61   10.67
  -1   2   1  199.97   10.51
   1  -2   0 1288.24   30.04
  -1   2   0 1306.94   20.14
   1  -2   1  663.83   15.28
  -1   2  -1  666.51   15.19
   1  -2   2 4343.62   76.02
  -1   2  -2 4442.30   75.67
   1  -2   3 6140.28  105.89
   1  -2   3 6176.38  111.62
  -1   2  -3 6159.82  112.05
   1  -2   4 6813.35  127.34
   1  -2   4 6923.34  129.63
  -1   2  -4 6992.95  130.10
   1  -2   5  371.27   12.99
   1  -2   5  377.91   18.56
  -1   2  -5  379.36   12.12
   1  -2   6  696.39   17.24
   1  -2   6  700.18   22.17
  -1   2  -6  711.36   14.93
   1  -2   7  402.27   16.55
   1  -2   7  386.19   12.80
   1  -2   8 4050.48   89.86
   1  -2   8 3903.09   62.43
   1  -2   9 1817.26   37.75
   1  -2   9 1641.39   28.33
   1  -2  10 1981.00   43.92
   1  -2  10 1928.94   44.65
   1  -2  11   25.45   32.15
   1  -2  11   50.10   11.92
   1  -2  11   43.81   19.22
   1  -1 -13  572.26   28.88
   1  -1 -12  394.22   24.41
   1  -1 -11 2059.98   44.38
   1  -1 -10  433.84   20.82
  -1   1  10  416.74    6.80
  -1   1  10  419.97    6.58
   1  -1  -9  185.14   16.49
  -1   1   9  171.52    6.82
  -1   1   9  169.89    6.21
   1  -1  -8  930.46   32.87
  -1   1   8  902.86   12.42
  -1   1   8  867.97   11.35
   1  -1  -7   46.65   12.16
  -1   1   7   59.02    6.47
   1  -1  -6 7925.76  163.33
   1  -1  -6 7875.74  123.39
  -1   1   6 7986.19  123.77
   1  -1  -5 1388.28   31.61
  -1   1   5 1318.27   16.26
   1  -1  -4    5.71    7.07
  -1   1   4   13.85    7.53
   1  -1  -3 1564.90   16.84
  -1   1   3 1589.61   17.14
   1  -1  -2  121.52    7.07
  -1   1   2  110.01    7.17
   1  -1  -132256.41 1230.28
  -1   1   132888.23 1248.37
   1  -1   032180.90 1271.82
  -1   1   032794.43 1286.62
   1  -1   1 2603.41   32.77
  -1   1  -1 2766.92   42.76
   1  -1   2 1883.96   23.78
   1  -1   2 1757.02   31.14
  -1   1  -2 1838.12   31.32
   1  -1   3   19.48   12.38
  -1   1  -3  -19.31   12.28
   1  -1   4  102.39    9.37
   1  -1   4   94.75   12.08
  -1   1  -4  109.39    9.82
  -1   1  -4  101.63    7.38
   1  -1   5   56.85   16.50
   1  -1   5   88.68   11.84
  -1   1  -5   76.62   10.14
  -1   1  -5   69.69   11.93
   1  -1   6   23.51   17.45
   1  -1   6   14.64    6.99
  -1   1  -6   57.89   17.64
  -1   1  -6   11.92    6.69
   1  -1   7 3193.33   51.82
   1  -1   7 3121.47   42.27
  -1   1  -7 3252.40   64.91
   1  -1   8  555.08   19.32
   1  -1   8  512.83   11.82
  -1   1  -8  521.54   27.95
   1  -1   9 2936.07   72.52
   1  -1   9 2948.02   41.57
  -1   1  -9 2850.48   52.24
   1  -1  10  816.54   40.12
   1  -1  10  761.34   21.33
  -1   1 -10  791.02   24.51
   1  -1  11  381.81   23.99
   1  -1  11  308.94   16.37
   1  -1  11  348.16   18.25
  -1   1 -12 1124.53   34.32
   1   0 -13  -47.12   20.34
   1   0 -12   51.93   18.64
   1   0 -11  328.30   31.12
  -1   0  11  328.44   12.04
  -1   0  11  296.32   11.19
   1   0 -10  340.06   29.54
  -1   0  10  344.26   12.29
  -1   0  10  330.80   11.31
   1   0  -9  708.10   20.13
  -1   0   9  688.80   14.47
  -1   0   9  657.57   13.99
   1   0  -8  122.88   12.96
  -1   0   8  104.60    9.43
  -1   0   8  105.81    8.93
   1   0  -7   42.93   11.02
  -1   0   7   38.52    8.43
  -1   0   7   27.86    8.21
   1   0  -6  835.30   25.23
  -1   0   6  800.77   14.00
   1   0  -5 2644.97   36.36
  -1   0   5 2557.74   32.03
   1   0  -4 6689.87  104.72
   1   0  -4 6748.19  102.62
  -1   0   4 6596.80   99.54
   1   0  -3    8.27    9.24
  -1   0   3   16.94    9.41
   1   0  -234217.06 1363.74
  -1   0   234169.80 1362.62
   1   0  -121707.10  607.96
  -1   0   122724.19  632.72
   1   0   1  474.34    7.91
  -1   0  -1  520.98   12.05
   1   0   2 4193.63   53.43
   1   0   2 4284.97   48.90
  -1   0  -2 4209.07   53.75
  -1   0  -2 4221.62   47.71
   1   0   318780.93  542.15
   1   0   319248.09  505.51
  -1   0  -318504.66  503.75
  -1   0  -319761.60  511.41
   1   0   4 1634.68   23.59
  -1   0  -4 1610.72   24.17
  -1   0  -4 1650.82   20.91
   1   0   5  129.32   18.10
   1   0   5  124.06    8.45
  -1   0  -5  173.72   17.89
  -1   0  -5  152.15    8.15
   1   0   6  473.08   14.57
   1   0   6  431.41   10.75
  -1   0  -6  476.48   22.55
   1   0   7 1863.51   44.46
  -1   0  -7 1814.25   42.54
   1   0   8  255.98   24.81
   1   0   8  189.81    9.29
   1   0   8  189.69    9.83
  -1   0  -8  218.59   15.03
   1   0   9 2354.68   61.15
   1   0   9 2241.26   30.97
  -1   0  -9 2350.25   59.58
   1   0  10 2136.83   64.82
  -1   0 -10 2171.28   44.40
   1   0  11   21.81    6.31
  -1   0 -11   49.07   29.91
  -1   0 -12  346.82   23.24
  -1   0 -13   61.62   34.88
   1   1 -12   45.63   29.47
   1   1 -11  118.66   26.91
  -1  -1  11  102.66   14.38
  -1  -1  11   99.17   13.96
   1   1 -10  212.36   16.15
  -1  -1  10  202.61   14.51
  -1  -1  10  187.74   14.30
   1   1  -9   51.42   13.19
  -1  -1   9   46.06   12.67
  -1  -1   9   36.66   12.33
   1   1  -8  737.05   17.91
  -1  -1   8  726.60   12.87
  -1  -1   8  726.00   18.43
   1   1  -7 1457.90   34.47
  -1  -1   7 1515.18   26.74
  -1  -1   7 1403.92   24.56
   1   1  -6 5689.93  102.63
  -1  -1   6 5643.63   91.00
  -1  -1   6 5582.71   90.86
   1   1  -510037.35  207.27
  -1  -1   510300.03  203.02
  -1  -1   5 9554.02  191.09
   1   1  -4  747.68   18.86
  -1  -1   4  781.25   12.30
   1   1  -3 2960.54   34.94
  -1  -1   3 3077.65   46.81
   1   1  -217132.50  417.29
  -1  -1   216968.50  418.66
   1   1  -1 7388.49  126.44
  -1  -1   1 7393.25  111.77
   1   1   0 3878.07   45.91
  -1  -1   0 3971.61   46.07
   1   1   1  439.68    6.67
   1   1   1  438.21    7.50
  -1  -1  -1  441.78    6.40
  -1  -1  -1  447.26   11.04
   1   1   231905.28 1208.18
   1   1   232452.63 1190.62
  -1  -1  -231894.94 1245.30
  -1  -1  -232592.98 1195.13
   1   1   3  912.02   25.41
   1   1   3  933.66   12.05
  -1  -1  -3  922.00   25.54
   1   1   4  296.81   19.03
  -1  -1  -4  303.33   20.32
   1   1   5 5965.05  111.63
  -1  -1  -5 5992.35   96.70
   1   1   6  301.54   21.60
  -1  -1  -6  320.83   21.79
   1   1   7 2219.60   36.27
   1   1   7 2189.79   19.25
  -1  -1  -7 2222.14   35.95
   1   1   8 3272.90   56.45
  -1  -1  -8 3282.60   70.79
   1   1   9 3371.53   62.83
  -1  -1  -9 3283.98   60.29
  -1  -1 -10  241.19   30.16
  -1  -1 -11  540.63   38.53
  -1  -1 -12   77.94   21.11
  -1  -1 -13   49.45   22.94
   1   2 -12  131.67   18.94
   1   2 -11  268.56   27.35
  -1  -2  11  199.87   12.50
  -1  -2  11  218.37   19.27
   1   2 -10  903.99   33.78
  -1  -2  10  842.97   18.27
  -1  -2  10  809.46   17.26
   1   2  -9  856.42   21.41
  -1  -2   9  891.77   26.49
  -1  -2   9  834.97   17.59
   1   2  -8 2975.56   60.51
  -1  -2   8 3140.74   46.61
  -1  -2   8 3010.02   55.18
   1   2  -7 1859.57   29.23
  -1  -2   7 1921.82   37.30
  -1  -2   7 1899.38   28.68
   1   2  -6  388.92   17.54
  -1  -2   6  424.08   12.50
  -1  -2   6  384.44   18.22
  -1  -2   6  387.99   17.32
   1   2  -5  509.32   16.31
  -1  -2   5  486.38   11.13
  -1  -2   5  484.72   19.18
  -1  -2   5  451.04   17.26
   1   2  -4 2080.29   31.05
  -1  -2   4 2068.05   24.91
  -1  -2   4 2124.78   37.37
  -1  -2   4 2141.11   28.79
   1   2  -3 4134.73   49.52
  -1  -2   3 4169.54   50.36
  -1  -2   3 4234.94   58.98
   1   2  -2 1329.19   16.31
  -1  -2   2 1349.50   16.56
  -1  -2   2 1300.78   19.67
  -1  -2   1 1952.52   17.73
  -1  -2  -1 1580.73   17.74
  -1  -2  -2  113.72   12.00
  -1  -2  -2  124.12   11.36
   1   2   3 1051.79   16.90
  -1  -2  -3  989.21   23.69
  -1  -2  -3 1055.56   14.28
   1   2   412528.90  273.87
  -1  -2  -412444.75  295.47
  -1  -2  -413119.23  240.52
   1   2   5 3963.37   58.96
  -1  -2  -5 4005.93   70.99
   1   2   6   96.45   12.43
  -1  -2  -6  128.66   19.29
  -1  -2  -7  105.29   13.14
  -1  -2  -8 4953.25   86.46
  -1  -2  -9   25.60   15.77
  -1  -2 -10  847.32   39.84
  -1  -2 -11  304.44   35.22
  -1  -2 -12  410.44   26.24
  -1  -2 -13  962.95   36.84
  -1  -2 -14  388.37   30.25
   1   3 -11   71.96   16.06
  -1  -3  11   42.99   14.00
  -1  -3  11   51.86   21.32
   1   3 -10   52.21   22.45
  -1  -3  10   -4.04   21.41
  -1  -3  10   22.15   20.30
   1   3  -9  194.63   22.84
  -1  -3   9  210.12   23.53
  -1  -3   9  210.88   14.00
   1   3  -8 2756.77   44.81
  -1  -3   8 2902.54   61.78
  -1  -3   8 2742.98   58.51
   1   3  -7  559.04   14.42
  -1  -3   7  592.24   16.09
  -1  -3   7  567.63   16.69
  -1  -3   7  583.12   24.82
   1   3  -6  555.38   12.59
  -1  -3   6  552.77   20.16
  -1  -3   6  575.55   16.60
  -1  -3   6  539.85   24.21
   1   3  -5  668.45   17.41
  -1  -3   5  658.22   18.15
  -1  -3   5  673.67   16.92
  -1  -3   5  664.52   23.61
  -1  -3   4 2403.37   28.86
  -1  -3   4 2396.26   46.85
  -1  -3   3  184.03    9.64
  -1  -3   3  145.87   18.53
  -1  -3   2 8851.47  145.05
  -1  -3   2 8742.67  161.21
  -1  -3   112821.39  246.99
  -1  -3   112911.23  307.85
  -1  -3   0  383.63   20.85
  -1  -3  -1   11.73   15.90
  -1  -3  -2 3828.71   49.87
  -1  -3  -3  845.33   13.55
  -1  -3  -3  865.51   12.42
  -1  -3  -4 6694.12  120.73
  -1  -3  -4 6603.85  100.40
  -1  -3  -5  462.76   13.69
  -1  -3  -5  452.34    7.80
  -1  -3  -5  447.33    8.29
  -1  -3  -6   28.59   10.76
  -1  -3  -6    6.89    2.92
  -1  -3  -6    5.27    3.78
  -1  -3  -7   34.64   12.59
  -1  -3  -8  242.31   16.41
  -1  -3  -9 1001.54   26.62
  -1  -3 -10   93.98   18.45
  -1  -3 -11   52.67   20.07
  -1  -3 -12  316.12   40.73
  -1  -3 -13 1074.83   59.03
  -1  -3 -14  104.65   43.73
  -1  -4  10  170.29   18.57
  -1  -4  10  185.38   26.26
  -1  -4   9  468.94   32.28
  -1  -4   9  514.00   19.15
  -1  -4   8   44.77   24.20
  -1  -4   8   20.18   14.02
  -1  -4   7  354.65   21.16
  -1  -4   7  379.27   18.56
  -1  -4   7  369.10   17.53
  -1  -4   6    7.54    8.93
  -1  -4   6   16.12   14.36
  -1  -4   6    5.51   13.34
  -1  -4   5  682.01   18.93
  -1  -4   5  675.39   19.34
  -1  -4   4 1518.94   25.18
  -1  -4   4 1512.93   29.08
  -1  -4   3    0.13    8.28
  -1  -4   3   -9.91   20.39
  -1  -4   2 6485.59   90.46
  -1  -4   2 6527.08  114.23
  -1  -4   1 1137.01   13.84
  -1  -4   1 1113.89   21.69
  -1  -4   0 3154.73   47.50
  -1  -4  -1 7762.63  136.49
  -1  -4  -2 5195.13   91.15
  -1  -4  -3  345.34   11.17
  -1  -4  -4  987.01   16.50
  -1  -4  -4  982.25   20.28
  -1  -4  -5 2971.62   53.14
  -1  -4  -5 2967.13   34.70
  -1  -4  -6  555.04   15.82
  -1  -4  -6  577.66   11.19
  -1  -4  -6  542.13   11.40
  -1  -4  -7  648.17   18.12
  -1  -4  -7  588.60    8.69
  -1  -4  -7  588.95    8.92
  -1  -4  -8  909.94   34.55
  -1  -4  -9  128.11   28.38
  -1  -4 -10  320.14   33.42
  -1  -4 -11  145.10   33.98
  -1  -4 -12  238.09   25.09
  -1  -4 -13  633.42   33.43
  -1  -4 -14  397.83   32.62
  -1  -5   9   53.11   31.26
  -1  -5   9   13.94   16.96
  -1  -5   8  671.55   26.69
  -1  -5   8  664.20   24.04
  -1  -5   7  127.23   19.02
  -1  -5   7  142.39   19.46
  -1  -5   7  128.29   17.19
  -1  -5   6  360.70   18.88
  -1  -5   6  380.57   21.87
  -1  -5   6  414.72   20.02
  -1  -5   5   65.94   13.60
  -1  -5   5   79.30   26.06
  -1  -5   4  298.08   14.10
  -1  -5   4  325.13   18.73
  -1  -5   3 3355.59   48.10
  -1  -5   3 3513.75   79.45
  -1  -5   2 2125.87   27.81
  -1  -5   2 2120.52   39.24
  -1  -5   1  209.27    8.76
  -1  -5   1  168.50   25.41
  -1  -5   0 6889.34  148.97
  -1  -5  -1 7501.21  140.05
  -1  -5  -2  234.82   13.32
  -1  -5  -3  522.39   14.42
  -1  -5  -4 2745.88   39.37
  -1  -5  -5   67.19   10.26
  -1  -5  -5   64.16   13.39
  -1  -5  -6  503.95   23.08
  -1  -5  -6  451.82   15.48
  -1  -5  -7  349.73   15.35
  -1  -5  -7  333.64    8.18
  -1  -5  -8  282.95   17.12
  -1  -5  -8  235.62    8.59
  -1  -5  -8  257.83    9.27
  -1  -5  -9  534.14    6.23
  -1  -5  -9  562.33    6.31
  -1  -5 -10   12.93   18.63
  -1  -5 -11  242.38   22.88
  -1  -5 -12  304.39   26.06
  -1  -5 -13  -10.31   24.72
  -1  -5 -14  120.69   29.75
  -1  -6   8   42.00   22.09
  -1  -6   8   29.40   19.89
  -1  -6   7   72.38   19.15
  -1  -6   7   78.67   21.92
  -1  -6   7   41.55   19.31
  -1  -6   6  499.37   26.81
  -1  -6   6  481.48   37.32
  -1  -6   5   60.53    9.16
  -1  -6   5   65.28   18.75
  -1  -6   4  332.95   15.44
  -1  -6   4  372.28   22.86
  -1  -6   3 2292.67   36.64
  -1  -6   3 2640.68   72.23
  -1  -6   2   -1.48    9.21
  -1  -6   2   -2.41   28.52
  -1  -6   1  530.19   13.15
  -1  -6   1  563.58   22.58
  -1  -6   0  800.36   24.38
  -1  -6  -1  392.71   18.28
  -1  -6  -3   48.09   12.87
  -1  -6  -4   25.75   11.37
  -1  -6  -5  119.80   11.15
  -1  -6  -6  228.77   20.84
  -1  -6  -6  265.70   18.00
  -1  -6  -7 2410.52   41.92
  -1  -6  -7 2342.61   32.45
  -1  -6  -8   51.54   14.98
  -1  -6  -8   13.23   11.57
  -1  -6  -8   19.63    7.59
  -1  -6  -9  578.68   22.43
  -1  -6  -9  531.68   13.08
  -1  -6  -9  541.73   14.54
  -1  -6 -10  842.00   27.63
  -1  -6 -10  747.58   13.01
  -1  -6 -11  952.63   33.39
  -1  -6 -12  586.49   31.22
  -1  -6 -13   84.49   25.61
  -1  -7   7   67.52   36.62
  -1  -7   6   37.78   24.67
  -1  -7   6   69.23   35.97
  -1  -7   5   73.27   21.52
  -1  -7   4  573.13   19.73
  -1  -7   4  860.22   46.29
  -1  -7   3   40.18   11.73
  -1  -7   3   19.83   20.76
  -1  -7   2  382.57   14.26
  -1  -7   2  426.04   25.27
  -1  -7   1  640.38   16.10
  -1  -7   1  656.87   41.28
  -1  -7   0   66.16   31.38
  -1  -7  -1  573.10   36.14
  -1  -7  -2 6093.38  121.33
  -1  -7  -3 1921.60   37.81
  -1  -7  -4    9.73   13.58
  -1  -7  -5  319.69   15.89
  -1  -7  -6 1261.33   24.76
  -1  -7  -6 1189.67   24.25
  -1  -7  -7   91.90   22.37
  -1  -7  -7   43.06   17.83
  -1  -7  -8  110.66   25.69
  -1  -7  -8   83.26   10.65
  -1  -7  -9  901.70   40.88
  -1  -7  -9  826.51   15.42
  -1  -7  -9  833.33   22.98
  -1  -7 -10  116.15   31.23
  -1  -7 -10   76.29   11.19
  -1  -7 -10   91.89    8.89
  -1  -7 -11  592.18   45.19
  -1  -7 -12  109.24   40.96
  -1  -7 -13  458.27   49.62
  -1  -8   5   64.29   27.47
  -1  -8   5   67.74   25.41
  -1  -8   4   60.37   41.12
  -1  -8   3   17.06   38.65
  -1  -8   2   15.74   11.86
  -1  -8   2   -3.76   22.94
  -1  -8   1   11.14   12.39
  -1  -8   1   32.72   22.39
  -1  -8   0   64.82   21.02
  -1  -8  -1   98.20   20.40
  -1  -8  -2 1621.73   39.71
  -1  -8  -3  406.72   34.31
  -1  -8  -4  906.15   26.58
  -1  -8  -5   97.44   26.64
  -1  -8  -6  418.80   16.68
  -1  -8  -6  415.67   29.71
  -1  -8  -7  200.71   15.51
  -1  -8  -7  195.84   15.42
  -1  -8  -8 1761.46   37.27
  -1  -8  -8 1734.51   43.51
  -1  -8  -9  353.61   21.31
  -1  -8  -9  335.51   14.51
  -1  -8  -9  318.77   14.73
  -1  -8 -10  291.35   22.98
  -1  -8 -10  212.50   18.16
  -1  -8 -10  253.35   20.39
  -1  -8 -11  351.23   25.53
  -1  -8 -12  354.44   29.25
  -1  -9   3  181.28   50.28
  -1  -9   2  569.35   35.73
  -1  -9   1  414.43   32.86
  -1  -9   0   76.60   25.05
  -1  -9  -1   16.58   23.40
  -1  -9  -2  414.15   27.28
  -1  -9  -3   71.54   35.54
  -1  -9  -4  162.09   21.80
  -1  -9  -5  129.16   32.03
  -1  -9  -6   16.01   13.88
  -1  -9  -6  -18.58   28.43
  -1  -9  -7  321.86   18.44
  -1  -9  -7  371.78   32.10
  -1  -9  -8   23.22   16.33
  -1  -9  -8    4.02   15.45
  -1  -9  -9  300.62   21.12
  -1  -9  -9  259.31   17.11
  -1  -9  -9  251.55   27.56
  -1  -9 -10   48.81   20.96
  -1  -9 -10   16.14   21.17
  -1  -9 -10   39.94   14.01
  -1  -9 -11   37.49   22.57
  -1 -10   0   15.57   29.78
  -1 -10  -1  136.45   29.79
  -1 -10  -2   52.51   44.13
  -1 -10  -3   63.79   41.51
  -1 -10  -4   57.89   24.47
  -1 -10  -5    1.93   35.92
  -1 -10  -6  142.28   36.45
  -1 -10  -7   -9.70   20.20
  -1 -10  -8    6.31   30.51
  -1 -10  -9  215.48   34.95
  -1 -10  -9  194.33   20.34
   2  -9  -8  429.83   26.71
  -2   9   8  354.33   25.78
   2  -9  -7  227.46   24.95
  -2   9   7  259.53   39.89
   2  -9  -6  339.55   41.97
  -2   9   6  308.59   26.56
   2  -9  -5  154.04   25.61
  -2   9   5  160.11   24.64
   2  -9  -4  328.18   29.10
  -2   9   4  358.26   27.79
   2  -9  -3  -10.76   41.41
  -2   9   3   -4.75   40.00
   2  -9  -2  604.21   35.48
  -2   9   2  508.91   53.20
   2  -9  -1 1149.93   71.74
  -2   9   1 1081.93   43.57
   2  -9   0  109.63   52.39
  -2   9   0  143.93   45.64
   2  -8 -10   16.44   17.07
  -2   8  10   22.30   15.98
   2  -8  -9   37.66   28.13
  -2   8   9   50.97   17.35
   2  -8  -8  484.42   35.73
  -2   8   8  409.37   33.67
   2  -8  -7  536.20   25.59
  -2   8   7  550.08   23.85
   2  -8  -6  117.11   20.10
  -2   8   6  118.05   30.81
   2  -8  -5  345.50   38.45
  -2   8   5  372.21   35.15
   2  -8  -4  111.96   21.84
  -2   8   4   82.93   32.95
   2  -8  -3   81.74   22.78
  -2   8   3   83.67   20.39
   2  -8  -2  320.13   44.51
  -2   8   2  314.92   24.46
   2  -8  -1  285.54   28.43
  -2   8   1  230.03   41.77
   2  -8   0  143.95   27.81
  -2   8   0   65.01   24.49
   2  -8   1  753.11   38.25
  -2   8  -1  611.05   54.43
   2  -8   2   45.38   17.68
   2  -8   2  124.02   29.02
  -2   8  -2   74.77   42.78
   2  -8   3  309.54   33.90
   2  -8   3  425.82   35.23
  -2   8  -3  406.47   31.70
   2  -7 -12  258.51   32.20
   2  -7 -11  978.73   62.53
   2  -7 -10  258.45   25.58
  -2   7  10  202.58   23.64
   2  -7  -9  143.59   15.52
   2  -7  -8  156.82   26.27
  -2   7   8  137.91   25.65
   2  -7  -7  643.44   23.17
  -2   7   7  685.17   32.97
   2  -7  -6   33.37   16.82
  -2   7   6   41.26   15.59
   2  -7  -5   59.68   17.61
  -2   7   5   51.17   16.52
   2  -7  -4   13.71   17.88
  -2   7   4   53.85   17.17
   2  -7  -3 1282.97   34.97
  -2   7   3 1200.29   47.94
   2  -7  -2  390.42   38.20
  -2   7   2  347.10   35.42
   2  -7  -1   17.64   21.65
  -2   7   1   11.49   19.48
   2  -7   0  798.81   48.66
  -2   7   0  654.06   42.82
   2  -7   1 2121.23   77.24
  -2   7  -1 1998.02   48.40
   2  -7   2  160.72   26.05
  -2   7  -2  211.28   24.36
   2  -7   3  425.50   20.43
   2  -7   3  458.24   48.84
  -2   7  -3  420.69   28.84
   2  -7   4    7.03   26.74
   2  -7   4   60.14   41.34
  -2   7  -4  -28.91   22.84
   2  -7   5   19.87   28.20
   2  -7   5   64.62   25.33
   2  -6 -12  274.57   49.25
   2  -6 -11 1538.80   47.55
   2  -6 -10   41.50   18.22
  -2   6  10   27.75   16.82
   2  -6  -9   94.84   19.77
  -2   6   9   87.16   19.10
   2  -6  -8  445.70   25.24
  -2   6   8  420.66   16.43
   2  -6  -7  368.42   16.42
  -2   6   7  375.04   25.17
   2  -6  -6  793.63   21.68
  -2   6   6  794.90   21.67
   2  -6  -5  424.09   28.95
  -2   6   5  407.88   17.89
   2  -6  -4  831.86   24.45
  -2   6   4  898.82   23.94
   2  -6  -3 2350.19   46.67
  -2   6   3 2519.43   62.84
   2  -6  -2   -1.93   27.70
  -2   6   2   15.04   16.49
   2  -6  -1  210.32   20.27
  -2   6   1  236.75   31.00
   2  -6   0  335.54   22.12
  -2   6   0  278.16   20.25
   2  -6   1  367.54   22.98
  -2   6  -1  321.61   21.96
   2  -6   2  105.34   21.07
  -2   6  -2   73.60   30.33
   2  -6   3  217.59   15.99
   2  -6   3  212.92   23.43
  -2   6  -3  203.96   33.70
   2  -6   4    4.33   24.18
   2  -6   4   -3.94   21.26
  -2   6  -4   28.83   33.12
   2  -6   5   -3.13   15.35
   2  -6   5  -22.40   34.35
  -2   6  -5   47.67   32.38
   2  -6   6   23.54   16.95
   2  -6   6   35.37   21.86
   2  -6   7  220.66   21.12
   2  -6   7  271.01   40.86
   2  -5 -13  265.47   51.02
   2  -5 -12  630.22   34.01
   2  -5 -11 1234.64   41.67
   2  -5 -10 1184.44   54.88
   2  -5 -10 1050.64   18.26
  -2   5  10 1037.15   24.25
   2  -5  -9   78.16   15.54
  -2   5   9   90.45   15.61
   2  -5  -8 1540.07   34.25
  -2   5   8 1596.10   34.91
   2  -5  -7  231.73   19.98
  -2   5   7  241.32   12.81
   2  -5  -6 1107.51   22.00
  -2   5   6 1128.43   22.31
   2  -5  -5   13.44   19.86
  -2   5   5   -1.84   12.17
   2  -5  -4 4243.12   72.78
  -2   5   4 4382.96   74.00
   2  -5  -3  263.32   25.86
  -2   5   3  325.35   25.36
   2  -5  -2 4039.12   90.38
  -2   5   2 4020.88   70.31
   2  -5  -1 1547.90   33.30
  -2   5   1 1551.12   43.90
   2  -5   0  154.63   16.95
  -2   5   0  122.52   16.11
   2  -5   1  755.83   24.62
  -2   5  -1  761.61   24.11
   2  -5   210305.82  283.59
  -2   5  -210227.79  237.89
   2  -5   3  219.36   23.01
   2  -5   3  231.37   32.11
  -2   5  -3  197.18   19.02
   2  -5   4  524.96   18.42
   2  -5   4  563.44   23.39
  -2   5  -4  476.00   21.82
   2  -5   5  242.24   26.12
   2  -5   5  248.41   21.04
  -2   5  -5  282.81   33.35
   2  -5   6  238.06   28.34
   2  -5   6  288.84   33.49
  -2   5  -6  301.66   34.22
   2  -5   7   13.85   27.10
   2  -5   7   -0.68   19.18
   2  -5   8  174.94   32.79
   2  -5   8  169.66   33.71
   2  -4 -13  247.97   29.47
   2  -4 -12  319.77   28.51
   2  -4 -11   82.96   36.23
  -2   4  11   18.37    7.02
   2  -4 -10 2805.71   43.87
  -2   4  10 2954.01   44.59
   2  -4  -9  271.05   13.86
  -2   4   9  298.75    9.36
   2  -4  -8 2372.94   40.56
  -2   4   8 2397.92   40.29
   2  -4  -7 8100.30  163.43
  -2   4   7 7873.32  158.60
   2  -4  -6  177.12   16.65
  -2   4   6  169.26   10.20
   2  -4  -5   75.56   10.23
  -2   4   5   79.29   10.13
   2  -4  -4  636.68   24.59
  -2   4   4  643.77   23.34
   2  -4  -3  541.59   15.88
  -2   4   3  505.43   14.62
   2  -4  -2  375.42   22.91
  -2   4   2  338.95   22.52
   2  -4  -1   20.48   20.73
  -2   4   1   20.88   11.90
   2  -4   0  144.78   22.78
  -2   4   0  120.72   14.05
   2  -4   1  215.92   15.74
  -2   4  -1  205.12   14.84
   2  -4   2  268.79   16.51
  -2   4  -2  270.56   15.98
   2  -4   3 2833.64   45.62
   2  -4   3 2833.31   67.78
  -2   4  -3 2813.44   66.41
   2  -4   4   27.04   11.96
   2  -4   4   41.38   15.04
  -2   4  -4   28.64   14.80
   2  -4   5  917.66   32.35
   2  -4   5  842.36   24.17
  -2   4  -5  894.96   23.57
   2  -4   6  750.81   33.32
   2  -4   6  780.06   35.25
  -2   4  -6  849.11   36.80
   2  -4   7  152.49   27.61
   2  -4   7  142.56   17.60
  -2   4  -7  149.75   17.49
   2  -4   8 1135.78   46.08
   2  -4   9   -0.72   19.30
   2  -4   9   18.35   27.42
   2  -4  10   43.80   34.62
   2  -4  10   49.45   28.26
   2  -3 -13  105.07   43.99
   2  -3 -12   30.08   22.57
   2  -3 -11  446.25   27.14
   2  -3 -10 2475.52   71.52
  -2   3  10 2251.79   34.38
   2  -3  -9  185.92   19.16
   2  -3  -9  150.64   10.28
  -2   3   9  155.18   10.75
   2  -3  -8 2833.67   42.16
  -2   3   8 3019.95   43.81
   2  -3  -7  987.58   20.29
  -2   3   7 1024.76   15.18
   2  -3  -6   92.14    8.20
  -2   3   6  111.74    8.18
   2  -3  -5  538.92   17.95
  -2   3   5  551.22   12.31
   2  -3  -4 3151.38   54.02
  -2   3   4 3154.04   52.78
   2  -3  -3   17.24    9.51
  -2   3   3   18.53   15.37
   2  -3  -2 5436.42  103.08
  -2   3   2 5601.46   87.96
   2  -3  -1 9389.52  183.39
  -2   3   1 9305.15  180.04
   2  -3   0 2400.40   50.81
  -2   3   0 2395.17   47.84
   2  -3   1 1646.14   28.17
  -2   3  -1 1630.25   26.55
   2  -3   2 1884.99   43.82
  -2   3  -2 1924.38   31.30
   2  -3   3  842.19   17.47
   2  -3   3  804.16   19.73
  -2   3  -3  788.28   28.36
   2  -3   4  411.36   14.30
   2  -3   4  427.11   16.16
  -2   3  -4  456.90   16.18
   2  -3   5 1130.92   32.84
   2  -3   5 1124.38   23.71
  -2   3  -5 1173.23   34.67
   2  -3   6  113.68   22.30
   2  -3   6   56.55   22.17
  -2   3  -6  134.57   21.46
   2  -3   7 1938.66   38.68
   2  -3   7 1918.49   35.93
  -2   3  -7 2087.78   37.57
   2  -3   8   29.25   26.89
   2  -3   8   53.49   22.90
   2  -3   9  223.63   20.49
   2  -3   9  189.23   25.60
   2  -3  10  -50.22   32.12
   2  -3  10   24.20   24.33
   2  -3  11   34.22   22.71
   2  -3  11   46.78   25.25
   2  -2 -13    4.52   22.48
   2  -2 -12   76.32   35.42
  -2   2  11 1697.31   16.84
  -2   2  11 1671.18   16.45
   2  -2 -10  627.50   25.28
  -2   2  10  611.06   12.52
   2  -2  -9 2833.49   70.39
   2  -2  -9 2580.99   35.05
  -2   2   9 2595.74   34.98
   2  -2  -8 1652.45   32.57
   2  -2  -8 1613.30   23.84
  -2   2   8 1619.44   24.13
   2  -2  -7  287.16   11.14
  -2   2   7  271.13   12.05
   2  -2  -6  122.22   10.72
  -2   2   6  122.57   11.43
   2  -2  -5 4112.10   54.62
  -2   2   5 4083.32   62.57
   2  -2  -4 4190.17   67.66
  -2   2   4 4266.91   67.21
   2  -2  -3   45.01   14.15
  -2   2   3   49.68   14.36
   2  -2  -2  999.19   25.55
  -2   2   2 1108.39   26.59
   2  -2  -1 2614.87   49.31
  -2   2   1 2637.96   36.82
   2  -2   0 2480.01   36.17
  -2   2   0 2563.04   35.69
   2  -2   1 1442.44   33.98
  -2   2  -1 1474.52   32.82
   2  -2   2 2606.78   49.22
  -2   2  -2 2540.48   46.87
   2  -2   3   85.80   16.22
   2  -2   3   65.74   10.67
  -2   2  -3   71.92    9.95
   2  -2   4  378.18   21.05
   2  -2   4  384.89   13.50
  -2   2  -4  378.73   13.13
   2  -2   5  901.17   19.33
  -2   2  -5  936.42   18.57
   2  -2   6 1816.47   44.24
   2  -2   6 1813.83   40.17
  -2   2  -6 1896.57   29.81
   2  -2   7  161.37   15.11
   2  -2   7  147.69   19.23
  -2   2  -7  132.84   12.22
   2  -2   8  259.37   17.84
   2  -2   8  242.48   20.97
  -2   2  -8  269.92   13.23
   2  -2   9  136.26   30.83
   2  -2   9  233.32   21.03
   2  -2  10  215.83   21.80
   2  -2  10  191.75   22.69
   2  -2  11  583.88   43.33
   2  -2  11  467.88   17.53
   2  -2  11  468.58   27.10
   2  -1 -13  447.33   44.25
   2  -1 -12   71.98   32.46
   2  -1 -11   92.65   19.25
  -2   1  11  120.06   10.32
  -2   1  11   81.54    7.79
   2  -1 -10 1403.28   34.07
  -2   1  10 1378.76   23.38
   2  -1  -9 3429.96   82.32
  -2   1   9 3580.54   52.23
   2  -1  -8   45.59   14.21
  -2   1   8   21.57   10.49
   2  -1  -7  665.29   18.06
   2  -1  -7  667.53   14.82
  -2   1   7  642.13   15.43
   2  -1  -6   55.44    9.87
  -2   1   6   73.16   10.51
   2  -1  -5  337.59   12.34
  -2   1   5  348.29    8.68
   2  -1  -4 1403.67   23.89
  -2   1   4 1460.48   18.50
   2  -1  -3 2555.25   32.12
  -2   1   3 2554.80   40.69
   2  -1  -2  681.10   21.82
  -2   1   2  689.22   14.16
   2  -1  -110243.14  221.81
  -2   1   110894.61  210.39
   2  -1   0 1429.26   22.66
  -2   1   0 1471.97   22.95
   2  -1   1  622.65   15.10
  -2   1  -1  679.42   14.93
   2  -1   2 8041.03  158.51
  -2   1  -2 8280.83  159.43
   2  -1   3  206.59   11.06
   2  -1   3  211.03   16.21
  -2   1  -3  216.67    9.68
   2  -1   4 1744.14   26.03
   2  -1   4 1726.67   23.78
  -2   1  -4 1748.26   30.77
   2  -1   5 1155.95   20.84
   2  -1   5 1133.89   17.39
  -2   1  -5 1171.35   17.68
   2  -1   6 2956.67   48.06
   2  -1   6 2913.90   40.21
  -2   1  -6 3027.12   48.59
   2  -1   7   27.14   13.15
   2  -1   7   14.49   13.81
  -2   1  -7    6.82   13.31
   2  -1   8  525.77   20.73
   2  -1   8  555.44   13.47
  -2   1  -8  535.35   20.12
  -2   1  -8  555.57   18.87
   2  -1   9   63.68   16.94
   2  -1   9   33.10    9.67
  -2   1  -9   54.16   16.57
   2  -1  10   54.19   30.47
   2  -1  10   11.69   16.43
   2  -1  11  198.38   22.86
   2  -1  11  172.04   16.69
   2  -1  11  213.19   18.40
   2  -1  12  322.13   27.06
   2   0 -13  175.86   34.71
   2   0 -12   32.02   29.70
   2   0 -11   75.11   27.46
  -2   0  11   66.98   13.15
  -2   0  11   43.91   11.25
   2   0 -10  307.75   18.05
  -2   0  10  271.23   15.26
  -2   0  10  265.92    8.41
   2   0  -9 1131.73   25.42
  -2   0   9 1083.70   21.99
  -2   0   9 1065.86   15.23
   2   0  -8  597.62   26.75
  -2   0   8  597.63   16.70
   2   0  -7  782.61   18.07
  -2   0   7  768.57   17.81
   2   0  -6 8178.00  152.58
   2   0  -6 8269.77  141.68
  -2   0   6 8184.12  148.43
   2   0  -5  486.49   12.89
   2   0  -5  460.18    9.37
  -2   0   5  478.34   14.34
   2   0  -4 9483.85  184.88
  -2   0   4 9608.81  186.53
   2   0  -3 1478.60   26.48
  -2   0   3 1509.12   27.27
   2   0  -2 4527.55   62.47
  -2   0   2 4718.42   64.51
   2   0  -1 1660.11   33.50
  -2   0   1 1674.34   23.39
   2   0   0 1681.69   34.97
  -2   0   0 1758.35   24.53
   2   0   1 4459.01   62.00
  -2   0  -1 4681.39   63.57
   2   0   2 5408.55   78.81
   2   0   2 5354.64   89.03
  -2   0  -2 5489.04   76.95
   2   0   3  396.38   12.33
   2   0   3  355.41   15.14
  -2   0  -3  364.48   15.03
   2   0   4 1185.85   28.79
  -2   0  -4 1240.72   29.76
   2   0   5 1921.50   29.84
   2   0   5 1843.96   27.51
  -2   0  -5 1916.34   39.68
  -2   0  -5 1812.86   26.08
   2   0   6 1043.64   20.96
   2   0   6 1017.17   18.74
  -2   0  -6  995.60   20.99
  -2   0  -6 1058.18   13.70
   2   0   7 4345.14   90.93
   2   0   7 4371.45   65.33
  -2   0  -7 4280.38   72.42
  -2   0  -7 4441.21   63.01
   2   0   8 4744.00   85.74
  -2   0  -8 4780.91   85.89
  -2   0  -8 4751.47   63.14
   2   0   9 1580.08   36.01
   2   0   9 1590.06   25.81
  -2   0  -9 1616.76   34.91
   2   0  10  139.14   31.71
  -2   0 -10   92.33   18.42
   2   0  11 1461.71   57.76
   2   0  11 1438.08   25.91
  -2   0 -11 1595.04   55.95
   2   0  12  671.69   49.10
  -2   0 -12  684.54   29.81
  -2   0 -13   11.86   36.50
   2   1 -12  158.03   19.08
   2   1 -11   40.89   15.76
  -2  -1  11   66.39   15.59
  -2  -1  11   39.15   15.03
   2   1 -10  268.67   25.70
  -2  -1  10  235.70   17.30
  -2  -1  10  212.44   16.21
   2   1  -9  421.31   25.72
  -2  -1   9  411.82   18.03
  -2  -1   9  356.82   16.00
   2   1  -8  289.77   21.01
  -2  -1   8  280.36   16.49
  -2  -1   8  302.01   15.16
   2   1  -7   -1.87    9.92
  -2  -1   7   15.25   13.16
   2   1  -6 5346.81   97.58
  -2  -1   6 5590.04   94.58
   2   1  -5   99.16    8.54
  -2  -1   5  100.45    8.20
   2   1  -4 3551.19   56.04
  -2  -1   4 3478.41   46.01
   2   1  -3  928.55   15.52
  -2  -1   3  931.62   15.32
   2   1  -2   78.64   15.78
  -2  -1   2  104.08   15.90
   2   1  -1  801.74   15.30
  -2  -1   1  844.28   16.26
   2   1   0 9645.54  195.61
  -2  -1   0 9888.24  178.88
   2   1   1 3754.59   48.43
  -2  -1  -1 3760.87   59.74
   2   1   2134747.316917.45
   2   1   2136969.817283.65
  -2  -1  -2135052.917034.62
   2   1   3113341.712081.90
   2   1   3109097.111587.37
  -2  -1  -3109082.611782.22
  -2  -1  -3112982.811963.72
   2   1   4 7745.86  148.06
   2   1   4 7456.00  119.96
  -2  -1  -4 7536.14  129.34
  -2  -1  -4 7661.22  119.84
   2   1   5 5122.13   94.17
   2   1   5 5136.56   68.93
  -2  -1  -5 5452.06   99.29
  -2  -1  -5 5148.96   68.32
   2   1   6   18.80   12.08
   2   1   6   24.85    6.27
  -2  -1  -6   21.93   11.70
  -2  -1  -6   10.68    5.99
   2   1   7 5689.12   98.59
   2   1   7 5511.55   74.42
  -2  -1  -7 5604.01   97.58
  -2  -1  -7 5580.95   73.95
   2   1   8 7801.19  155.41
   2   1   8 7429.72  113.89
  -2  -1  -8 7625.60  176.97
   2   1   9  783.68   37.50
  -2  -1  -9  796.05   37.51
   2   1  10  182.05   32.33
  -2  -1 -10  193.80   19.99
   2   1  11   93.95   33.75
  -2  -1 -11   79.47   33.67
  -2  -1 -12  175.39   22.98
  -2  -1 -13  -14.70   37.63
   2   2 -12  169.59   29.57
  -2  -2  11   87.31   12.29
  -2  -2  11   88.97   19.30
   2   2 -10   92.91   23.23
  -2  -2  10   91.78   19.12
  -2  -2  10  117.92   18.14
   2   2  -9  114.48   20.40
  -2  -2   9   61.68   11.17
  -2  -2   9   86.27   16.68
   2   2  -8 3980.59   63.63
  -2  -2   8 4048.23   62.94
  -2  -2   8 3870.32   72.64
   2   2  -7 6225.86  104.92
  -2  -2   7 6252.06  122.29
  -2  -2   7 6169.22  105.48
   2   2  -6   44.41    8.62
  -2  -2   6   37.99   10.32
  -2  -2   6   67.58    9.20
   2   2  -5 2696.79   33.95
  -2  -2   5 2713.78   38.34
   2   2  -4 2357.02   32.91
  -2  -2   4 2451.00   43.31
   2   2  -3   23.97    7.95
  -2  -2   3   36.69   15.83
   2   2  -2 1435.93   16.27
  -2  -2   2 1524.45   23.22
   2   2  -1  837.19   25.87
  -2  -2   1  811.72   24.78
   2   2   0   30.07   10.02
  -2  -2   0    8.27   16.75
   2   2   1 1876.94   21.49
   2   2   1 1899.93   36.03
  -2  -2  -1 1896.34   25.91
   2   2   226186.83  896.00
   2   2   225895.62  910.93
  -2  -2  -227459.29  932.94
  -2  -2  -227563.71  926.61
   2   2   347201.98 2447.59
   2   2   346626.99 2421.58
  -2  -2  -346145.41 2440.51
  -2  -2  -345704.91 2367.93
   2   2   4  984.55   25.63
   2   2   4  918.29   10.37
  -2  -2  -4  952.88   16.90
  -2  -2  -4  932.70   14.27
   2   2   5   59.78   16.82
   2   2   5   14.75    5.32
  -2  -2  -5   12.30   16.79
  -2  -2  -5   15.38    5.36
   2   2   6 5045.73   80.01
   2   2   6 4798.76   57.38
  -2  -2  -6 4753.22   90.90
  -2  -2  -6 4959.51   58.54
   2   2   7 5249.87   88.33
  -2  -2  -7 5080.56   85.79
   2   2   8 2733.55   47.79
  -2  -2  -8 2660.33   46.67
   2   2   9 1362.15   31.26
  -2  -2  -9 1280.51   44.81
   2   2  10  804.65   42.23
  -2  -2 -10  785.08   26.20
  -2  -2 -11 1119.54   49.65
  -2  -2 -12  250.63   39.83
  -2  -2 -13  406.95   29.83
  -2  -2 -14  -35.12   41.25
   2   3 -11   45.78   24.03
  -2  -3  11   28.77   23.27
  -2  -3  11   38.60   21.45
   2   3 -10   63.37   13.75
  -2  -3  10   87.14   14.38
   2   3  -9  398.89   15.17
  -2  -3   9  382.46   16.63
  -2  -3   9  375.68   15.87
   2   3  -8   68.57   16.78
  -2  -3   8   55.69   21.90
  -2  -3   8   32.98   19.05
   2   3  -7   11.80    9.06
  -2  -3   7   62.79   19.80
  -2  -3   7    5.15   11.46
   2   3  -6  358.31   15.64
  -2  -3   6  348.11   23.34
  -2  -3   6  324.55   20.44
   2   3  -5 2769.12   40.57
  -2  -3   5 2768.28   43.31
  -2  -3   5 2731.45   53.44
   2   3  -4  264.91   10.28
  -2  -3   4  250.31   13.07
  -2  -3   4  241.92   19.24
   2   3  -3 1023.72   13.36
  -2  -3   3 1112.45   29.95
   2   3  -2   69.83    4.30
  -2  -3   2   35.05   10.81
  -2  -3   1 2091.20   30.75
  -2  -3   0  271.81   12.42
  -2  -3  -1 6912.43   90.58
  -2  -3  -1 6902.41  113.49
  -2  -3  -2 2508.48   30.94
  -2  -3  -2 2515.87   32.84
   2   3   3 4868.92   74.47
  -2  -3  -3 4756.82   63.58
  -2  -3  -3 5049.29   76.49
   2   3   4 2849.65   37.45
  -2  -3  -4 2757.22   45.43
  -2  -3  -4 2814.31   37.31
   2   3   5 3443.07   49.69
  -2  -3  -5 3445.32   49.34
  -2  -3  -5 3481.57   42.41
   2   3   6   13.79   10.90
  -2  -3  -6   -2.12   10.60
  -2  -3  -6    9.91    4.92
  -2  -3  -6    9.11    4.41
   2   3   7   59.23   21.59
  -2  -3  -7   50.47   13.15
   2   3   8  422.09   18.79
  -2  -3  -8  394.99   18.55
  -2  -3  -9  543.21   21.16
  -2  -3 -10  -14.44   28.63
  -2  -3 -11   64.10   19.77
  -2  -3 -12  602.13   29.83
  -2  -3 -13   -7.26   40.12
  -2  -3 -14   78.66   27.58
  -2  -4  10   65.69   17.38
  -2  -4  10   95.40   25.02
  -2  -4   9  399.25   30.93
  -2  -4   9  415.89   29.93
  -2  -4   8   31.01   25.43
  -2  -4   8   44.31   14.66
  -2  -4   7  413.29   18.74
  -2  -4   7  395.24   17.98
  -2  -4   6  154.69   24.91
  -2  -4   6   91.06   13.77
  -2  -4   5  921.62   33.36
  -2  -4   5  892.64   21.73
  -2  -4   4 1233.73   36.50
  -2  -4   4 1212.31   24.29
  -2  -4   3 2705.49   45.36
  -2  -4   3 2715.42   44.16
  -2  -4   2   47.39   20.94
  -2  -4   2   34.58   12.25
  -2  -4   1 2623.93   41.60
  -2  -4   1 2576.23   52.55
  -2  -4   0   68.88   11.69
  -2  -4   0   19.37   11.06
  -2  -4  -1 7957.55  112.73
  -2  -4  -1 7860.46  143.08
  -2  -4  -1 7872.87  141.05
  -2  -4  -2  105.00    7.47
  -2  -4  -2  127.38   10.65
  -2  -4  -2  110.73   10.34
  -2  -4  -3 2545.63   35.03
  -2  -4  -3 2618.32   43.15
  -2  -4  -3 2480.34   41.65
  -2  -4  -4 1820.60   24.36
  -2  -4  -4 1817.57   23.39
  -2  -4  -4 1819.34   23.07
  -2  -4  -5    8.76   14.86
  -2  -4  -5   28.17    9.84
  -2  -4  -5   16.15    9.76
  -2  -4  -6  247.66   12.61
  -2  -4  -6  275.87    9.30
  -2  -4  -6  256.12    8.95
  -2  -4  -7  139.42   13.27
  -2  -4  -7  127.08    6.45
  -2  -4  -7  132.86    8.54
  -2  -4  -8  153.40   24.74
  -2  -4  -9    8.27   15.82
  -2  -4 -10  512.07   23.97
  -2  -4 -11   33.44   32.07
  -2  -4 -12  203.70   38.00
  -2  -4 -13   47.46   24.99
  -2  -4 -14   14.66   27.40
  -2  -5   9  -16.19   30.58
  -2  -5   9   42.25   27.83
  -2  -5   8   74.92   30.98
  -2  -5   7   21.80   28.98
  -2  -5   7   32.98   26.70
  -2  -5   6   -9.92   28.07
  -2  -5   6   24.64   26.13
  -2  -5   5   95.03   17.28
  -2  -5   5  147.86   27.10
  -2  -5   4 5191.94   98.77
  -2  -5   4 4895.32   92.43
  -2  -5   3 4096.51   96.09
  -2  -5   3 4020.81   72.43
  -2  -5   2 1638.66   32.99
  -2  -5   2 1587.76   45.23
  -2  -5   1 2182.76   17.86
  -2  -5   1 2376.73   38.38
  -2  -5   0  616.20    6.61
  -2  -5   0  596.84   17.78
  -2  -5  -1  575.97    9.65
  -2  -5  -1  570.19   16.56
  -2  -5  -2 3250.56   39.16
  -2  -5  -2 3235.50   48.75
  -2  -5  -3  362.52    8.00
  -2  -5  -3  348.76   12.48
  -2  -5  -4 2986.53   38.37
  -2  -5  -4 2875.21   40.95
  -2  -5  -5  860.37   22.60
  -2  -5  -5  829.47   20.53
  -2  -5  -5  822.22   14.45
  -2  -5  -6 6664.28  133.69
  -2  -5  -6 6502.71  110.93
  -2  -5  -6 6521.55  112.72
  -2  -5  -7   38.92   20.51
  -2  -5  -7   19.62    9.64
  -2  -5  -7   21.41    9.70
  -2  -5  -8  124.09   14.91
  -2  -5  -8  103.77    8.09
  -2  -5  -8   95.29    7.75
  -2  -5  -9  432.38   19.79
  -2  -5 -10 1614.95   54.57
  -2  -5 -11 2092.40   69.56
  -2  -5 -12 1858.36   51.36
  -2  -5 -13  568.70   32.08
  -2  -5 -14   41.63   27.80
  -2  -6   8  550.05   28.73
  -2  -6   8  552.76   26.06
  -2  -6   7   86.27   22.67
  -2  -6   7  108.01   20.78
  -2  -6   6  153.95   35.34
  -2  -6   6  205.63   21.58
  -2  -6   5  684.48   42.37
  -2  -6   5  587.99   39.47
  -2  -6   4 5573.26  120.42
  -2  -6   4 5784.21  149.28
  -2  -6   3 1444.16   36.23
  -2  -6   3 1503.14   36.42
  -2  -6   2 3283.12   37.06
  -2  -6   2 3676.08   88.90
  -2  -6   1  253.30    5.55
  -2  -6   1  302.33   18.57
  -2  -6   0   33.26    3.92
  -2  -6   0   -9.38   15.10
  -2  -6  -1  322.77   16.64
  -2  -6  -2 3691.40   48.69
  -2  -6  -2 3800.06   62.86
  -2  -6  -3  409.28   12.90
  -2  -6  -3  400.80   24.29
  -2  -6  -4   43.31   12.36
  -2  -6  -4   37.99   11.74
  -2  -6  -5 3108.16   54.46
  -2  -6  -5 3179.66   47.89
  -2  -6  -5 3007.13   46.21
  -2  -6  -6 1348.81   32.90
  -2  -6  -6 1457.14   30.70
  -2  -6  -6 1316.65   29.81
  -2  -6  -7  133.52   13.10
  -2  -6  -7  148.87   14.41
  -2  -6  -7  161.64   14.16
  -2  -6  -8  245.93   16.52
  -2  -6  -8  242.68   12.69
  -2  -6  -8  234.50    8.37
  -2  -6  -9 1467.67   33.05
  -2  -6  -9 1371.98   21.13
  -2  -6  -9 1354.13   20.92
  -2  -6 -10  -14.66   28.59
  -2  -6 -10    5.84    4.91
  -2  -6 -10    3.46    3.50
  -2  -6 -11 2654.05   81.62
  -2  -6 -12 1400.01   41.28
  -2  -6 -13  -11.90   24.97
  -2  -7   7   55.37   26.07
  -2  -7   7  121.50   36.86
  -2  -7   6  115.06   24.42
  -2  -7   6  147.60   37.88
  -2  -7   5   44.71   38.45
  -2  -7   5   87.37   22.53
  -2  -7   4   35.92   22.89
  -2  -7   4   72.78   22.11
  -2  -7   3  608.89   29.08
  -2  -7   3  642.36   44.20
  -2  -7   1  179.17    4.72
  -2  -7   1  246.74   21.15
  -2  -7   0 1114.59   13.12
  -2  -7   0 1195.27   32.21
  -2  -7  -1  164.00   18.91
  -2  -7  -2 3683.62   69.44
  -2  -7  -3 1168.71   21.36
  -2  -7  -3 1152.42   27.82
  -2  -7  -4   53.69   13.54
  -2  -7  -4   77.78   23.64
  -2  -7  -5 5598.40  105.06
  -2  -7  -5 5539.28  121.10
  -2  -7  -6  125.60   18.50
  -2  -7  -6  119.87   20.60
  -2  -7  -6  107.66   19.40
  -2  -7  -7  746.86   29.32
  -2  -7  -7  839.37   25.26
  -2  -7  -7  770.93   16.89
  -2  -7  -8   91.10   14.70
  -2  -7  -8  133.31   15.97
  -2  -7  -8  117.41   10.08
  -2  -7  -9  181.88   18.43
  -2  -7  -9  156.77   14.29
  -2  -7  -9  150.38    9.39
  -2  -7 -10   77.64   18.58
  -2  -7 -10   33.96   10.63
  -2  -7 -10   57.76   11.10
  -2  -7 -11  -29.30   33.11
  -2  -7 -12   28.72   36.18
  -2  -7 -13  166.69   43.34
  -2  -8   5   26.80   42.57
  -2  -8   5   44.25   24.73
  -2  -8   4   92.67   26.33
  -2  -8   4  102.19   41.74
  -2  -8   3 1011.55   60.28
  -2  -8   3 1012.95   39.75
  -2  -8   2   72.88   24.52
  -2  -8   2   82.52   25.26
  -2  -8   0    8.59    5.32
  -2  -8   0   -7.94   34.85
  -2  -8  -1  329.93   39.30
  -2  -8  -2  314.05   12.34
  -2  -8  -2  336.68   36.16
  -2  -8  -3    1.09    7.27
  -2  -8  -3   -5.73   29.46
  -2  -8  -4  196.94   15.37
  -2  -8  -4  194.51   19.25
  -2  -8  -5  358.62   19.65
  -2  -8  -5  367.97   18.75
  -2  -8  -6  501.20   23.93
  -2  -8  -6  518.52   19.50
  -2  -8  -6  452.21   28.70
  -2  -8  -7  155.68   14.22
  -2  -8  -7  135.28   14.41
  -2  -8  -7  155.30   14.33
  -2  -8  -8  582.67   19.88
  -2  -8  -8  548.71   16.47
  -2  -8  -8  511.81   25.50
  -2  -8  -9  339.39   31.31
  -2  -8  -9  271.43   12.99
  -2  -8  -9  304.73   20.75
  -2  -8 -10   14.34   30.81
  -2  -8 -10   10.23   14.85
  -2  -8 -10   15.20   16.11
  -2  -8 -11  635.68   28.83
  -2  -8 -12   -4.25   22.41
  -2  -9   3    0.82   28.45
  -2  -9   3   29.19   43.95
  -2  -9   2  138.99   46.33
  -2  -9   2  117.30   27.87
  -2  -9   1  754.93   37.19
  -2  -9   1  708.66   36.83
  -2  -9   0  324.68   28.40
  -2  -9  -1  490.99   29.47
  -2  -9  -2   19.12   10.39
  -2  -9  -2  -10.24   22.82
  -2  -9  -3    2.07   12.62
  -2  -9  -3    9.38   20.44
  -2  -9  -4   11.57    9.37
  -2  -9  -4   28.27   31.73
  -2  -9  -5  183.86   19.52
  -2  -9  -5  210.61   20.05
  -2  -9  -6  148.06   21.48
  -2  -9  -6  131.43   19.45
  -2  -9  -6  170.09   18.64
  -2  -9  -7   19.12   13.38
  -2  -9  -7   13.19   25.79
  -2  -9  -7   22.83   15.98
  -2  -9  -8  313.35   27.41
  -2  -9  -8  260.06   26.59
  -2  -9  -8  241.54   17.32
  -2  -9  -9   82.09   27.69
  -2  -9  -9   86.84   13.97
  -2  -9  -9   93.82   14.51
  -2  -9 -10   64.57   20.16
  -2  -9 -10   81.75   21.18
  -2  -9 -10  111.28   21.84
  -2  -9 -11  208.83   23.71
  -2 -10   0   47.65   30.10
  -2 -10   0   86.25   28.36
  -2 -10  -1  892.57   41.33
  -2 -10  -1  884.17   40.83
  -2 -10  -2  187.17   27.82
  -2 -10  -3   56.02   39.82
  -2 -10  -4   73.16   23.22
  -2 -10  -5   54.41   19.33
  -2 -10  -5   66.65   23.60
  -2 -10  -5   72.35   22.12
  -2 -10  -6  605.24   19.60
  -2 -10  -6  648.51   46.54
  -2 -10  -6  630.71   28.68
  -2 -10  -7  147.47   25.29
  -2 -10  -7  139.85   20.97
  -2 -10  -7  145.46   20.64
  -2 -10  -8  236.83   18.20
  -2 -10  -8  285.75   31.66
  -2 -10  -8  251.67   20.16
  -2 -10  -9    8.45   29.45
  -2 -10  -9   46.89   27.35
  -2 -10  -9   40.05   27.44
   3  -9  -6   25.58   25.25
  -3   9   6   23.92   23.35
   3  -9  -5  338.04   30.48
  -3   9   5  339.23   28.69
   3  -9  -4   10.31   26.74
  -3   9   4   56.18   24.44
   3  -9  -3  190.69   48.84
  -3   9   3  156.32   26.79
   3  -9  -2  435.28   36.12
  -3   9   2  428.75   50.70
   3  -8  -9   82.59   34.21
  -3   8   9  110.42   20.92
   3  -8  -8  -10.88   20.20
  -3   8   8   66.32   32.87
   3  -8  -7   10.92   33.47
  -3   8   7    2.98   31.99
   3  -8  -6   13.69   22.23
  -3   8   6   60.97   20.33
   3  -8  -5   29.65   22.66
  -3   8   5   58.16   21.58
   3  -8  -4  369.78   27.99
  -3   8   4  303.74   41.18
   3  -8  -3  205.68   43.13
  -3   8   3  196.34   40.28
   3  -8  -2    2.25   25.61
  -3   8   2    6.55   23.17
   3  -8  -1  309.50   49.11
  -3   8   1  315.24   44.99
   3  -8   0  -16.36   27.49
  -3   8   0   54.64   24.42
   3  -8   1   68.30   29.41
  -3   8  -1   26.87   41.64
   3  -8   2   69.47   20.23
   3  -8   2   78.95   30.17
  -3   8  -2   41.11   28.02
   3  -7 -10  149.74   27.42
  -3   7  10   57.66   26.94
   3  -7  -9   19.07   17.38
  -3   7   9   46.83   28.24
   3  -7  -8   -7.76   16.96
  -3   7   8   28.32   17.28
   3  -7  -7   26.38   17.89
  -3   7   7   24.51   28.76
   3  -7  -6  -10.32   29.97
  -3   7   6   73.91   29.23
   3  -7  -5  -14.61   31.22
  -3   7   5   48.94   30.19
   3  -7  -4  242.09   35.81
  -3   7   4  252.65   35.25
   3  -7  -3 1083.84   52.69
  -3   7   3 1065.62   34.13
   3  -7  -2  197.82   24.13
  -3   7   2  145.21   22.80
   3  -7  -1  615.41   31.07
  -3   7   1  618.40   44.76
   3  -7   0  -12.09   23.64
  -3   7   0   40.01   22.00
   3  -7   1   49.98   39.61
  -3   7  -1    0.44   22.78
   3  -7   2  -94.63   41.84
  -3   7  -2   14.91   36.97
   3  -7   3  102.93   31.48
   3  -7   3   68.77   43.77
  -3   7  -3   71.50   39.53
   3  -7   4  245.57   35.90
   3  -7   4  376.12   31.89
  -3   7  -4  356.40   47.73
   3  -6 -12  596.03   38.66
   3  -6 -11  192.08   29.44
   3  -6 -10    1.25   22.16
  -3   6  10   52.07   22.27
   3  -6  -9  146.02   15.43
  -3   6   9  173.14   25.28
   3  -6  -8  190.51   27.26
  -3   6   8  247.25   26.87
   3  -6  -7  386.66   30.36
  -3   6   7  396.87   30.67
   3  -6  -6  139.78   28.12
  -3   6   6  157.84   17.41
   3  -6  -5  249.10   19.50
  -3   6   5  217.35   18.67
   3  -6  -4 4298.41   88.25
  -3   6   4 4570.55  113.42
   3  -6  -3  743.35   26.50
  -3   6   3  711.15   25.31
   3  -6  -2 1840.40   42.45
  -3   6   2 1773.44   41.10
   3  -6  -1 1069.44   49.93
  -3   6   1 1099.45   31.00
   3  -6   0  226.04   22.68
  -3   6   0  220.81   35.20
   3  -6   1  205.03   37.57
  -3   6  -1  192.92   22.14
   3  -6   2 3362.46  104.08
  -3   6  -2 3255.07   70.92
   3  -6   3  243.90   30.98
   3  -6   3  298.78   42.24
  -3   6  -3  240.65   23.82
   3  -6   4   11.85   27.91
   3  -6   4   45.90   37.50
  -3   6  -4  -44.48   20.76
   3  -6   5  105.67   31.01
   3  -6   5   85.83   38.19
  -3   6  -5   67.29   23.33
   3  -6   6  327.84   37.39
   3  -6   6  326.78   27.51
  -3   6  -6  370.59   28.42
   3  -5 -12   44.69   27.02
   3  -5 -11   83.62   43.41
  -3   5  11   62.55   17.22
   3  -5 -10   47.80   11.52
  -3   5  10   44.16   19.79
   3  -5  -9  276.81   21.99
  -3   5   9  234.21   14.11
   3  -5  -8  980.90   32.61
  -3   5   8 1019.09   22.48
   3  -5  -7   91.56   21.83
  -3   5   7   70.78   12.99
   3  -5  -6 1060.89   24.04
  -3   5   6 1022.56   34.36
   3  -5  -5  625.54   29.96
  -3   5   5  532.10   18.52
   3  -5  -4   -6.02   15.43
  -3   5   4   28.54   14.03
   3  -5  -3 2442.56   63.22
  -3   5   3 2424.32   59.90
   3  -5  -2 4118.72  100.88
  -3   5   2 4206.63   76.83
   3  -5  -1   -9.19   16.99
  -3   5   1   47.99   26.59
   3  -5   0 1658.45   37.77
  -3   5   0 1723.94   54.31
   3  -5   1  611.37   24.86
  -3   5  -1  635.33   24.43
   3  -5   2 4438.17  121.26
  -3   5  -2 4636.14   92.19
   3  -5   3  692.20   42.72
  -3   5  -3  711.25   27.31
   3  -5   4  666.18   23.10
   3  -5   4  722.04   43.06
  -3   5  -4  626.75   40.14
   3  -5   5 2498.98   54.71
   3  -5   5 2511.05   77.17
   3  -5   6  311.28   21.29
   3  -5   6  348.28   23.17
  -3   5  -6  296.52   24.66
   3  -5   7  117.94   20.79
   3  -5   7  133.45   34.59
  -3   5  -7  157.12   22.71
   3  -5   8  218.79   24.39
   3  -5   8  259.09   24.14
   3  -4 -13   22.66   28.17
   3  -4 -12  121.42   44.41
   3  -4 -11  346.64   28.33
  -3   4  11  290.65   16.64
   3  -4 -10  -11.83   22.33
   3  -4 -10    0.66   14.84
  -3   4  10   24.76    9.94
   3  -4  -9  440.32   21.20
  -3   4   9  502.14   21.55
   3  -4  -8  757.51   17.55
  -3   4   8  761.77   17.27
   3  -4  -7 4756.48   80.79
  -3   4   7 4877.12   96.19
   3  -4  -6 1186.72   32.89
  -3   4   6 1235.36   32.71
   3  -4  -5    1.32   19.33
  -3   4   5    8.44   11.71
   3  -4  -4 1973.00   47.19
  -3   4   4 2030.31   35.02
   3  -4  -3 3457.56   59.57
  -3   4   3 3461.46   73.22
   3  -4  -2  221.00   25.22
  -3   4   2  201.85   24.09
   3  -4  -1 1184.16   39.73
  -3   4   1 1206.78   25.86
   3  -4   0  586.01   20.59
  -3   4   0  558.20   18.95
   3  -4   1  918.33   25.55
  -3   4  -1  985.86   24.34
   3  -4   2  200.94   17.25
  -3   4  -2  159.96   16.77
   3  -4   3   43.13   26.50
  -3   4  -3    9.77   26.11
   3  -4   4   40.81   23.48
   3  -4   4   25.41   26.98
  -3   4  -4   70.84   27.00
   3  -4   5  679.86   23.13
   3  -4   5  709.86   24.30
  -3   4  -5  688.91   23.75
   3  -4   6  460.24   21.68
   3  -4   6  449.82   21.43
  -3   4  -6  500.42   35.14
   3  -4   7 1166.98   33.45
   3  -4   7 1259.40   47.89
  -3   4  -7 1296.12   33.90
   3  -4   8  189.45   21.32
   3  -4   8  181.04   19.81
  -3   4  -8  220.72   33.72
   3  -4   9  132.44   36.33
   3  -4   9   92.21   31.14
   3  -3 -13   82.55   26.59
   3  -3 -12  669.72   32.96
   3  -3 -11  197.03   38.82
  -3   3  11  175.23   13.71
   3  -3 -10    1.60   20.03
   3  -3 -10    0.59    7.87
  -3   3  10   -0.59    8.72
   3  -3  -9    7.49    8.29
  -3   3   9   15.81    8.55
   3  -3  -8  361.31   17.98
  -3   3   8  364.82   18.17
   3  -3  -7 1593.90   24.94
  -3   3   7 1587.47   24.79
   3  -3  -6  554.77   14.56
  -3   3   6  578.09   14.72
   3  -3  -5   16.50   16.33
  -3   3   5    5.77   10.35
   3  -3  -4  418.15   14.23
  -3   3   4  423.24   22.15
   3  -3  -3  102.36   12.04
  -3   3   3  102.07   11.71
   3  -3  -2 2510.77   52.71
  -3   3   2 2604.93   40.93
   3  -3  -1 3193.02   51.46
  -3   3   1 3244.20   50.68
   3  -3   0 1671.98   30.34
  -3   3   0 1674.62   30.35
   3  -3   1 2285.65   52.60
  -3   3  -1 2319.98   51.44
   3  -3   2   13.85   13.46
  -3   3  -2   28.24   12.72
   3  -3   3   44.96   22.54
  -3   3  -3   68.09   13.06
   3  -3   4  181.23   23.48
   3  -3   4  210.69   25.34
  -3   3  -4  243.83   24.62
   3  -3   5   22.31   14.00
   3  -3   5    8.84   22.13
  -3   3  -5  -21.48   13.82
   3  -3   6  161.69   16.62
   3  -3   6  180.58   25.56
  -3   3  -6  209.08   15.64
   3  -3   7   52.49   17.40
   3  -3   7  102.73   15.39
  -3   3  -7  131.64   24.68
   3  -3   8  414.42   22.79
   3  -3   8  350.04   30.24
  -3   3  -8  429.37   31.64
   3  -3   9   62.46   32.30
   3  -3   9   33.44   26.00
  -3   3  -9    8.39   15.82
   3  -3  10  141.02   24.14
   3  -3  10  136.97   18.22
   3  -2 -13   49.93   39.18
   3  -2 -12  393.99   26.76
   3  -2 -11  167.05   22.37
  -3   2  11  169.81   12.70
   3  -2 -10 2008.91   44.87
   3  -2 -10 1847.22   34.35
  -3   2  10 1956.39   34.82
   3  -2  -9  293.52   31.95
   3  -2  -9  300.55   10.42
  -3   2   9  281.24   10.48
   3  -2  -8   35.37   13.09
  -3   2   8   10.06   14.31
   3  -2  -7 1160.66   25.36
  -3   2   7 1230.75   26.82
   3  -2  -6   61.44   14.58
  -3   2   6   96.25   15.16
   3  -2  -5   95.06   15.97
  -3   2   5  115.69   16.01
   3  -2  -4   20.22    9.58
  -3   2   4   55.43    9.78
   3  -2  -3  672.16   22.96
  -3   2   3  657.11   15.52
   3  -2  -2 2875.10   55.51
  -3   2   2 2961.67   43.52
   3  -2  -1  425.88   14.82
  -3   2   1  469.45   15.05
   3  -2   0 2101.33   46.14
  -3   2   0 2111.03   44.46
   3  -2   1 3644.31   56.27
  -3   2  -1 3690.72   56.52
   3  -2   2   18.28   19.01
  -3   2  -2   14.00   11.38
   3  -2   3   66.59   11.98
  -3   2  -3   91.98   18.58
   3  -2   4  239.77   13.49
   3  -2   4  217.13   21.44
  -3   2  -4  233.48   20.46
   3  -2   5 2216.17   38.10
   3  -2   5 2122.78   47.38
  -3   2  -5 2135.72   35.62
   3  -2   6  581.34   31.08
   3  -2   6  576.13   26.29
  -3   2  -6  647.87   17.91
   3  -2   7  417.60   30.19
   3  -2   7  394.56   15.94
  -3   2  -7  407.64   15.51
   3  -2   8  289.57   20.43
   3  -2   8  323.01   24.88
  -3   2  -8  323.46   15.14
   3  -2   9  517.82   25.55
   3  -2   9  524.88   28.98
  -3   2  -9  550.63   28.21
   3  -2  10  398.40   42.22
   3  -2  10  442.95   28.78
   3  -2  11   15.53   37.82
   3  -2  11   20.46   23.32
   3  -1 -13  779.93   32.48
   3  -1 -12   32.13   20.56
   3  -1 -11 1767.04   59.54
  -3   1  11 1786.05   35.76
   3  -1 -10   89.46   18.73
  -3   1  10  120.93   16.23
   3  -1  -9 1435.13   46.70
   3  -1  -9 1350.65   27.80
  -3   1   9 1442.13   29.70
   3  -1  -8  618.58   31.40
   3  -1  -8  604.43   18.90
  -3   1   8  629.31   13.75
   3  -1  -7  176.98    9.46
  -3   1   7  136.30   15.41
   3  -1  -6  597.34   12.34
  -3   1   6  608.67   19.69
   3  -1  -5 3591.93   50.18
  -3   1   5 3563.76   50.52
   3  -1  -4   -7.77    8.53
  -3   1   4  -12.95   14.64
   3  -1  -3 2792.13   49.72
  -3   1   3 2752.26   49.15
   3  -1  -2 1506.00   23.86
  -3   1   2 1528.59   33.19
   3  -1  -1   53.67   11.00
  -3   1   1   49.29   11.14
   3  -1   0 6141.66  100.93
  -3   1   0 6180.17  100.49
   3  -1   1 3670.92   67.10
  -3   1  -1 3574.72   51.77
   3  -1   2 2784.87   51.06
  -3   1  -2 2722.84   39.40
   3  -1   3    7.76   10.36
   3  -1   3   15.21   16.65
  -3   1  -3   21.72    9.89
   3  -1   4   13.31   17.84
   3  -1   4   13.18    9.93
  -3   1  -4   -7.48    9.72
   3  -1   5   96.68   12.82
   3  -1   5  120.08   16.90
  -3   1  -5  114.97   16.12
   3  -1   6 3699.06   63.07
   3  -1   6 3750.49   68.99
  -3   1  -6 3778.54   57.57
   3  -1   7   50.95   15.21
   3  -1   7   43.87   10.26
  -3   1  -7   47.69   16.77
   3  -1   8 1720.51   36.93
   3  -1   8 1730.17   38.01
  -3   1  -8 1738.28   27.99
   3  -1   9  169.30   20.14
   3  -1   9  179.49   12.57
  -3   1  -9  175.18   19.17
   3  -1  10  695.60   28.52
   3  -1  10  686.74   27.16
   3  -1  11  134.12   23.58
   3  -1  11  135.93   20.76
   3  -1  12 1836.55   77.39
   3   0 -12  405.80   24.54
   3   0 -11  723.61   38.33
  -3   0  11  694.70   16.38
  -3   0  11  630.37   19.92
   3   0 -10  -22.50   16.04
  -3   0  10   14.80   16.42
   3   0  -9 1508.13   43.67
  -3   0   9 1463.11   31.46
   3   0  -8  189.13   14.62
  -3   0   8  193.11   17.19
   3   0  -7  661.75   17.86
   3   0  -7  643.10   14.03
  -3   0   7  684.28   21.45
   3   0  -6 4073.10   69.04
  -3   0   6 4163.47   61.15
   3   0  -5   22.17   14.33
  -3   0   5   27.58   14.29
   3   0  -411499.97  243.12
  -3   0   411737.57  266.44
   3   0  -3 4681.19   81.65
  -3   0   3 4800.25   83.01
   3   0  -2   49.75   10.20
  -3   0   2   45.65   16.70
   3   0  -1 7723.09  155.04
  -3   0   1 7916.09  137.11
   3   0   010679.53  237.23
  -3   0   010437.51  207.80
   3   0   1 1466.63   34.09
  -3   0  -1 1544.30   23.81
   3   0   2 3917.00   56.33
  -3   0  -2 4188.56   71.04
   3   0   3 4024.38   58.19
   3   0   3 3973.35   56.07
  -3   0  -3 4013.57   55.89
   3   0   4 1679.18   26.58
   3   0   4 1581.01   22.38
  -3   0  -4 1641.38   22.76
   3   0   5   -0.00   11.35
   3   0   5   -4.56   12.80
  -3   0  -5  -13.05    7.70
   3   0   6   86.88   13.19
   3   0   6   96.37    8.46
  -3   0  -6  109.06   13.21
   3   0   7 1155.87   25.92
   3   0   7 1172.63   24.19
  -3   0  -7 1160.79   24.41
   3   0   8  373.30   30.78
   3   0   8  367.17   16.04
  -3   0  -8  393.00   15.98
   3   0   9 1337.57   33.40
   3   0   9 1216.82   25.77
  -3   0  -9 1282.82   33.22
  -3   0  -9 1310.49   25.96
   3   0  10  216.88   34.48
   3   0  10  214.04   14.07
   3   0  11 3112.27   97.72
   3   0  11 3098.25   58.15
   3   0  12  241.35   27.02
   3   1 -12   94.19   18.53
   3   1 -11  136.96   17.91
  -3  -1  11  130.12   20.18
  -3  -1  11  124.89   17.26
   3   1 -10 1290.61   39.11
  -3  -1  10 1217.50   31.76
  -3  -1  10 1157.77   21.25
   3   1  -9  694.11   29.46
  -3  -1   9  720.42   24.04
   3   1  -8  228.83   13.55
  -3  -1   8  231.32   18.71
   3   1  -7  155.27   11.38
  -3  -1   7  165.12   17.54
   3   1  -6  383.40   12.16
   3   1  -6  348.44   12.23
  -3  -1   6  397.30   19.26
   3   1  -5  972.38   16.59
   3   1  -5  911.43   23.82
  -3  -1   5  967.96   17.45
   3   1  -4 1102.61   26.22
  -3  -1   4 1088.04   18.39
   3   1  -3   96.86   10.23
  -3  -1   3   83.29   16.65
   3   1  -2   66.52   10.10
  -3  -1   2   75.70   10.54
   3   1  -1 1286.40   21.61
  -3  -1   1 1293.63   31.01
   3   1   0 2065.87   30.84
  -3  -1   0 2092.03   30.60
   3   1   1 1707.84   25.69
  -3  -1  -1 1743.49   26.26
   3   1   237883.48 1663.67
   3   1   237269.69 1695.65
  -3  -1  -236308.10 1661.27
   3   1   317163.95  455.22
   3   1   315884.86  401.49
  -3  -1  -316472.62  432.86
   3   1   4 2889.41   41.19
   3   1   4 2855.66   36.16
  -3  -1  -4 2944.50   36.83
   3   1   511965.64  265.38
   3   1   512093.80  263.07
  -3  -1  -512255.57  297.69
  -3  -1  -511905.73  243.38
   3   1   6  158.91   13.33
   3   1   6  143.41    6.91
  -3  -1  -6  148.37   13.39
  -3  -1  -6  134.61   11.16
   3   1   7  165.79   24.02
  -3  -1  -7  196.53   23.71
  -3  -1  -7  179.01   10.61
   3   1   8  362.98   19.16
   3   1   8  379.29   12.10
  -3  -1  -8  365.77   19.26
  -3  -1  -8  346.77   11.86
   3   1   9 1914.98   40.16
   3   1   9 1909.10   27.88
  -3  -1  -9 1919.56   40.48
  -3  -1  -9 1926.71   26.15
   3   1  10  247.61   34.30
  -3  -1 -10  230.01   34.08
   3   1  11  253.10   38.67
  -3  -1 -11  321.11   38.36
   3   1  12    6.74   38.62
  -3  -1 -12   46.15   23.13
   3   1  13  157.31   45.59
  -3  -1 -13  205.17   44.10
   3   2 -11   -3.72   15.04
  -3  -2  11   10.19   20.47
  -3  -2  11   19.08   12.11
   3   2 -10  246.88   24.64
  -3  -2  10  224.55   22.78
  -3  -2  10  209.21   13.25
   3   2  -9   36.20   20.77
  -3  -2   9   49.47   12.47
  -3  -2   9   50.86   11.32
   3   2  -8  260.36   19.39
  -3  -2   8  242.97   13.73
  -3  -2   8  256.95   12.24
   3   2  -7   90.72    9.87
  -3  -2   7   96.04   19.12
   3   2  -6 1529.39   29.64
  -3  -2   6 1532.38   35.65
  -3  -2   5   93.65   11.20
   3   2  -4  268.31   11.70
   3   2  -4  294.62   12.53
  -3  -2   4  322.00   12.44
   3   2  -3   92.55   17.08
  -3  -2   3   72.98   10.83
   3   2  -2 6279.20  103.51
  -3  -2   2 6121.58   99.82
   3   2  -1 3829.03   56.08
  -3  -2   1 3752.93   55.25
   3   2   0   92.05   18.74
  -3  -2   0  138.49   11.66
   3   2   1 3074.27   40.45
   3   2   1 3147.85   43.85
  -3  -2  -1 3257.80   44.79
   3   2   2 4694.59   70.83
   3   2   2 4727.32   67.53
  -3  -2  -2 4752.63   80.06
   3   2   3  315.69   10.22
   3   2   3  300.39    9.63
  -3  -2  -3  287.66    9.98
  -3  -2  -3  297.25    9.89
   3   2   4  101.18   10.36
   3   2   4   94.29    7.23
  -3  -2  -4   83.18    9.95
  -3  -2  -4  108.27   11.62
   3   2   5 7886.90  140.17
   3   2   5 7662.06  130.81
  -3  -2  -5 7651.10  136.59
  -3  -2  -5 7794.56  132.22
   3   2   6  228.35   13.44
   3   2   6  190.82    9.57
  -3  -2  -6  193.31   20.59
  -3  -2  -6  199.55    9.80
   3   2   7  570.16   29.53
   3   2   7  615.04   11.32
  -3  -2  -7  599.68   18.62
   3   2   8  184.42   26.90
   3   2   8  157.11    9.24
  -3  -2  -8  162.46   16.18
  -3  -2  -8  163.12    6.81
   3   2   9   69.38   28.16
   3   2   9   47.41    4.17
  -3  -2  -9   11.19   27.82
  -3  -2  -9   41.27    3.91
   3   2  10   39.86   30.27
  -3  -2 -10   35.20   29.21
   3   2  11  123.16   36.42
  -3  -2 -11  175.98   20.81
   3   2  12 1183.91   60.03
  -3  -2 -12 1108.78   56.53
  -3  -2 -13  824.61   36.10
   3   3 -11  340.84   17.76
  -3  -3  11  326.73   29.10
  -3  -3  11  362.45   27.17
   3   3 -10   97.93   13.89
  -3  -3  10  110.59   15.46
  -3  -3  10   55.88   23.19
   3   3  -9  133.37   12.45
  -3  -3   9  145.63   24.06
  -3  -3   9  110.92   14.11
   3   3  -8 1424.38   32.13
  -3  -3   8 1431.69   41.09
  -3  -3   8 1407.58   39.23
   3   3  -7  280.48   16.57
  -3  -3   7  270.66   15.51
  -3  -3   7  281.51   14.60
   3   3  -6 5467.62   92.14
  -3  -3   6 5476.88   97.92
   3   3  -5 6595.30  109.46
  -3  -3   5 6254.50  135.68
   3   3  -4  126.28    8.59
  -3  -3   4  141.41   13.22
   3   3  -3   49.99    6.07
  -3  -3   3   61.18   12.05
   3   3  -2 4071.21   44.79
  -3  -3   2 4351.36   66.88
   3   3  -1  837.14   19.40
  -3  -3   1  881.29   19.19
   3   3   0 9947.88  197.71
  -3  -3   0 9737.44  215.91
   3   3   1   45.39    5.79
   3   3   1   36.51   10.47
  -3  -3  -1   27.33   17.29
   3   3   2  236.26   18.67
  -3  -3  -2  289.97   17.54
   3   3   3 1133.61   15.56
   3   3   3 1163.09   18.04
  -3  -3  -3 1100.38   20.15
  -3  -3  -3 1152.99   24.62
   3   3   4 7208.68  118.44
   3   3   4 7005.16  123.19
  -3  -3  -4 7048.36  129.56
  -3  -3  -4 6982.57  110.38
   3   3   5 5520.27   86.21
   3   3   5 5364.58   81.79
  -3  -3  -5 5285.87   83.65
  -3  -3  -5 5448.33   82.70
   3   3   6 1504.76   25.64
   3   3   6 1480.49   20.00
  -3  -3  -6 1457.34   34.36
  -3  -3  -6 1484.99   16.57
   3   3   7  163.96   13.96
   3   3   7  154.16    6.84
  -3  -3  -7  152.11   21.99
  -3  -3  -7  163.16    7.42
   3   3   8  117.68   25.38
  -3  -3  -8  133.53   24.43
  -3  -3  -8  119.93    6.61
   3   3   9  235.80   30.65
  -3  -3  -9  317.83   29.97
   3   3  10  901.03   30.19
  -3  -3 -10 1017.57   29.31
   3   3  11  632.61   29.51
  -3  -3 -11  669.27   43.12
  -3  -3 -12 1374.88   41.02
  -3  -3 -13  108.83   42.21
  -3  -3 -14  393.52   32.13
   3   4 -10  207.92   22.58
  -3  -4  10  216.58   30.15
  -3  -4  10  194.74   28.38
   3   4  -9  168.96   12.56
  -3  -4   9  156.22   18.20
  -3  -4   9  175.24   17.31
   3   4  -8    6.43   15.50
  -3  -4   8   33.92   15.68
  -3  -4   8    0.69   23.80
   3   4  -7  195.15   14.48
  -3  -4   7  173.35   17.56
   3   4  -6  337.02    9.17
  -3  -4   6  357.09   28.11
  -3  -4   6  325.86   17.10
   3   4  -5  873.71   15.73
  -3  -4   5  839.52   22.92
  -3  -4   5  882.61   22.11
   3   4  -4 2484.44   29.21
  -3  -4   4 2529.82   44.96
  -3  -4   3  131.12   14.50
  -3  -4   2  221.48   23.33
  -3  -4   1  172.22   21.95
  -3  -4   0 2169.40   47.70
  -3  -4  -1 4190.49   65.58
  -3  -4  -2  375.44    8.21
  -3  -4  -2  406.35   12.99
   3   4   3  224.28   11.28
  -3  -4  -3  222.47   10.59
  -3  -4  -3  245.89   11.13
   3   4   4 6144.85   95.00
  -3  -4  -4 6144.03  104.44
  -3  -4  -4 6444.44  112.15
   3   4   5  210.53   10.72
  -3  -4  -5  227.80   16.27
  -3  -4  -5  224.99    8.68
   3   4   6 5417.78   91.18
  -3  -4  -6 5582.55  106.37
  -3  -4  -6 5644.77   79.16
   3   4   7  595.41   26.94
  -3  -4  -7  546.71   26.82
  -3  -4  -7  601.57   12.70
   3   4   8  222.94   16.14
  -3  -4  -8  212.94   15.60
  -3  -4  -8  204.98    6.92
  -3  -4  -9  545.27   20.90
  -3  -4 -10  525.13   36.55
  -3  -4 -11  185.62   22.18
  -3  -4 -12  -17.99   36.13
  -3  -4 -13  306.80   28.59
  -3  -4 -14  138.62   48.34
  -3  -5   9  239.62   22.47
  -3  -5   9  230.67   32.46
  -3  -5   8  661.81   27.73
  -3  -5   8  683.18   25.78
  -3  -5   7   99.03   18.68
  -3  -5   7   77.57   16.93
  -3  -5   6  477.97   35.45
  -3  -5   6  444.41   20.83
  -3  -5   5 1430.79   48.66
  -3  -5   5 1341.38   30.86
  -3  -5   4  491.59   21.19
  -3  -5   4  487.61   21.05
  -3  -5   3  292.18   29.49
  -3  -5   3  293.61   29.14
  -3  -5   2 2031.47   39.01
  -3  -5   2 1975.08   52.33
  -3  -5   1   35.76   15.32
  -3  -5   1   89.31   14.26
  -3  -5   0 4712.61   81.85
  -3  -5  -1  131.38   13.77
  -3  -5  -2 1111.04   12.43
  -3  -5  -2 1238.07   32.73
  -3  -5  -3   17.55    7.91
  -3  -5  -3   -8.14   10.44
  -3  -5  -4  201.35   12.88
  -3  -5  -4  193.37   18.06
  -3  -5  -5 5417.78   85.09
  -3  -5  -5 5627.08   87.64
  -3  -5  -5 5261.64   81.24
  -3  -5  -6  487.47   14.43
  -3  -5  -6  460.93   10.72
  -3  -5  -6  467.39   10.85
  -3  -5  -7  -23.45   12.18
  -3  -5  -7   22.07   10.82
  -3  -5  -7   15.02    6.04
  -3  -5  -8 3065.20   70.14
  -3  -5  -8 3195.20   42.59
  -3  -5  -8 2950.23   39.82
  -3  -5  -9  138.64   16.53
  -3  -5  -9  118.28    5.93
  -3  -5  -9  111.55    5.54
  -3  -5 -10   -5.94   27.91
  -3  -5 -11  195.27   21.51
  -3  -5 -12  284.31   40.73
  -3  -5 -13  126.69   26.57
  -3  -5 -14  302.02   50.13
  -3  -6   8  420.89   41.65
  -3  -6   8  352.01   24.69
  -3  -6   7  373.00   40.51
  -3  -6   7  411.89   24.86
  -3  -6   6 1485.58   40.43
  -3  -6   6 1451.42   38.96
  -3  -6   5  105.67   19.91
  -3  -6   5   21.72   18.40
  -3  -6   4 1118.00   48.77
  -3  -6   4 1025.25   31.22
  -3  -6   3  583.98   25.85
  -3  -6   3  605.91   36.50
  -3  -6   2  147.83   29.89
  -3  -6   2  111.66   17.55
  -3  -6   1 1028.77   27.79
  -3  -6   1 1052.68   42.54
  -3  -6   0  202.82   17.54
  -3  -6   0  193.71   17.88
  -3  -6  -1 1874.82   36.35
  -3  -6  -1 1886.80   36.64
  -3  -6  -2  983.91   23.55
  -3  -6  -2 1076.46   24.51
  -3  -6  -3  230.62    9.31
  -3  -6  -3  234.41   23.81
  -3  -6  -3  220.60   14.75
  -3  -6  -4 4479.63   68.99
  -3  -6  -4 4488.80   91.84
  -3  -6  -4 4469.74   74.07
  -3  -6  -5 5474.10   95.00
  -3  -6  -5 5181.69  101.59
  -3  -6  -6 1031.92   26.87
  -3  -6  -6  968.97   18.13
  -3  -6  -6  973.49   18.29
  -3  -6  -7 1940.09   32.04
  -3  -6  -7 1859.53   26.30
  -3  -6  -7 1805.62   32.55
  -3  -6  -8  766.84   20.73
  -3  -6  -8  672.03   18.52
  -3  -6  -8  735.66   18.10
  -3  -6  -9   90.82   16.93
  -3  -6  -9  108.55   10.81
  -3  -6  -9  113.58    9.95
  -3  -6 -10  214.02   20.20
  -3  -6 -10  182.62    8.88
  -3  -6 -11  -21.12   19.73
  -3  -6 -12   69.33   36.39
  -3  -6 -13   18.53   23.87
  -3  -7   6  131.10   40.17
  -3  -7   6  112.81   37.51
  -3  -7   5  155.95   39.06
  -3  -7   5  157.48   37.52
  -3  -7   4  810.07   32.99
  -3  -7   4  781.12   32.72
  -3  -7   3   32.36   35.93
  -3  -7   3   95.96   33.73
  -3  -7   2  226.37   22.81
  -3  -7   2  253.12   22.55
  -3  -7   1  274.10   22.68
  -3  -7   1  268.79   35.33
  -3  -7   0 1053.30   46.45
  -3  -7   0 1079.02   31.28
  -3  -7  -1  918.84   41.85
  -3  -7  -1  803.73   26.22
  -3  -7  -2  161.08    6.64
  -3  -7  -2  163.08   28.74
  -3  -7  -2  183.43   18.09
  -3  -7  -3 4450.49   61.49
  -3  -7  -3 4591.62   84.45
  -3  -7  -3 4452.24   83.36
  -3  -7  -4   17.38   10.77
  -3  -7  -4   14.36   22.54
  -3  -7  -4   37.87   22.42
  -3  -7  -5  158.45   14.79
  -3  -7  -5  183.64   14.66
  -3  -7  -5  159.87   14.20
  -3  -7  -6  467.04   20.63
  -3  -7  -6  477.89   15.69
  -3  -7  -6  477.75   16.26
  -3  -7  -7 1592.54   28.56
  -3  -7  -7 1588.07   35.87
  -3  -7  -8   71.83   21.74
  -3  -7  -8   68.85   15.90
  -3  -7  -8   76.87   10.18
  -3  -7  -9  790.34   23.88
  -3  -7  -9  799.90   14.97
  -3  -7  -9  767.83   20.39
  -3  -7 -10  189.43   30.79
  -3  -7 -10  157.77    8.28
  -3  -7 -10  143.85   11.59
  -3  -7 -11   65.53   20.70
  -3  -7 -12   52.08   35.79
  -3  -7 -13   16.95   39.23
  -3  -8   5   -7.23   42.41
  -3  -8   5   57.39   40.98
  -3  -8   4   17.21   26.26
  -3  -8   4   52.89   42.43
  -3  -8   3  127.67   42.64
  -3  -8   3   92.23   25.05
  -3  -8   2  221.42   25.76
  -3  -8   2  266.87   42.56
  -3  -8   1   -4.23   22.46
  -3  -8   1   33.19   37.38
  -3  -8   0  842.43   51.09
  -3  -8   0  833.21   33.18
  -3  -8  -1  511.67   41.45
  -3  -8  -1  473.99   26.51
  -3  -8  -2  115.46   33.78
  -3  -8  -2   99.51   20.65
  -3  -8  -3  114.60   31.22
  -3  -8  -3  105.24   19.57
  -3  -8  -4 3022.25   47.18
  -3  -8  -4 3226.66   62.54
  -3  -8  -4 3240.73   83.99
  -3  -8  -5 1310.78   27.86
  -3  -8  -5 1308.06   43.55
  -3  -8  -5 1365.78   31.58
  -3  -8  -6   22.49   16.32
  -3  -8  -6   32.14   14.61
  -3  -8  -6   29.81   23.32
  -3  -8  -7  137.61   20.09
  -3  -8  -7  132.92   13.64
  -3  -8  -7  153.93   22.93
  -3  -8  -8  157.11   14.68
  -3  -8  -8  193.00   20.36
  -3  -8  -8  159.39   12.81
  -3  -8  -9  296.59   28.68
  -3  -8  -9  295.03   19.95
  -3  -8  -9  290.53   12.96
  -3  -8 -10   47.64   18.25
  -3  -8 -10  107.10   16.07
  -3  -8 -10   96.17   15.81
  -3  -8 -11  232.65   36.77
  -3  -8 -12  229.75   25.67
  -3  -9   3  139.27   31.09
  -3  -9   3  125.08   49.85
  -3  -9   2  156.67   28.21
  -3  -9   2  130.05   47.87
  -3  -9   1   13.53   25.16
  -3  -9   1   29.87   27.00
  -3  -9   0  116.03   41.21
  -3  -9   0   77.28   25.91
  -3  -9  -1  235.06   42.77
  -3  -9  -1  157.32   43.03
  -3  -9  -2  423.42   45.13
  -3  -9  -2  456.20   43.89
  -3  -9  -3  229.93   38.10
  -3  -9  -3  203.47   23.29
  -3  -9  -4  477.39   15.58
  -3  -9  -4  499.59   39.93
  -3  -9  -4  553.92   25.75
  -3  -9  -5   95.05   14.90
  -3  -9  -5   71.02   19.32
  -3  -9  -5  131.77   31.95
  -3  -9  -6  221.67   19.73
  -3  -9  -6  282.96   31.32
  -3  -9  -6  198.09   19.74
  -3  -9  -7  196.61   21.62
  -3  -9  -7  195.11   27.98
  -3  -9  -7  155.96   17.34
  -3  -9  -8  221.88   24.55
  -3  -9  -8  204.81   26.57
  -3  -9  -8  207.44   25.18
  -3  -9  -9   45.08   15.45
  -3  -9  -9   37.89   13.06
  -3  -9  -9   25.98   13.56
  -3  -9 -10 1317.19   47.90
  -3  -9 -10 1167.87   25.31
  -3  -9 -11  293.63   23.47
  -3 -10   0  663.10   38.15
  -3 -10   0  817.53   64.09
  -3 -10  -1  342.90   32.00
  -3 -10  -1  385.78   33.76
  -3 -10  -2  100.13   41.86
  -3 -10  -2   45.03   27.71
  -3 -10  -3   97.62   39.57
  -3 -10  -3  129.11   42.18
  -3 -10  -4  383.40   28.37
  -3 -10  -4  463.78   44.11
  -3 -10  -5   -2.79   21.78
  -3 -10  -5   38.75   21.04
  -3 -10  -6  194.34   19.86
  -3 -10  -6  248.64   38.46
  -3 -10  -6  267.01   35.33
  -3 -10  -7   61.10   21.00
  -3 -10  -7   69.06   31.76
  -3 -10  -7   63.47   30.61
  -3 -10  -8    4.36   14.12
  -3 -10  -8   13.91   17.08
  -3 -10  -8    3.23   27.78
  -3 -10  -9  559.48   34.08
  -3 -10  -9  541.17   35.22
  -3 -10  -9  561.13   22.70
   4  -8  -7  128.09   39.69
  -4   8   7  124.61   24.42
   4  -8  -6   14.74   24.50
  -4   8   6   76.99   24.35
   4  -8  -5  123.43   25.74
  -4   8   5  139.38   25.79
   4  -8  -4  118.92   27.40
  -4   8   4   51.63   26.26
   4  -8  -3  122.14   44.96
  -4   8   3   23.46   43.24
   4  -8  -2   30.87   27.16
  -4   8   2   -4.44   25.03
   4  -8  -1   82.98   48.27
  -4   8   1   54.74   27.10
   4  -8   0  138.03   32.82
  -4   8   0  254.79   30.54
   4  -7  -9  686.95   42.44
  -4   7   9  646.12   27.94
   4  -7  -8   14.61   31.69
  -4   7   8  -15.25   32.12
   4  -7  -7  116.48   21.39
  -4   7   7  144.17   21.34
   4  -7  -6  101.68   22.44
  -4   7   6  132.19   22.46
   4  -7  -5  846.95   50.40
  -4   7   5  825.90   32.66
   4  -7  -4   16.32   35.75
  -4   7   4  -10.84   22.19
   4  -7  -3  229.00   26.70
  -4   7   3  195.28   40.35
   4  -7  -2  124.78   25.16
  -4   7   2   46.90   24.26
   4  -7  -1    8.87   40.34
  -4   7   1   -3.29   38.08
   4  -7   0  137.40   28.40
  -4   7   0  136.97   26.15
   4  -7   1  221.11   29.48
  -4   7  -1  170.52   27.24
   4  -7   2  183.52   30.56
  -4   7  -2  224.68   44.06
   4  -7   3   30.85   22.13
   4  -7   3    6.11   29.34
  -4   7  -3   60.95   42.26
   4  -6 -10   38.54   27.18
  -4   6  10   33.22   28.78
   4  -6  -9  297.57   32.17
  -4   6   9  296.85   32.28
   4  -6  -8   72.96   18.10
  -4   6   8   47.46   17.08
   4  -6  -7   73.51   29.36
  -4   6   7   38.26   17.38
   4  -6  -6  793.17   27.26
  -4   6   6  763.95   26.61
   4  -6  -5  450.65   37.04
  -4   6   5  416.61   23.05
   4  -6  -4  888.86   30.51
  -4   6   4  900.84   30.10
   4  -6  -3  419.89   25.06
  -4   6   3  307.14   37.76
   4  -6  -2  270.45   38.08
  -4   6   2  202.08   23.04
   4  -6  -1  136.60   23.44
  -4   6   1  107.92   36.02
   4  -6   0   96.59   38.57
  -4   6   0   84.86   23.10
   4  -6   1   -5.45   23.20
  -4   6  -1   -3.21   21.72
   4  -6   2  758.63   34.89
  -4   6  -2  748.32   33.21
   4  -6   3  135.38   21.39
   4  -6   3  189.81   43.09
  -4   6  -3   79.99   38.57
   4  -6   4 1166.51   36.96
   4  -6   4 1110.22   43.68
  -4   6  -4 1230.71   60.90
   4  -6   5  633.70   30.57
   4  -6   5  632.64   34.11
  -4   6  -5  621.69   50.13
  -4   5  11   32.67   14.23
   4  -5 -10  366.77   27.87
  -4   5  10  357.34   17.96
   4  -5  -9   38.27   25.08
  -4   5   9  107.16   14.87
   4  -5  -8  354.53   18.44
  -4   5   8  297.75   28.04
   4  -5  -7  488.11   21.04
  -4   5   7  421.46   30.54
   4  -5  -6 1857.08   39.35
  -4   5   6 1757.46   52.62
   4  -5  -5  154.18   28.60
  -4   5   5  173.56   28.33
   4  -5  -4 3177.54   62.97
  -4   5   4 3190.99   81.52
   4  -5  -3  496.10   23.48
  -4   5   3  579.01   22.72
   4  -5  -2   17.70   18.48
  -4   5   2  -36.51   27.95
   4  -5  -1  122.26   33.05
  -4   5   1  137.26   18.69
   4  -5   0  169.24   21.58
  -4   5   0  179.81   20.07
   4  -5   1  221.09   37.04
  -4   5  -1  257.16   22.10
   4  -5   2   -2.78   20.75
  -4   5  -2   25.26   19.60
   4  -5   3  791.02   31.14
  -4   5  -3  742.80   29.24
   4  -5   4  304.43   35.23
   4  -5   4  287.26   25.17
  -4   5  -4  258.39   24.34
   4  -5   5   38.01   31.65
   4  -5   5   35.47   22.51
  -4   5  -5   40.27   21.22
   4  -5   6  169.52   23.39
   4  -5   6  190.68   24.20
  -4   5  -6  236.71   39.28
   4  -5   7  654.76   31.60
   4  -5   7  700.24   49.05
  -4   5  -7  654.17   50.51
   4  -4 -12   17.88   44.16
   4  -4 -11  664.27   34.03
  -4   4  11  513.45   18.18
   4  -4 -10  186.89   22.56
  -4   4  10  222.53   13.98
   4  -4  -9  168.22   22.16
  -4   4   9  140.80   13.09
   4  -4  -8 2357.32   56.07
  -4   4   8 2296.90   52.68
   4  -4  -7  -14.38   21.80
  -4   4   7  -14.07   21.51
   4  -4  -6 1845.43   48.72
  -4   4   6 1710.80   47.73
   4  -4  -5   87.40   24.00
  -4   4   5   52.28   23.42
   4  -4  -4 1346.60   30.15
  -4   4   4 1405.06   29.89
   4  -4  -3  786.81   35.97
  -4   4   3  758.95   35.01
   4  -4  -2 2523.36   64.47
  -4   4   2 2474.92   46.99
   4  -4  -1   50.55   27.53
  -4   4   1   -9.61   16.45
   4  -4   0 1808.28   57.52
  -4   4   0 1854.44   53.78
   4  -4   1  104.19   18.21
  -4   4  -1   47.44   27.81
   4  -4   2  -15.75   29.06
  -4   4  -2   22.57   27.38
   4  -4   3  154.88   30.87
  -4   4  -3   74.00   18.91
   4  -4   4 3746.50   75.53
   4  -4   4 3659.32  100.71
  -4   4  -4 3782.41   75.62
   4  -4   5 2140.89   47.84
   4  -4   5 2132.78   67.90
  -4   4  -5 2220.13   68.46
   4  -4   6  636.79   27.30
   4  -4   6  703.37   41.55
  -4   4  -6  648.35   41.39
   4  -4   7   85.28   20.89
   4  -4   7   39.51   20.13
  -4   4  -7   55.77   20.48
   4  -4   8   48.81   37.10
   4  -4   8   21.80   32.40
  -4   4  -8   27.13   33.83
   4  -3 -12  203.29   45.39
   4  -3 -11  210.81   26.13
  -4   3  11  202.14   20.14
   4  -3 -10  253.25   14.10
  -4   3  10  236.73   21.15
   4  -3  -9  307.17   14.01
  -4   3   9  296.59   22.39
   4  -3  -8  601.76   17.10
  -4   3   8  608.00   26.26
   4  -3  -7 1418.86   37.88
  -4   3   7 1478.38   27.59
   4  -3  -6 3197.51   54.80
  -4   3   6 3200.87   54.32
   4  -3  -5 7290.93  143.43
  -4   3   5 7292.54  143.77
   4  -3  -4  790.26   20.42
  -4   3   4  831.83   31.49
   4  -3  -3 2362.63   56.25
  -4   3   3 2409.09   42.20
   4  -3  -2  811.74   21.76
  -4   3   2  788.24   21.63
   4  -3  -1  260.94   16.89
  -4   3   1  277.36   16.64
   4  -3   0  324.21   17.18
  -4   3   0  299.74   17.41
   4  -3   1  -10.57   15.22
  -4   3  -1   14.24   14.28
   4  -3   2  743.17   35.46
  -4   3  -2  735.48   22.60
   4  -3   3  146.35   28.48
  -4   3  -3  195.78   26.25
   4  -3   4   -2.42   24.83
   4  -3   4   -7.26   15.61
  -4   3  -4   22.67   15.05
   4  -3   5 1534.42   34.96
   4  -3   5 1526.99   34.17
  -4   3  -5 1590.96   49.95
   4  -3   6   85.38   18.00
   4  -3   6   92.51   27.69
  -4   3  -6   88.97   17.05
   4  -3   7   52.81   18.93
   4  -3   7   12.09   27.57
  -4   3  -7    4.60   27.52
   4  -3   8  139.58   35.67
   4  -3   8   87.41   18.58
  -4   3  -8   97.73   30.19
   4  -3   9   41.34   22.18
   4  -3   9   67.46   28.15
  -4   3  -9   -6.53   18.51
   4  -3  10  892.31   37.95
   4  -3  10  895.65   43.96
  -4   3 -10  948.62   30.44
   4  -2 -12   51.31   23.39
   4  -2 -11   93.59   35.92
   4  -2 -11   74.92   17.75
  -4   2  11   75.95   20.22
   4  -2 -10  606.66   27.14
   4  -2 -10  549.95   16.29
  -4   2  10  602.48   25.64
   4  -2  -9   51.68   11.06
  -4   2   9   52.95   19.12
   4  -2  -8   -0.16   10.45
  -4   2   8   20.61   18.47
   4  -2  -7 2770.38   55.48
  -4   2   7 2766.42   44.59
   4  -2  -6  985.10   29.30
  -4   2   6  955.01   20.97
   4  -2  -5  325.84   22.68
  -4   2   5  334.90   22.83
   4  -2  -4 1106.27   32.11
  -4   2   4 1133.60   22.80
   4  -2  -3 3978.14   82.14
  -4   2   3 4094.70   81.52
   4  -2  -2  464.43   16.54
  -4   2   2  501.14   17.07
   4  -2  -1 2512.18   54.70
  -4   2   1 2535.95   41.84
   4  -2   0 4997.10   85.96
  -4   2   0 5207.23  107.49
   4  -2   1 1593.92   29.56
  -4   2  -1 1558.19   29.21
   4  -2   2  254.78   24.09
  -4   2  -2  226.23   15.50
   4  -2   3 1537.24   29.63
  -4   2  -3 1502.03   29.04
   4  -2   4   71.33   14.63
   4  -2   4   66.23   22.32
  -4   2  -4   72.80   22.33
   4  -2   5   82.85   15.38
   4  -2   5   66.90   23.38
  -4   2  -5   71.90   13.68
   4  -2   6 2406.01   47.01
   4  -2   6 2136.73   56.14
  -4   2  -6 2368.36   43.53
   4  -2   7  292.45   20.86
   4  -2   7  356.96   27.10
  -4   2  -7  335.54   17.47
   4  -2   8  -16.15   31.75
   4  -2   8    6.76   14.36
  -4   2  -8  -12.68   14.53
   4  -2   9  659.51   44.37
   4  -2   9  653.81   22.45
  -4   2  -9  609.69   21.00
   4  -2  10   13.66   22.67
   4  -2  10   35.94   25.85
  -4   2 -10    5.26   15.84
   4  -2  11  180.41   44.12
   4  -2  11  174.07   28.80
   4  -1 -12  328.73   40.09
   4  -1 -11  172.28   21.73
  -4   1  11  183.93   21.82
   4  -1 -10    1.66   28.79
   4  -1 -10   18.29   17.82
  -4   1  10   13.49   19.86
   4  -1  -9 1253.17   46.07
   4  -1  -9 1286.27   33.96
  -4   1   9 1239.76   34.06
   4  -1  -8  412.76   13.95
  -4   1   8  435.18   14.93
   4  -1  -7 3815.69   72.38
  -4   1   7 3868.87   76.23
   4  -1  -6   26.22   10.32
  -4   1   6   38.68   18.32
   4  -1  -5 1682.63   38.57
  -4   1   5 1760.26   28.74
   4  -1  -4 1574.92   25.93
  -4   1   4 1636.00   37.29
   4  -1  -3 1603.70   27.55
  -4   1   3 1648.26   27.85
   4  -1  -2 6171.98  124.62
  -4   1   2 6068.71  104.00
   4  -1  -111436.85  281.45
  -4   1   111786.95  261.84
   4  -1   0  687.52   18.19
  -4   1   0  752.40   28.23
   4  -1   1   34.11   12.10
  -4   1  -1   14.40   12.16
   4  -1   2  396.16   15.18
  -4   1  -2  369.55   23.79
   4  -1   3  781.61   19.12
  -4   1  -3  813.68   28.36
   4  -1   4  616.35   28.07
   4  -1   4  618.04   16.83
  -4   1  -4  588.26   26.00
   4  -1   5  242.78   26.09
   4  -1   5  288.47   21.39
  -4   1  -5  257.50   21.62
   4  -1   6  144.31   25.58
   4  -1   6  100.19   20.13
  -4   1  -6  121.89   19.36
   4  -1   7   84.25   27.88
   4  -1   7   94.15   20.31
  -4   1  -7  137.89   20.72
   4  -1   8  595.94   25.35
   4  -1   8  568.14   17.84
  -4   1  -8  621.43   18.09
   4  -1   9   24.43   19.28
   4  -1   9   48.36   20.68
  -4   1  -9   34.03   20.43
   4  -1  10  436.36   27.03
   4  -1  10  417.11   27.19
  -4   1 -10  419.75   17.32
   4  -1  11  655.59   49.95
   4  -1  11  589.07   30.98
   4   0 -12   16.01   31.91
   4   0 -11  499.84   24.84
  -4   0  11  478.68   26.55
   4   0 -10   81.86   28.71
  -4   0  10   97.71   13.05
   4   0  -9  188.25   17.20
  -4   0   9  219.04   21.88
   4   0  -8 2471.45   43.99
   4   0  -8 2375.72   39.15
  -4   0   8 2477.87   52.07
   4   0  -7  170.89   19.00
  -4   0   7  124.51   19.74
   4   0  -6 4783.55   78.64
  -4   0   6 4676.51   76.81
   4   0  -5 1618.09   26.47
  -4   0   5 1602.62   37.19
   4   0  -4   62.34   17.66
  -4   0   4   72.80   18.72
   4   0  -3  525.66   23.14
  -4   0   3  505.94   15.60
   4   0  -2 3923.67   74.76
  -4   0   2 3885.72   59.51
   4   0  -1 6527.83  113.83
  -4   0   1 6628.34  114.01
   4   0   0  135.10   12.63
  -4   0   0  135.64   20.37
   4   0   1   60.19   12.05
  -4   0  -1   88.34   11.70
   4   0   2 4046.93   62.49
  -4   0  -2 4090.87   62.56
   4   0   3 1027.02   20.69
   4   0   3 1114.68   20.67
  -4   0  -3 1034.59   19.95
   4   0   4  682.35   17.34
   4   0   4  691.33   16.01
  -4   0  -4  748.45   24.29
   4   0   5   12.59   16.19
  -4   0  -5    6.24   10.14
   4   0   6  724.24   32.16
   4   0   6  682.46   23.68
  -4   0  -6  737.07   23.66
   4   0   7   92.64   16.71
  -4   0  -7   76.31   16.70
   4   0   8 1411.74   34.36
   4   0   8 1407.44   23.89
  -4   0  -8 1488.04   24.68
   4   0   9   32.22   30.97
   4   0   9   60.12   17.22
  -4   0  -9   65.60   10.61
   4   0  10   54.70   21.96
   4   0  10   65.36   16.37
  -4   0 -10   47.41    9.76
   4   0  11    7.78   23.19
   4   0  11   56.04   19.17
   4   0  12  104.50   42.33
   4   1 -11   24.25   26.24
  -4  -1  11   21.97   21.84
  -4  -1  11   36.09   11.87
   4   1 -10    5.10   15.06
  -4  -1  10   16.12   21.31
   4   1  -9   -0.98   21.74
  -4  -1   9   16.30   20.36
   4   1  -8  281.77   23.62
  -4  -1   8  281.73   14.84
   4   1  -7  519.01   23.82
   4   1  -7  499.20   16.25
  -4  -1   7  477.80   25.20
   4   1  -6 5951.77  105.00
  -4  -1   6 5844.71  104.01
   4   1  -5  490.19   15.23
  -4  -1   5  484.96   15.67
   4   1  -4  881.11   19.18
  -4  -1   4  911.10   19.43
   4   1  -3  269.53   12.93
  -4  -1   3  253.65   21.39
   4   1  -2 5436.80  108.03
  -4  -1   2 5871.72   95.87
   4   1  -1 5179.97   84.30
  -4  -1   1 5267.86   84.21
   4   1   0 1470.28   25.10
  -4  -1   0 1478.57   36.13
   4   1   1  661.34   16.33
  -4  -1  -1  589.11   16.34
   4   1   2  624.81   23.28
  -4  -1  -2  629.27   15.79
   4   1   3 3038.97   54.57
   4   1   3 3039.32   55.56
  -4  -1  -3 3008.88   42.93
   4   1   4 6986.19  122.38
   4   1   4 6838.63  133.00
  -4  -1  -4 7089.25  135.33
   4   1   5 1279.06   24.52
   4   1   5 1294.39   20.47
  -4  -1  -5 1364.44   28.32
   4   1   6  479.50   17.74
   4   1   6  476.18   12.21
  -4  -1  -6  509.57   18.50
   4   1   7 1312.28   41.43
   4   1   7 1260.18   19.33
  -4  -1  -7 1252.75   19.25
   4   1   8   16.97   16.12
   4   1   8   50.36   13.59
  -4  -1  -8   39.71   13.18
   4   1   9  979.95   44.16
   4   1   9  956.24   16.25
  -4  -1  -9  947.87   22.58
   4   1  10   26.25   20.01
   4   1  10   31.53   13.47
  -4  -1 -10   13.58   12.11
   4   1  11  -16.71   22.36
   4   1  11   43.55   11.99
   4   1  12 1436.74   45.94
   4   1  13  973.32   41.89
   4   2 -11  829.99   24.36
  -4  -2  11  784.60   35.36
  -4  -2  11  703.71   30.40
   4   2 -10  452.27   18.37
  -4  -2  10  416.61   28.77
  -4  -2  10  393.85   17.01
   4   2  -9   46.80   20.49
  -4  -2   9   93.19   22.74
   4   2  -8   47.29   11.07
  -4  -2   8   68.29   13.41
   4   2  -7  148.72   10.67
  -4  -2   7  188.00   22.88
   4   2  -6  249.66   10.43
  -4  -2   6  296.58   14.71
   4   2  -5   95.89   12.82
   4   2  -5   91.69   12.79
  -4  -2   5   65.57   20.73
   4   2  -4  174.62   21.19
  -4  -2   4  174.43   21.42
   4   2  -3 4017.17   62.74
  -4  -2   3 4034.77   79.03
   4   2  -2 1346.40   24.32
  -4  -2   2 1363.76   24.84
   4   2  -1  187.85   13.05
  -4  -2   1  154.58   21.12
   4   2   0  -15.23   17.85
  -4  -2   0   21.03   18.40
   4   2   1 1598.95   25.80
  -4  -2  -1 1627.37   26.30
   4   2   2 1786.24   23.45
   4   2   2 1900.40   28.27
  -4  -2  -2 1879.95   38.43
   4   2   3  427.00   11.96
   4   2   3  442.53   12.80
  -4  -2  -3  439.12   19.67
   4   2   427290.12 1039.29
   4   2   428623.45 1115.15
  -4  -2  -429640.01 1102.59
   4   2   5 6062.14  101.89
   4   2   5 5958.03   94.08
  -4  -2  -5 6014.28   93.74
   4   2   6 1447.72   27.16
   4   2   6 1498.61   26.98
  -4  -2  -6 1454.66   27.45
  -4  -2  -6 1557.61   27.69
   4   2   7   92.66   14.51
   4   2   7   79.01   11.99
  -4  -2  -7  101.98   23.59
  -4  -2  -7   79.20   12.12
   4   2   8  470.92   32.08
   4   2   8  478.70   14.61
  -4  -2  -8  439.36   20.40
  -4  -2  -8  468.49   14.60
   4   2   9  161.31   19.24
   4   2   9  158.29   11.23
  -4  -2  -9  185.64   18.49
  -4  -2  -9  164.11   10.78
   4   2  10   18.06   19.83
   4   2  10   11.59    8.27
  -4  -2 -10  -16.14   20.07
  -4  -2 -10    7.27    7.62
   4   2  11 3302.16   77.98
  -4  -2 -11 3536.33   77.84
   4   2  12  353.65   29.26
  -4  -2 -12  475.96   45.41
   4   2  13  -45.62   26.03
  -4  -2 -13   87.65   26.43
   4   3 -10  374.56   24.93
  -4  -3  10  375.94   31.29
  -4  -3  10  341.52   27.03
   4   3  -9   84.47   12.18
  -4  -3   9   51.31   26.17
  -4  -3   9   71.32   24.07
   4   3  -8  414.65   19.97
  -4  -3   8  412.75   29.93
  -4  -3   8  406.43   17.35
   4   3  -7  361.10   17.07
  -4  -3   7  317.64   18.24
   4   3  -6 2906.11   38.92
  -4  -3   6 2992.43   52.71
   4   3  -5 9823.52  185.77
  -4  -3   5 9795.75  218.27
   4   3  -4  270.42   10.54
  -4  -3   4  264.30   24.37
   4   3  -3  125.92    7.65
   4   3  -3  160.44   22.66
  -4  -3   3  115.55   21.88
   4   3  -2    8.55   19.93
  -4  -3   2   15.95   20.46
   4   3  -1   24.42   12.39
  -4  -3   1  -21.28   12.36
   4   3   0   -0.12   11.26
  -4  -3   0  -27.48   19.56
   4   3   1  776.02   13.25
   4   3   1  811.06   18.41
  -4  -3  -1  828.44   27.64
   4   3   2  433.17   13.14
   4   3   2  444.76   13.56
  -4  -3  -2  438.87   13.87
   4   3   3 2440.33   38.52
   4   3   3 2453.24   45.32
  -4  -3  -3 2472.42   45.00
   4   3   4  610.82   20.81
   4   3   4  604.07   13.60
  -4  -3  -4  606.69   20.04
   4   3   5  137.96   10.99
   4   3   5  135.77    8.77
  -4  -3  -5  110.06   10.73
  -4  -3  -5  131.19   14.21
   4   3   6 4170.84   65.70
   4   3   6 3928.31   53.39
  -4  -3  -6 3850.83   76.22
  -4  -3  -6 3974.22   63.18
   4   3   7  379.51   17.34
   4   3   7  413.63   13.54
  -4  -3  -7  377.94   16.39
  -4  -3  -7  399.02   14.03
   4   3   8 3578.86   84.43
   4   3   8 3545.65   49.97
  -4  -3  -8 3709.35   82.38
  -4  -3  -8 3744.23   52.97
   4   3   9  142.89   28.83
   4   3   9  101.19    7.33
  -4  -3  -9   98.94   28.22
  -4  -3  -9  113.53    8.53
   4   3  10 3500.96   70.83
  -4  -3 -10 3205.48   32.15
   4   3  11  420.68   26.29
  -4  -3 -11  389.70   26.33
   4   3  12   32.99   23.90
  -4  -3 -12  -29.20   23.13
   4   3  13 1658.29   54.03
  -4  -3 -13 1833.20   77.19
   4   4 -10  314.76   15.44
  -4  -4  10  314.30   35.34
   4   4  -9   87.80   18.08
  -4  -4   9  119.37   30.25
  -4  -4   9   94.62   27.45
   4   4  -8    0.51   15.28
  -4  -4   8  -53.44   27.42
  -4  -4   8  -17.80   15.93
   4   4  -7    0.07   12.97
  -4  -4   7   -9.33   16.13
  -4  -4   7   23.02   15.27
   4   4  -6   61.59    6.73
  -4  -4   6  108.55   26.72
   4   4  -5  878.52   15.17
  -4  -4   5  973.17   25.51
   4   4  -4  438.32    8.97
  -4  -4   4  518.16   30.45
   4   4  -3  144.84    4.63
  -4  -4   3  166.22   15.99
  -4  -4   2  426.30   17.78
  -4  -4   1 1433.94   28.10
   4   4   0 1390.72   11.00
   4   4   0 1428.74   27.23
  -4  -4   0 1399.24   37.68
   4   4   1  631.94   26.93
  -4  -4  -1  548.68   16.22
   4   4   2  196.42    8.92
   4   4   2  193.97   13.03
  -4  -4  -2  208.34   12.26
   4   4   3 1147.57   20.54
   4   4   3 1275.47   30.79
  -4  -4  -3 1147.28   20.97
   4   4   4 3430.76   46.64
   4   4   4 3510.23   60.87
  -4  -4  -4 3420.99   45.70
  -4  -4  -4 3582.63   51.82
   4   4   5   40.89   15.40
   4   4   5    3.66   13.46
  -4  -4  -5   38.34   14.64
  -4  -4  -5   15.46    8.65
   4   4   6 1787.46   29.89
   4   4   6 1795.49   30.45
  -4  -4  -6 1688.61   37.27
  -4  -4  -6 1812.27   31.48
   4   4   7  847.99   21.42
   4   4   7  891.15   18.17
  -4  -4  -7  862.57   19.17
   4   4   8   99.10   25.01
  -4  -4  -8   84.66   14.81
  -4  -4  -8   83.47   10.53
   4   4   9  592.67   23.13
  -4  -4  -9  630.54   22.66
  -4  -4  -9  598.17   11.94
   4   4  10  238.58   21.65
  -4  -4 -10  290.79   21.01
   4   4  11  109.96   36.41
  -4  -4 -11  107.10   35.14
  -4  -4 -12  439.48   28.31
  -4  -4 -13  680.53   34.47
  -4  -5   9  806.99   45.87
  -4  -5   9  784.66   42.07
  -4  -5   8  171.27   34.64
  -4  -5   8  174.69   19.94
  -4  -5   7  202.00   33.42
  -4  -5   7  176.56   18.79
  -4  -5   6  153.51   20.12
  -4  -5   6  141.85   18.98
  -4  -5   5  421.39   36.53
  -4  -5   5  486.09   33.85
  -4  -5   4 1272.12   32.87
  -4  -5   3  262.02   31.22
  -4  -5   2  902.75   37.27
  -4  -5   1   28.32   24.99
  -4  -5   0  215.03   25.91
  -4  -5  -1  412.30   17.69
  -4  -5  -2  269.63   24.53
  -4  -5  -3  214.64   13.09
   4   5   4 4387.10   60.30
  -4  -5  -4 4245.59   82.31
   4   5   5  904.22   23.44
  -4  -5  -5  848.29   15.37
  -4  -5  -5  917.41   17.61
   4   5   6  234.47   20.20
  -4  -5  -6  256.71   18.88
  -4  -5  -6  269.96   11.11
   4   5   7   43.53   12.94
  -4  -5  -7   56.39   12.29
  -4  -5  -7   62.99   13.41
   4   5   8  350.54   17.77
  -4  -5  -8  315.74   16.68
  -4  -5  -8  352.25   14.42
  -4  -5  -9  229.60   17.63
  -4  -5  -9  211.95   11.01
  -4  -5  -9  194.82    9.50
  -4  -5 -10   79.69   18.51
  -4  -5 -10   55.33    4.69
  -4  -5 -11  342.21   24.17
  -4  -5 -12  176.29   40.52
  -4  -5 -13  176.11   27.30
  -4  -6   7  198.86   24.22
  -4  -6   7  203.03   22.60
  -4  -6   6   24.22   21.45
  -4  -6   6   11.41   19.45
  -4  -6   5   77.36   34.90
  -4  -6   5   36.06   18.82
  -4  -6   4  634.71   27.27
  -4  -6   4  649.87   26.30
  -4  -6   3    0.37   30.49
  -4  -6   3   -4.86   18.20
  -4  -6   2   58.82   31.30
  -4  -6   2   93.77   29.87
  -4  -6   1  345.73   20.90
  -4  -6   1  278.08   20.06
  -4  -6   0 2787.29   54.65
  -4  -6  -1  228.82   28.82
  -4  -6  -2  867.48   34.76
  -4  -6  -3 2886.83   34.35
  -4  -6  -3 2761.81   48.33
  -4  -6  -4 3590.58   51.89
  -4  -6  -4 3519.83   61.05
  -4  -6  -5  328.47   10.62
  -4  -6  -5  350.22   14.48
  -4  -6  -6 3032.22   44.82
  -4  -6  -6 3022.82   58.44
  -4  -6  -6 3051.70   45.08
  -4  -6  -7  481.66   15.60
  -4  -6  -7  555.78   20.65
  -4  -6  -7  497.78   13.12
  -4  -6  -8 1296.05   38.87
  -4  -6  -8 1348.33   28.24
  -4  -6  -9   39.27   15.14
  -4  -6  -9   20.17   12.44
  -4  -6  -9   23.70    6.52
  -4  -6 -10  178.38   19.49
  -4  -6 -10  188.34   10.87
  -4  -6 -10  174.82    9.52
  -4  -6 -11   24.95   31.86
  -4  -6 -12   35.29   22.18
  -4  -6 -13  104.94   25.45
  -4  -7   6   77.29   40.98
  -4  -7   6   44.59   38.52
  -4  -7   5   99.17   24.50
  -4  -7   5  112.17   22.74
  -4  -7   4   69.69   37.55
  -4  -7   4   32.86   22.54
  -4  -7   3  108.98   23.64
  -4  -7   3  102.53   34.98
  -4  -7   2  713.14   48.04
  -4  -7   2  705.16   28.16
  -4  -7   1 5176.88  141.08
  -4  -7   1 5118.45  112.39
  -4  -7   0  643.08   40.91
  -4  -7   0  640.55   25.94
  -4  -7  -1  324.64   34.44
  -4  -7  -1  379.87   35.18
  -4  -7  -2  658.90   37.12
  -4  -7  -2  650.78   36.74
  -4  -7  -3  991.19   12.34
  -4  -7  -3 1033.89   27.37
  -4  -7  -3 1015.10   40.07
  -4  -7  -4 1136.34   18.93
  -4  -7  -4 1135.28   39.86
  -4  -7  -4 1183.23   40.36
  -4  -7  -5 4840.10   71.91
  -4  -7  -5 4897.78  108.08
  -4  -7  -5 5011.34   90.98
  -4  -7  -6  171.84   16.61
  -4  -7  -6  196.67   21.67
  -4  -7  -6  199.11   20.77
  -4  -7  -7   19.17   10.89
  -4  -7  -7   49.10   11.19
  -4  -7  -7   46.80   17.90
  -4  -7  -8   -0.05   12.74
  -4  -7  -8   -5.54    9.87
  -4  -7  -8   -9.39    9.37
  -4  -7  -9  170.18   16.57
  -4  -7  -9  168.98   16.87
  -4  -7  -9  176.80   10.00
  -4  -7 -10  100.85   18.48
  -4  -7 -10  106.73   14.17
  -4  -7 -10  117.19   13.07
  -4  -7 -11  376.81   37.32
  -4  -7 -12  900.86   33.93
  -4  -7 -13 2418.02   89.97
  -4  -8   5   83.13   27.25
  -4  -8   5   82.41   43.47
  -4  -8   4  -18.91   26.32
  -4  -8   4   20.10   25.78
  -4  -8   3   68.20   26.31
  -4  -8   3   51.26   24.96
  -4  -8   2  208.59   42.46
  -4  -8   2  161.40   41.55
  -4  -8   1  434.93   28.95
  -4  -8   1  497.10   28.91
  -4  -8   0   68.40   23.19
  -4  -8   0   66.32   22.69
  -4  -8  -1 1394.89   39.09
  -4  -8  -1 1478.27   40.08
  -4  -8  -2 1510.93   39.36
  -4  -8  -2 1527.49   58.56
  -4  -8  -3   24.32   18.39
  -4  -8  -3    8.37   29.92
  -4  -8  -4 3767.05   99.90
  -4  -8  -4 3803.37   76.10
  -4  -8  -5    3.85   11.98
  -4  -8  -5   -4.27   27.16
  -4  -8  -5   52.17   15.82
  -4  -8  -6  300.54   11.36
  -4  -8  -6  262.12   17.25
  -4  -8  -6  321.14   17.08
  -4  -8  -7 1238.16   31.96
  -4  -8  -7 1127.33   38.68
  -4  -8  -7 1234.98   38.23
  -4  -8  -8  426.53   25.60
  -4  -8  -8  401.45   15.78
  -4  -8  -8  431.81   16.07
  -4  -8  -9  396.20   28.34
  -4  -8  -9  350.23   14.61
  -4  -8  -9  356.62   22.36
  -4  -8 -10  100.28   28.00
  -4  -8 -10   76.02   17.50
  -4  -8 -10   93.95   10.15
  -4  -8 -11  171.74   21.44
  -4  -8 -12  292.62   40.01
  -4  -9   2  116.00   28.93
  -4  -9   2  166.76   48.41
  -4  -9   1  438.57   31.96
  -4  -9   1  395.24   34.28
  -4  -9   0  279.07   28.18
  -4  -9   0  275.58   29.89
  -4  -9  -1  338.25   44.37
  -4  -9  -1  345.46   47.05
  -4  -9  -2   49.07   22.96
  -4  -9  -2   12.03   38.58
  -4  -9  -3  120.92   22.47
  -4  -9  -3  166.16   37.67
  -4  -9  -4   82.89   20.72
  -4  -9  -4   87.00   21.54
  -4  -9  -5    8.18   11.62
  -4  -9  -5   14.36   31.48
  -4  -9  -5    5.65   19.30
  -4  -9  -6   11.14    9.11
  -4  -9  -6  -28.97   28.92
  -4  -9  -6  -17.88   28.09
  -4  -9  -7  171.13   19.25
  -4  -9  -7  163.31   27.53
  -4  -9  -7  175.51   27.70
  -4  -9  -8  818.10   31.32
  -4  -9  -8  835.05   34.97
  -4  -9  -8  880.53   36.22
  -4  -9  -9   17.35   23.55
  -4  -9  -9   22.20   13.58
  -4  -9  -9   22.29   13.19
  -4  -9 -10  116.28   27.74
  -4  -9 -10   79.81   21.43
  -4  -9 -10   76.94   13.05
  -4  -9 -11  123.76   20.19
  -4 -10   0  421.76   34.94
  -4 -10   0  432.88   57.09
  -4 -10  -1  372.17   31.64
  -4 -10  -1  273.24   52.58
  -4 -10  -2  628.13   35.14
  -4 -10  -2  704.65   57.26
  -4 -10  -3   61.63   25.61
  -4 -10  -3  123.78   41.17
  -4 -10  -4   17.30   23.07
  -4 -10  -4   26.57   38.02
  -4 -10  -5   38.14   36.21
  -4 -10  -5   41.78   22.03
  -4 -10  -6  198.51   23.57
  -4 -10  -6  207.93   36.86
  -4 -10  -7   50.62   31.19
  -4 -10  -7   41.44   19.81
  -4 -10  -8  165.64   22.52
  -4 -10  -8  201.40   31.51
  -4 -10  -8  159.73   18.91
  -4 -10  -9   26.05   24.41
  -4 -10  -9   43.52   16.60
  -4 -10  -9   32.44   25.67
   5  -7  -7   64.60   23.72
  -5   7   7    8.94   23.39
   5  -7  -6   58.68   38.61
  -5   7   6   -0.06   23.36
   5  -7  -5  114.27   40.52
  -5   7   5   47.87   24.84
   5  -7  -4  109.42   43.92
  -5   7   4  235.31   44.01
   5  -7  -3  155.46   28.39
  -5   7   3  201.16   44.21
   5  -7  -2  289.68   29.89
  -5   7   2  255.76   29.87
   5  -7  -1   37.29   45.21
  -5   7   1   42.40   42.98
   5  -7   0   36.40   48.28
  -5   7   0   44.43   28.08
   5  -7   1   78.23   30.69
  -5   7  -1   70.56   29.32
   5  -6  -9  477.87   40.90
  -5   6   9  417.01   36.58
   5  -6  -8  643.16   42.76
  -5   6   8  530.65   25.82
   5  -6  -7   21.24   20.44
  -5   6   7   -4.21   18.97
   5  -6  -6   98.83   34.29
  -5   6   6   63.76   20.25
   5  -6  -5   45.67   34.81
  -5   6   5   11.98   20.73
   5  -6  -4  336.86   42.00
  -5   6   4  341.58   25.03
   5  -6  -3   66.66   39.03
  -5   6   3  127.84   37.27
   5  -6  -2   71.35   37.79
  -5   6   2   11.06   22.53
   5  -6  -1   21.26   24.28
  -5   6   1   87.09   38.71
   5  -6   0  466.99   49.23
  -5   6   0  443.74   30.45
   5  -6   1   70.09   26.89
  -5   6  -1   39.59   24.93
   5  -6   2  328.18   31.82
  -5   6  -2  297.53   29.29
   5  -6   3  268.74   25.93
   5  -6   3  219.23   32.28
  -5   6  -3  240.71   47.12
   5  -6   4   37.35   38.32
   5  -6   4   33.50   28.82
  -5   6  -4   24.24   41.40
   5  -5 -10  304.10   33.44
  -5   5  10  316.58   30.37
   5  -5  -9   15.07   28.81
  -5   5   9   16.14   16.52
   5  -5  -8  853.45   42.45
  -5   5   8  744.31   39.73
   5  -5  -7   34.04   30.36
  -5   5   7   80.23   29.04
   5  -5  -6   55.37   19.62
  -5   5   6   69.86   29.93
   5  -5  -5   94.67   32.06
  -5   5   5  139.61   31.30
   5  -5  -4  102.62   33.18
  -5   5   4   90.80   19.98
   5  -5  -3  -38.78   19.71
  -5   5   3   24.38   19.23
   5  -5  -2 1469.60   59.11
  -5   5   2 1409.94   39.44
   5  -5  -1 2266.78   77.17
  -5   5   1 2250.92   73.98
   5  -5   0  200.39   24.38
  -5   5   0  175.50   22.87
   5  -5   1   54.34   36.98
  -5   5  -1   68.48   21.84
   5  -5   2   44.79   39.69
  -5   5  -2   89.05   23.34
   5  -5   3  325.12   28.05
  -5   5  -3  272.04   26.76
   5  -5   4 1649.86   46.20
   5  -5   4 1554.85   49.26
  -5   5  -4 1530.48   46.46
   5  -5   5 2036.79   56.94
   5  -5   5 2228.05   60.04
  -5   5  -5 2186.39   59.42
   5  -5   6   73.11   40.26
   5  -5   6  104.28   41.45
  -5   5  -6   65.36   24.42
  -5   4  11  719.04   38.99
   5  -4 -10  119.39   26.33
  -5   4  10   77.96   16.46
   5  -4  -9  124.58   17.05
  -5   4   9  105.41   26.94
   5  -4  -8  269.35   29.96
  -5   4   8  336.68   19.04
   5  -4  -7  120.23   28.13
  -5   4   7  127.42   28.05
   5  -4  -6  283.27   19.27
  -5   4   6  279.97   30.70
   5  -4  -5   -1.42   16.76
  -5   4   5   29.65   16.80
   5  -4  -4   52.55   17.21
  -5   4   4   23.08   17.21
   5  -4  -3   47.62   29.47
  -5   4   3   12.50   27.79
   5  -4  -2   23.34   29.08
  -5   4   2   17.71   17.11
   5  -4  -1  949.47   44.57
  -5   4   1  917.95   29.21
   5  -4   0   33.02   19.62
  -5   4   0   48.95   19.22
   5  -4   1 2936.48   82.92
  -5   4  -1 2780.51   82.14
   5  -4   2 2064.83   48.64
  -5   4  -2 2075.17   65.39
   5  -4   3  161.23   22.09
  -5   4  -3   77.65   33.87
   5  -4   4 4153.50  117.56
   5  -4   4 4067.09  116.83
  -5   4  -4 4051.01   89.05
   5  -4   5   -2.21   34.07
   5  -4   5   94.38   33.83
  -5   4  -5   57.81   21.74
   5  -4   6  809.48   32.35
   5  -4   6  708.95   30.97
  -5   4  -6  739.67   48.80
   5  -4   7 1288.34   42.64
   5  -4   7 1295.82   39.69
  -5   4  -7 1287.58   40.35
   5  -3 -11   28.62   25.20
   5  -3 -11    3.18   23.47
  -5   3  11   23.02   25.67
   5  -3 -10  -12.38   22.89
  -5   3  10    6.07   25.02
   5  -3  -9   60.18   23.63
  -5   3   9   80.93   25.25
   5  -3  -8   80.42   24.07
  -5   3   8   36.13   15.56
   5  -3  -7 1851.78   37.17
  -5   3   7 1843.43   51.73
   5  -3  -6  729.91   22.46
  -5   3   6  662.36   34.44
   5  -3  -5 2883.76   73.58
  -5   3   5 2960.87   55.42
   5  -3  -4   25.59   15.07
  -5   3   4  -10.44   15.65
   5  -3  -3  149.49   27.66
  -5   3   3  206.20   28.85
   5  -3  -2  569.72   21.75
  -5   3   2  578.98   35.42
   5  -3  -1  322.52   19.99
  -5   3   1  316.28   19.98
   5  -3   0 1222.30   46.50
  -5   3   0 1268.57   32.04
   5  -3   1 2175.26   62.70
  -5   3  -1 2099.40   43.87
   5  -3   2   89.78   18.40
  -5   3  -2   49.69   17.86
   5  -3   3  676.44   25.44
  -5   3  -3  634.57   37.71
   5  -3   4  101.27   19.06
   5  -3   4   93.07   30.16
  -5   3  -4   62.82   28.94
   5  -3   5   12.33   19.20
   5  -3   5   20.33   29.16
  -5   3  -5   46.23   17.27
   5  -3   6  148.82   22.17
   5  -3   6  144.80   31.69
  -5   3  -6  146.10   32.56
   5  -3   7 1140.77   36.83
   5  -3   7 1053.63   32.59
  -5   3  -7 1072.97   33.54
   5  -3   8  723.55   50.42
   5  -3   8  667.50   43.59
  -5   3  -8  742.41   28.45
   5  -3   9  213.49   27.69
   5  -3   9  145.58   21.98
  -5   3  -9  137.72   36.14
   5  -2 -11   28.35   36.65
   5  -2 -11   10.78   22.80
  -5   2  11   23.67   24.85
   5  -2 -10   27.74   22.68
  -5   2  10   10.32   24.35
   5  -2  -9   29.80   13.51
  -5   2   9   21.39   14.56
   5  -2  -8  139.35   22.85
  -5   2   8   62.64   24.36
   5  -2  -7  889.85   23.09
  -5   2   7  870.45   34.45
   5  -2  -6    9.79   13.69
  -5   2   6   27.75   23.33
   5  -2  -5 1583.85   31.75
  -5   2   5 1512.48   45.21
   5  -2  -4 1750.89   48.61
  -5   2   4 1826.86   35.75
   5  -2  -3  115.07   15.34
  -5   2   3  116.90   25.53
   5  -2  -2  105.79   25.63
  -5   2   2   87.96   15.62
   5  -2  -1  517.01   19.68
  -5   2   1  553.96   20.49
   5  -2   0 1181.69   28.38
  -5   2   0 1242.26   28.61
   5  -2   1  254.54   28.91
  -5   2  -1  306.88   18.59
   5  -2   2 3767.03   69.40
  -5   2  -2 3778.24   87.67
   5  -2   3  331.36   19.20
  -5   2  -3  304.37   29.27
   5  -2   4  771.52   24.30
   5  -2   4  693.75   23.06
  -5   2  -4  709.63   23.33
   5  -2   5  296.58   31.99
   5  -2   5  260.63   17.85
  -5   2  -5  273.37   18.20
   5  -2   6  352.41   22.68
   5  -2   6  373.28   19.51
  -5   2  -6  368.26   29.81
   5  -2   7   54.67   20.00
   5  -2   7   46.29   16.97
  -5   2  -7   96.93   17.32
   5  -2   8  222.81   36.87
   5  -2   8  177.66   29.05
  -5   2  -8  146.33   19.05
   5  -2   9   61.35   40.05
   5  -2   9   61.80   17.81
  -5   2  -9   95.83   17.93
   5  -2  10  342.67   29.39
   5  -2  10  275.40   35.02
  -5   2 -10  346.55   21.18
   5  -1 -11   95.99   22.08
  -5   1  11   50.80   16.27
   5  -1 -10    2.79   19.56
   5  -1 -10   30.48   22.11
  -5   1  10   -2.09   14.54
   5  -1  -9  408.88   17.70
  -5   1   9  419.00   28.57
   5  -1  -8 1445.42   41.46
  -5   1   8 1379.43   29.57
  -5   1   7  121.11   23.94
   5  -1  -6 1895.96   47.34
  -5   1   6 1828.07   48.09
   5  -1  -5 2939.14   64.67
  -5   1   5 2967.48   51.40
   5  -1  -4  631.00   28.99
  -5   1   4  682.36   20.17
   5  -1  -3  489.31   17.73
  -5   1   3  501.98   28.17
   5  -1  -2 2126.35   52.42
  -5   1   2 2051.14   51.29
   5  -1  -1 1792.46   33.63
  -5   1   1 1818.12   48.39
   5  -1   0   20.05   13.99
  -5   1   0   15.49   23.26
   5  -1   1 1019.07   24.37
  -5   1  -1 1009.65   36.10
   5  -1   2  240.87   15.71
  -5   1  -2  197.33   15.74
   5  -1   3  404.51   28.54
  -5   1  -3  420.12   28.52
   5  -1   4  751.77   33.64
   5  -1   4  667.47   20.83
  -5   1  -4  666.52   20.30
   5  -1   5  114.18   26.75
   5  -1   5  100.31   14.80
  -5   1  -5  129.68   14.67
   5  -1   6  533.58   35.26
   5  -1   6  498.70   29.02
  -5   1  -6  534.57   18.63
   5  -1   7  148.63   32.23
   5  -1   7  126.63   15.52
  -5   1  -7  141.99   14.92
   5  -1   8 2153.36   50.39
   5  -1   8 2146.34   42.72
  -5   1  -8 2145.10   42.56
   5  -1   9  243.93   39.63
   5  -1   9  285.14   27.92
  -5   1  -9  241.90   27.88
   5  -1  10   20.65   23.05
   5  -1  10   25.82   25.49
  -5   1 -10   -6.91   24.93
   5  -1  11  196.33   47.43
   5  -1  11  191.90   30.24
  -5   1 -11  209.91   17.52
   5   0 -11  100.92   32.73
  -5   0  11  102.65   26.10
   5   0 -10  364.33   22.35
  -5   0  10  347.15   28.23
   5   0  -9  239.03   18.78
   5   0  -9  234.88   26.03
  -5   0   9  226.60   16.48
   5   0  -8 1116.77   25.38
  -5   0   8 1145.35   37.88
   5   0  -7  223.31   14.88
  -5   0   7  218.36   15.61
   5   0  -6 6697.87  127.63
  -5   0   6 6451.53  126.03
   5   0  -5  400.01   16.26
  -5   0   5  342.57   16.53
   5   0  -4 1540.67   29.38
  -5   0   4 1567.28   29.92
   5   0  -3 1669.74   43.37
  -5   0   3 1752.87   32.18
   5   0  -2  997.70   22.90
  -5   0   2 1009.81   34.88
   5   0  -1  481.01   27.05
  -5   0   1  468.36   27.24
   5   0   0  285.03   15.68
  -5   0   0  302.58   25.16
   5   0   1  277.19   15.43
  -5   0  -1  272.32   15.26
   5   0   2 1604.62   29.84
  -5   0  -2 1593.06   30.20
   5   0   3  170.23   21.88
  -5   0  -3  124.71   13.85
   5   0   4 2361.34   55.44
   5   0   4 2343.15   39.40
  -5   0  -4 2282.25   38.44
   5   0   5  117.32   23.98
   5   0   5   81.64   21.27
  -5   0  -5   97.09   13.10
   5   0   6  308.78   19.66
   5   0   6  290.81   23.62
  -5   0  -6  334.81   15.31
   5   0   7 1240.94   32.42
   5   0   7 1272.14   36.01
  -5   0  -7 1266.52   35.76
   5   0   8   12.61   33.00
   5   0   8   56.41   19.80
  -5   0  -8   35.01   19.83
   5   0   9   62.73   20.96
   5   0   9   74.15   20.28
  -5   0  -9   88.26   21.83
   5   0  10  215.45   39.98
  -5   0 -10  179.59   14.78
   5   0  11  290.77   29.28
   5   0  11  245.89   17.07
   5   1 -11  196.81   19.14
  -5  -1  11  155.92   28.60
   5   1 -10  449.54   31.66
  -5  -1  10  413.04   30.37
   5   1  -9   42.04   24.56
  -5  -1   9   12.28   23.86
   5   1  -8  677.23   30.47
   5   1  -8  602.24   32.08
  -5  -1   8  626.13   20.95
   5   1  -7 1717.90   46.28
  -5  -1   7 1622.25   46.71
   5   1  -6  738.43   31.29
  -5  -1   6  777.50   32.55
   5   1  -5 1738.98   44.02
  -5  -1   5 1690.34   46.30
   5   1  -4 2835.71   47.36
   5   1  -3 1577.98   29.05
  -5  -1   3 1520.55   30.12
   5   1  -2 7417.44  142.06
  -5  -1   2 7648.90  169.25
   5   1  -1 1197.17   36.25
  -5  -1   1 1208.19   24.89
   5   1   0 1247.55   25.01
  -5  -1   0 1260.06   25.94
   5   1   1 2741.88   44.03
  -5  -1  -1 2738.21   58.61
   5   1   2  400.63   15.62
  -5  -1  -2  428.94   15.68
   5   1   3 7577.41  142.62
   5   1   3 8065.81  152.76
  -5  -1  -3 7679.91  147.29
   5   1   4 4932.92   96.61
   5   1   4 4660.08   94.24
  -5  -1  -4 4752.43   79.67
   5   1   5 1088.29   35.92
   5   1   5 1070.46   21.15
  -5  -1  -5 1057.64   21.51
   5   1   6   20.72   23.69
   5   1   6   16.59   10.53
  -5  -1  -6   14.61   18.12
   5   1   7  643.58   22.77
   5   1   7  638.85   15.95
  -5  -1  -7  598.95   16.29
   5   1   8   23.35   28.64
   5   1   8    9.13   10.21
  -5  -1  -8   20.00   10.52
   5   1   9   36.66   19.75
   5   1   9   12.64   16.97
  -5  -1  -9    7.01   10.12
   5   1  10  418.49   41.30
   5   1  10  365.32   21.55
  -5  -1 -10  383.76   21.46
   5   1  11 1729.60   70.87
   5   1  11 1548.85   28.67
   5   1  12  205.49   29.55
   5   2 -10  109.32   15.16
  -5  -2  10  113.86   28.11
   5   2  -9  260.15   24.68
  -5  -2   9  250.66   18.79
   5   2  -8  477.61   24.06
  -5  -2   8  453.72   31.87
   5   2  -7   12.88   17.46
  -5  -2   7   37.82   24.47
   5   2  -6  725.60   23.43
   5   2  -6  749.00   33.43
  -5  -2   6  757.86   32.58
   5   2  -5 1586.79   31.78
  -5  -2   5 1503.42   31.04
   5   2  -4 1068.69   34.40
  -5  -2   4  983.37   23.92
   5   2  -3 3145.03   53.00
  -5  -2   3 3162.88   69.04
   5   2  -2  273.71   25.04
  -5  -2   2  264.69   15.87
   5   2  -1  368.70   24.50
  -5  -2   1  342.46   25.76
   5   2   0  329.64   15.43
  -5  -2   0  363.56   16.21
   5   2   1   31.30   11.96
  -5  -2  -1  -22.53   20.70
   5   2   2 2275.23   37.06
  -5  -2  -2 2267.47   36.55
   5   2   3 1491.24   23.67
   5   2   3 1595.27   37.99
  -5  -2  -3 1510.03   38.53
   5   2   4 2612.57   51.69
   5   2   4 2542.42   39.76
  -5  -2  -4 2578.78   52.04
   5   2   5  156.12   13.08
   5   2   5  143.64   17.65
  -5  -2  -5  121.39   11.70
   5   2   6 1562.63   30.25
   5   2   6 1533.87   25.01
  -5  -2  -6 1584.13   35.07
   5   2   7 5080.65  119.56
   5   2   7 4942.87   93.04
  -5  -2  -7 5060.88   94.28
   5   2   8   21.54   17.02
   5   2   8   44.47   15.38
  -5  -2  -8   39.48   15.52
   5   2   9    7.08   18.68
   5   2   9   -5.52   14.61
  -5  -2  -9    5.97   14.56
   5   2  10 1347.59   60.29
   5   2  10 1363.66   29.41
  -5  -2 -10 1392.37   28.28
   5   2  11  651.57   48.03
   5   2  11  476.26   16.82
   5   2  12  868.36   58.92
   5   3 -10  184.22   23.73
  -5  -3  10  181.03   31.40
  -5  -3  10  167.46   18.19
   5   3  -9   -1.39   12.22
  -5  -3   9   15.38   26.79
   5   3  -8    4.17   16.61
  -5  -3   8    0.25   16.75
   5   3  -7 1229.03   28.31
  -5  -3   7 1354.49   45.63
   5   3  -6  691.30   19.56
  -5  -3   6  663.48   23.44
   5   3  -5  266.16   13.57
   5   3  -5  250.73   17.97
  -5  -3   5  262.96   29.13
   5   3  -4 2150.25   41.71
  -5  -3   4 2105.60   56.69
   5   3  -3  299.22   26.18
  -5  -3   3  252.67   27.70
   5   3  -2  762.40   32.40
  -5  -3   2  801.44   34.08
   5   3  -1 1667.22   31.85
  -5  -3   1 1654.30   31.99
   5   3   0  117.80   13.57
  -5  -3   0  111.94   14.28
   5   3   1 1704.32   21.19
   5   3   1 1819.98   31.63
  -5  -3  -1 1774.86   43.16
   5   3   2   10.77    7.07
   5   3   2    8.56   19.17
  -5  -3  -2   -3.25   12.13
   5   3   3   15.84    8.55
   5   3   3   11.49   11.06
  -5  -3  -3   27.49   11.54
   5   3   4  145.67   10.99
   5   3   4  172.09   18.06
  -5  -3  -4  130.42   12.03
   5   3   5 2034.12   44.20
   5   3   5 1888.14   29.17
  -5  -3  -5 1955.54   30.28
   5   3   6 1381.97   25.86
   5   3   6 1281.80   21.03
  -5  -3  -6 1269.44   21.54
   5   3   7 1074.74   37.50
   5   3   7 1053.82   24.72
  -5  -3  -7 1047.84   18.47
   5   3   8 1683.30   50.86
   5   3   8 1501.89   29.22
  -5  -3  -8 1536.04   30.85
   5   3   9  348.17   35.24
   5   3   9  358.95   15.74
  -5  -3  -9  399.33   21.79
  -5  -3  -9  394.85   16.87
   5   3  10  178.98   35.65
   5   3  10  144.46   11.52
  -5  -3 -10  145.49   21.26
  -5  -3 -10  172.05   12.63
   5   3  11  810.52   34.63
  -5  -3 -11  911.94   33.46
   5   3  12  730.86   35.18
  -5  -3 -12  747.67   34.71
   5   3  13   99.00   45.20
  -5  -4   9  691.50   27.64
  -5  -4   9  702.16   40.06
   5   4  -8   13.67   14.92
  -5  -4   8    1.83   18.98
  -5  -4   8   43.26   16.81
   5   4  -7  356.48   10.70
  -5  -4   7  389.17   35.56
   5   4  -6  147.24   12.19
  -5  -4   6  165.03   19.65
   5   4  -5  304.90   10.89
  -5  -4   5  352.04   32.69
   5   4  -4 1442.86   19.55
  -5  -4   4 1716.31   35.23
   5   4  -3 6757.72  104.04
  -5  -4   3 7517.62  150.28
   5   4  -2 1933.19   39.19
  -5  -4   2 1989.22   39.06
   5   4  -1  867.88   24.44
  -5  -4   1  873.00   35.76
   5   4   0   13.90    5.92
   5   4   0   21.71   13.82
  -5  -4   0   32.38   14.68
   5   4   1 1035.74   15.71
   5   4   1 1047.11   24.25
  -5  -4  -1 1066.02   35.79
   5   4   2 4144.30   60.41
   5   4   2 4299.04   88.91
  -5  -4  -2 4237.97   87.20
   5   4   3  590.65   17.51
   5   4   3  563.24   16.57
  -5  -4  -3  583.04   25.50
   5   4   4  242.71   16.50
   5   4   4  213.52   12.70
  -5  -4  -4  242.57   12.77
   5   4   5  510.44   22.15
   5   4   5  504.41   20.99
  -5  -4  -5  502.01   14.83
   5   4   6  674.42   27.89
  -5  -4  -6  635.43   15.17
   5   4   7  305.83   25.79
   5   4   7  263.93   16.19
  -5  -4  -7  349.51   24.66
   5   4   8 2332.65   61.67
  -5  -4  -8 2216.01   42.91
  -5  -4  -8 2362.33   41.20
   5   4   9   30.56   28.84
   5   4   9   22.64   10.78
  -5  -4  -9   18.46   16.97
  -5  -4  -9   36.80   12.79
   5   4  10   15.38   19.14
  -5  -4 -10   12.99   18.43
  -5  -4 -10   -7.72   10.21
   5   4  11   88.17   21.97
  -5  -4 -11   59.44   21.81
   5   4  12  974.06   36.82
  -5  -4 -12 1029.22   37.28
   5   4  13  249.03   30.40
  -5  -4 -13  196.02   29.20
  -5  -5   8  566.48   28.67
  -5  -5   8  617.53   27.66
  -5  -5   7   14.23   20.01
  -5  -5   7   12.66   19.14
   5   5  -6  156.45    8.89
  -5  -5   6  197.11   34.58
  -5  -5   6  165.74   19.25
  -5  -5   5  921.11   30.55
  -5  -5   4 1126.40   48.22
  -5  -5   3  -16.91   28.83
  -5  -5   2 2028.84   59.53
  -5  -5   1  171.94   28.78
  -5  -5   0  137.62   26.67
   5   5   1  430.01    6.11
  -5  -5  -1  525.76   19.35
   5   5   2  853.99   22.94
  -5  -5  -2  814.63   22.19
   5   5   3 1409.21   17.77
   5   5   3 1483.15   29.20
  -5  -5  -3 1496.02   40.91
   5   5   4   19.80    7.90
   5   5   4    9.84   11.97
  -5  -5  -4   17.36   12.48
   5   5   5   52.78   15.80
   5   5   5   53.48   11.43
  -5  -5  -5   63.61   19.51
   5   5   6 1259.85   23.55
   5   5   6 1223.73   22.10
  -5  -5  -6 1244.04   31.24
  -5  -5  -6 1316.10   32.02
   5   5   7  789.41   30.69
  -5  -5  -7  812.83   28.59
  -5  -5  -7  829.27   26.12
   5   5   8 3000.21   55.98
  -5  -5  -8 3090.24   54.63
  -5  -5  -8 3156.14   56.44
   5   5   9  390.89   32.63
  -5  -5  -9  376.97   19.80
  -5  -5  -9  425.10   16.86
   5   5  10  112.01   19.86
  -5  -5 -10  121.91   30.59
  -5  -5 -10  118.94   11.80
   5   5  11  291.05   24.69
  -5  -5 -11  230.15   23.46
  -5  -5 -12  -26.53   22.81
  -5  -5 -13  621.67   34.10
  -5  -6   7  225.45   25.94
  -5  -6   7  230.76   23.37
  -5  -6   6  810.77   51.22
  -5  -6   6  851.70   32.19
  -5  -6   5    8.39   20.95
  -5  -6   5    2.27   20.25
  -5  -6   4   68.44   33.53
  -5  -6   4   -6.73   19.54
  -5  -6   3  140.84   21.61
  -5  -6   2   42.37   19.03
  -5  -6   1 2169.46   46.85
  -5  -6   0 1063.19   30.61
  -5  -6  -1  830.29   39.48
  -5  -6  -2 1656.26   34.80
  -5  -6  -3  -11.23   23.71
  -5  -6  -4  861.00   33.48
  -5  -6  -5  272.88    9.85
  -5  -6  -5  303.37   24.14
  -5  -6  -6   43.07   15.93
  -5  -6  -6   84.02   12.35
  -5  -6  -7 1781.97   39.93
  -5  -6  -7 1674.93   28.80
  -5  -6  -8  339.51   16.42
  -5  -6  -8  375.13   20.46
  -5  -6  -9  456.49   19.59
  -5  -6  -9  507.06   20.22
  -5  -6  -9  418.80   16.97
  -5  -6 -10  524.62   22.81
  -5  -6 -10  522.18   18.68
  -5  -6 -11   64.06   20.37
  -5  -6 -12 1109.52   36.64
  -5  -6 -13 1309.22   66.14
  -5  -7   6  188.45   27.82
  -5  -7   6  178.35   26.67
  -5  -7   5  644.77   32.69
  -5  -7   5  598.50   30.29
  -5  -7   4  131.17   25.07
  -5  -7   4  139.21   24.81
  -5  -7   3  603.35   49.79
  -5  -7   3  666.37   47.67
  -5  -7   2  509.94   30.88
  -5  -7   2  568.33   28.80
  -5  -7   1  317.35   25.55
  -5  -7   1  262.24   23.92
  -5  -7   0  550.58   28.08
  -5  -7   0  552.01   25.21
  -5  -7  -1 3536.98   74.51
  -5  -7  -2   65.94   31.44
  -5  -7  -3 1346.60   32.61
  -5  -7  -4  849.46   37.35
  -5  -7  -5  492.53   15.83
  -5  -7  -6  236.27   10.76
  -5  -7  -6  278.28   25.27
  -5  -7  -6  243.21   14.87
  -5  -7  -7   81.54   11.19
  -5  -7  -7   93.50   21.62
  -5  -7  -7  125.77   20.42
  -5  -7  -8  906.94   32.38
  -5  -7  -8  854.12   20.15
  -5  -7  -8  873.62   27.67
  -5  -7  -9 1214.31   28.59
  -5  -7  -9 1162.20   31.53
  -5  -7 -10   73.23   17.71
  -5  -7 -10   39.64   10.18
  -5  -7 -10   48.15   14.16
  -5  -7 -11  770.58   29.28
  -5  -7 -12   99.96   37.18
  -5  -8   4   28.30   44.11
  -5  -8   4   -0.03   25.97
  -5  -8   3  178.33   29.84
  -5  -8   3  215.78   43.63
  -5  -8   2    2.02   42.79
  -5  -8   2   45.27   23.51
  -5  -8   1  185.60   42.18
  -5  -8   1  187.27   42.80
  -5  -8   0  145.86   41.20
  -5  -8   0  248.69   25.48
  -5  -8  -1 1125.62   56.24
  -5  -8  -1 1166.10   37.67
  -5  -8  -2  884.73   50.36
  -5  -8  -2  771.65   47.58
  -5  -8  -3  103.76   21.08
  -5  -8  -3  113.37   32.70
  -5  -8  -4  360.18   35.73
  -5  -8  -4  302.61   34.53
  -5  -8  -5 1013.61   28.77
  -5  -8  -5  923.20   28.03
  -5  -8  -6 1094.90   28.09
  -5  -8  -6 1077.16   41.12
  -5  -8  -7   95.36   17.23
  -5  -8  -7   60.54   24.37
  -5  -8  -7   92.58   13.98
  -5  -8  -8 1298.52   26.68
  -5  -8  -8 1331.34   28.24
  -5  -8  -8 1316.34   27.30
  -5  -8  -9  224.26   26.17
  -5  -8  -9  218.13   14.30
  -5  -8  -9  199.00   21.08
  -5  -8 -10  996.51   41.77
  -5  -8 -10  961.99   29.48
  -5  -8 -10  917.54   28.53
  -5  -8 -11  704.85   42.77
  -5  -8 -12   54.49   22.63
  -5  -9   2   88.38   46.66
  -5  -9   2   32.50   28.23
  -5  -9   1  246.21   30.18
  -5  -9   1  293.96   50.30
  -5  -9   0  469.83   33.20
  -5  -9   0  493.58   33.53
  -5  -9  -1   38.69   25.20
  -5  -9  -1   60.69   25.72
  -5  -9  -2  745.05   33.62
  -5  -9  -2  767.49   52.42
  -5  -9  -3   96.99   37.57
  -5  -9  -3   71.24   36.56
  -5  -9  -4   40.25   35.99
  -5  -9  -4   49.21   20.95
  -5  -9  -5  156.99   34.53
  -5  -9  -5   92.88   20.34
  -5  -9  -6 1088.28   31.76
  -5  -9  -6 1129.86   47.36
  -5  -9  -7  701.55   23.91
  -5  -9  -7  766.07   25.44
  -5  -9  -7  755.15   24.79
  -5  -9  -8   11.18   12.20
  -5  -9  -8   12.76   24.58
  -5  -9  -8   -0.04   15.65
  -5  -9  -9   59.77   23.61
  -5  -9  -9   46.38   14.97
  -5  -9  -9   44.32   22.91
  -5  -9 -10  497.37   33.63
  -5  -9 -10  484.69   19.01
  -5  -9 -10  490.97   18.54
  -5 -10  -1  125.09   29.47
  -5 -10  -1  183.91   50.56
  -5 -10  -2  171.99   28.85
  -5 -10  -2  224.34   48.36
  -5 -10  -3   54.20   25.39
  -5 -10  -3   -5.21   42.58
  -5 -10  -4  865.36   55.81
  -5 -10  -4  951.51   58.09
  -5 -10  -5   62.57   24.17
  -5 -10  -5   14.06   23.29
  -5 -10  -6  116.17   37.27
  -5 -10  -6  128.21   35.96
  -5 -10  -7   98.04   20.98
  -5 -10  -7  104.69   20.83
  -5 -10  -8   59.90   28.83
  -5 -10  -8   -2.32   18.41
   6  -6  -7 1012.68   58.17
  -6   6   7  918.02   54.41
   6  -6  -6  333.65   46.36
  -6   6   6  281.04   43.71
   6  -6  -5  180.01   27.01
  -6   6   5  276.52   42.12
   6  -6  -4   91.08   26.84
  -6   6   4  160.08   40.35
   6  -6  -3  310.75   46.18
  -6   6   3  291.68   28.53
   6  -6  -2   28.82   44.19
  -6   6   2   94.78   41.30
   6  -6  -1   91.90   28.92
  -6   6   1   98.93   26.51
   6  -6   0   58.83   47.29
  -6   6   0   76.21   44.99
   6  -6   1   38.65   29.41
  -6   6  -1  103.93   45.56
   6  -6   2  186.67   31.57
  -6   6  -2  118.30   30.30
   6  -5  -9  666.55   45.27
   6  -5  -8  166.50   35.70
  -6   5   8  123.08   22.03
   6  -5  -7   49.88   21.71
  -6   5   7    0.01   21.05
   6  -5  -6  387.99   41.51
  -6   5   6  360.90   24.92
   6  -5  -5    9.55   35.45
  -6   5   5   -2.20   20.98
   6  -5  -4  434.20   27.55
  -6   5   4  421.47   43.01
   6  -5  -3   26.40   23.18
  -6   5   3   67.01   22.37
   6  -5  -2  553.21   46.49
  -6   5   2  486.42   29.64
   6  -5  -1   23.16   38.74
  -6   5   1   26.06   22.83
   6  -5   0   30.15   24.48
  -6   5   0   33.68   38.46
   6  -5   1  970.30   39.67
  -6   5  -1  904.66   36.63
   6  -5   2  346.88   49.24
  -6   5  -2  370.92   29.17
   6  -5   3   77.43   26.77
  -6   5  -3  100.98   26.43
   6  -5   4  895.77   38.75
   6  -5   4  881.55   40.47
  -6   5  -4  912.18   39.50
   6  -4 -10  426.43   38.72
  -6   4  10  517.10   40.98
   6  -4  -9    4.85   30.66
  -6   4   9   -1.87   19.09
   6  -4  -8  267.33   34.33
  -6   4   8  216.51   35.01
   6  -4  -7   90.25   32.70
  -6   4   7  100.78   31.75
   6  -4  -6   67.82   19.93
  -6   4   6  109.54   32.28
   6  -4  -5   65.97   20.55
  -6   4   5  128.95   32.75
   6  -4  -4 1057.97   49.10
  -6   4   4 1031.65   33.76
   6  -4  -3 1025.98   51.41
  -6   4   3 1087.99   51.91
   6  -4  -2  289.75   39.55
  -6   4   2  313.08   24.14
   6  -4  -1  405.06   42.24
  -6   4   1  357.21   40.48
   6  -4   0  541.46   28.88
  -6   4   0  543.83   28.58
   6  -4   1  988.00   54.85
  -6   4  -1  997.32   34.57
   6  -4   2   15.77   22.68
  -6   4  -2   49.98   21.46
   6  -4   3  392.69   28.93
  -6   4  -3  400.48   26.51
   6  -4   4   54.50   36.94
   6  -4   4   23.17   22.98
  -6   4  -4   39.86   22.82
   6  -4   5  401.77   28.67
   6  -4   5  372.15   28.06
  -6   4  -5  379.86   28.89
   6  -4   6   32.61   25.46
   6  -4   6   47.67   24.00
  -6   4  -6   89.70   39.43
   6  -3 -10   39.75   17.80
  -6   3  10   63.90   30.93
   6  -3  -9  216.86   19.91
  -6   3   9  232.59   20.86
   6  -3  -8  424.13   35.78
  -6   3   8  413.12   23.14
   6  -3  -7   29.61   17.74
  -6   3   7   24.08   29.31
   6  -3  -6   58.90   18.54
  -6   3   6  115.50   29.81
   6  -3  -5  284.96   33.10
  -6   3   5  239.64   20.53
   6  -3  -4 2558.95   75.38
  -6   3   4 2622.44   55.56
   6  -3  -3  134.15   19.77
  -6   3   3   96.68   32.57
   6  -3  -2   21.00   19.71
  -6   3   2   67.98   19.30
   6  -3  -1 2155.72   48.25
  -6   3   1 2199.44   49.08
   6  -3   0 1030.73   49.03
  -6   3   0  962.79   48.03
   6  -3   1   72.46   33.36
  -6   3  -1   28.77   32.90
   6  -3   2 1564.19   40.36
  -6   3  -2 1600.24   58.84
   6  -3   3  -23.98   20.14
  -6   3  -3   17.30   31.99
   6  -3   4   -0.79   20.61
   6  -3   4    7.62   32.81
  -6   3  -4   26.02   19.79
   6  -3   5  143.89   22.80
   6  -3   5   71.23   34.61
  -6   3  -5  139.30   20.76
   6  -3   6  734.03   51.88
   6  -3   6  788.30   30.53
  -6   3  -6  844.13   49.09
   6  -3   7  841.59   55.73
   6  -3   7  803.92   31.84
  -6   3  -7  881.13   33.26
   6  -3   8  -18.06   25.92
   6  -3   8   -2.51   34.24
  -6   3  -8   44.52   36.92
   6  -2 -10   57.24   27.89
  -6   2  10  115.56   30.38
   6  -2  -9  547.09   34.89
  -6   2   9  560.32   24.23
   6  -2  -8  280.00   30.30
  -6   2   8  258.51   20.28
   6  -2  -7  115.99   28.61
  -6   2   7  123.82   28.90
   6  -2  -6   13.21   26.33
  -6   2   6   -8.98   27.30
   6  -2  -5  173.29   17.95
  -6   2   5  183.96   18.99
   6  -2  -4 2882.20   76.24
  -6   2   4 2886.99   57.09
   6  -2  -3 5388.44  109.98
  -6   2   3 5399.59  134.24
   6  -2  -2 1607.15   37.28
  -6   2   2 1566.52   36.81
   6  -2  -1  -16.05   17.53
  -6   2   1    7.62   17.29
   6  -2   0  744.41   26.82
  -6   2   0  767.72   26.53
   6  -2   1 1220.24   48.55
  -6   2  -1 1259.26   33.37
   6  -2   2   45.13   17.87
  -6   2  -2   -1.12   17.89
   6  -2   3  181.81   32.41
  -6   2  -3  160.52   19.42
   6  -2   4  961.91   31.06
   6  -2   4  974.43   29.96
  -6   2  -4  875.78   43.85
   6  -2   5   14.75   19.85
   6  -2   5    1.10   18.01
  -6   2  -5   -2.80   17.82
   6  -2   6   27.64   34.65
   6  -2   6  -21.29   18.58
  -6   2  -6   25.72   29.35
   6  -2   7  424.88   43.34
   6  -2   7  379.77   23.29
  -6   2  -7  359.98   22.69
   6  -2   8  195.09   26.20
   6  -2   8  187.16   34.59
  -6   2  -8  198.82   21.80
   6  -2   9    9.63   44.15
   6  -2   9   51.43   19.75
  -6   2  -9   20.38   33.64
   6  -1 -10   30.72   21.93
   6  -1 -10   25.23   29.40
  -6   1  10   -4.25   29.29
   6  -1  -9  158.48   28.08
  -6   1   9  150.12   18.64
   6  -1  -8   10.09   16.08
  -6   1   8   50.13   17.10
   6  -1  -7  807.32   24.99
  -6   1   7  810.45   38.37
   6  -1  -6  235.65   29.36
  -6   1   6  274.05   29.41
   6  -1  -5   33.03   26.26
  -6   1   5   68.00   26.23
   6  -1  -4   34.49   15.98
  -6   1   4   41.89   16.00
   6  -1  -3   41.74   26.18
  -6   1   3   48.44   26.88
   6  -1  -2  585.98   35.02
  -6   1   2  632.22   23.73
   6  -1  -1  126.84   17.81
  -6   1   1  154.83   18.13
   6  -1   0  900.55   40.29
  -6   1   0  851.36   25.93
   6  -1   1 1967.31   56.51
  -6   1  -1 1930.21   40.83
   6  -1   2 1049.19   28.51
  -6   1  -2 1121.30   28.83
   6  -1   3 1993.87   42.52
  -6   1  -3 2074.43   58.17
   6  -1   4  242.78   20.23
   6  -1   4  251.51   19.31
  -6   1  -4  226.26   18.85
   6  -1   5  252.55   21.09
   6  -1   5  267.34   30.69
  -6   1  -5  308.96   30.55
   6  -1   6 1647.53   41.14
   6  -1   6 1686.79   53.10
  -6   1  -6 1592.91   36.70
   6  -1   7  345.87   38.36
   6  -1   7  262.86   31.77
  -6   1  -7  291.08   19.29
   6  -1   8  197.76   24.64
   6  -1   8  193.02   19.43
  -6   1  -8  187.97   29.60
   6  -1   9   20.01   25.06
   6  -1   9    3.48   28.21
  -6   1  -9   13.35   17.64
   6  -1  10   46.23   41.40
   6  -1  10    9.09   18.43
  -6   1 -10   11.98   18.73
   6   0 -10  329.73   23.82
   6   0 -10  302.41   21.95
  -6   0  10  320.18   20.56
   6   0  -9    9.16   18.81
   6   0  -9   55.48   16.98
  -6   0   9   15.80   17.01
   6   0  -8 1065.37   29.01
  -6   0   8 1016.84   42.02
   6   0  -7 2604.68   52.14
  -6   0   7 2563.40   68.96
   6   0  -6   27.71   25.33
  -6   0   6   39.63   26.71
   6   0  -5  248.24   27.53
  -6   0   5  206.36   29.71
   6   0  -4    3.43   15.13
  -6   0   4   40.47   25.86
   6   0  -3  622.54   33.29
  -6   0   3  537.16   21.69
   6   0  -2  645.59   33.43
  -6   0   2  551.61   34.43
   6   0  -1  276.66   17.98
  -6   0   1  289.38   29.65
   6   0   0 4351.18   81.16
  -6   0   0 4362.88  102.22
   6   0   1   75.15   16.09
  -6   0  -1   58.16   26.84
   6   0   2 3441.00   82.63
  -6   0  -2 3446.97   82.70
   6   0   3 3906.15   92.58
  -6   0  -3 3832.77   69.72
   6   0   4  262.51   18.19
   6   0   4  282.10   27.66
  -6   0  -4  231.01   27.73
   6   0   5    8.01   16.35
   6   0   5   26.32   14.71
  -6   0  -5   48.19   24.21
   6   0   6 1234.09   29.12
  -6   0  -6 1338.94   42.01
   6   0   7   65.60   19.26
   6   0   7   44.42   15.39
  -6   0  -7   79.05   24.22
   6   0   8  283.49   24.29
   6   0   8  301.16   28.13
  -6   0  -8  283.24   27.47
   6   0   9  167.49   25.14
   6   0   9  127.72   25.89
  -6   0  -9   86.34   25.41
   6   0  10  413.00   30.50
   6   0  10  390.80   29.86
  -6   0 -10  418.21   31.64
   6   0  11   59.19   27.87
   6   0  11   84.23   26.65
   6   1 -10   31.39   17.98
  -6  -1  10    1.20   17.51
   6   1  -9  638.47   24.12
   6   1  -9  603.06   25.09
  -6  -1   9  639.65   38.10
   6   1  -8  430.01   20.52
   6   1  -8  391.05   20.73
  -6  -1   8  392.09   21.64
   6   1  -7  -39.28   16.14
  -6  -1   7   19.55   26.71
   6   1  -6 2990.10   73.00
  -6  -1   6 2859.96   74.58
   6   1  -5   63.38   16.47
  -6  -1   5   26.15   26.59
   6   1  -4  828.52   24.44
  -6  -1   4  897.26   38.14
   6   1  -3   29.56   14.97
  -6  -1   3   27.25   16.23
   6   1  -2  230.88   28.18
  -6  -1   2  277.01   18.81
   6   1  -1 1688.13   34.92
  -6  -1   1 1704.67   34.57
   6   1   0   50.43   15.55
  -6  -1   0   35.22   15.54
   6   1   1 2880.49   51.05
  -6  -1  -1 2882.11   51.62
   6   1   2 7532.42  179.22
  -6  -1  -2 7715.12  156.18
   6   1   3 1798.85   32.08
   6   1   3 1763.62   34.01
  -6  -1  -3 1747.33   47.62
   6   1   4  858.08   22.43
   6   1   4  896.70   22.83
  -6  -1  -4  859.91   35.01
   6   1   5 1356.87   44.75
   6   1   5 1389.46   28.56
  -6  -1  -5 1362.72   28.89
   6   1   6  297.55   30.64
   6   1   6  325.06   24.49
  -6  -1  -6  324.45   16.14
   6   1   7   -6.68   17.69
   6   1   7    0.59   12.65
  -6  -1  -7  -12.51   21.59
   6   1   8  187.44   35.32
   6   1   8  168.35   14.08
  -6  -1  -8  159.50   22.89
   6   1   9   56.38   22.35
   6   1   9   95.98   20.95
  -6  -1  -9   67.22   22.36
   6   1  10  355.98   44.26
   6   1  10  339.30   25.50
  -6  -1 -10  339.72   16.58
   6   1  11  129.12   43.80
   6   1  11   98.12   24.16
   6   2 -10  400.84   30.74
  -6  -2  10  429.96   36.07
   6   2  -9   66.53   14.45
  -6  -2   9   88.93   19.08
   6   2  -8   18.57   13.13
  -6  -2   8   22.62   29.24
   6   2  -7  771.85   19.67
   6   2  -7  860.19   27.17
  -6  -2   7  778.35   26.57
   6   2  -6 1479.46   49.64
  -6  -2   6 1414.52   50.85
   6   2  -5  450.84   20.66
  -6  -2   5  480.14   33.89
   6   2  -4  564.83   32.94
  -6  -2   4  533.87   35.44
   6   2  -3  950.77   26.23
  -6  -2   3  959.14   27.32
   6   2  -2  819.14   23.62
  -6  -2   2  831.57   25.15
   6   2  -1  430.83   29.97
  -6  -2   1  415.42   31.23
   6   2   0  691.58   32.63
  -6  -2   0  650.31   34.48
   6   2   1 6383.22  122.24
  -6  -2  -1 6391.83  147.49
   6   2   2   96.16   15.12
  -6  -2  -2   98.04   24.65
   6   2   3  143.04   12.60
   6   2   3  164.50   15.08
  -6  -2  -3  153.26   15.51
   6   2   4   51.69   12.57
   6   2   4   44.73   13.27
  -6  -2  -4   92.72   22.07
   6   2   5 1409.98   28.99
   6   2   5 1361.06   37.97
  -6  -2  -5 1433.75   39.16
   6   2   6 1595.63   48.03
   6   2   6 1577.27   40.47
  -6  -2  -6 1610.58   42.07
   6   2   7 1754.98   39.01
   6   2   7 1862.38   43.50
  -6  -2  -7 1834.63   32.87
   6   2   8  739.37   41.53
   6   2   8  751.73   28.28
  -6  -2  -8  780.83   29.09
   6   2   9  135.03   22.22
   6   2   9  169.71   13.49
  -6  -2  -9  151.24   20.88
   6   2  10  247.45   25.03
   6   2  10  237.83   14.13
  -6  -2 -10  239.24   21.07
   6   2  11  880.36   58.65
   6   2  12  -29.31   45.50
   6   3  -9  575.50   27.16
  -6  -3   9  608.98   27.12
   6   3  -8  575.18   25.19
  -6  -3   8  562.62   25.82
   6   3  -7  172.93   17.86
  -6  -3   7  176.49   33.69
   6   3  -6   21.24   14.93
   6   3  -6   10.17   18.59
  -6  -3   6   27.00   17.69
   6   3  -5   20.14   17.95
  -6  -3   5   41.41   17.18
   6   3  -4  153.73   29.09
  -6  -3   4  166.06   18.60
   6   3  -3   47.68   27.15
  -6  -3   3   67.76   17.44
   6   3  -2  610.56   22.95
  -6  -3   2  624.56   21.92
   6   3  -1   68.29   15.88
  -6  -3   1   56.42   17.12
   6   3   0  110.78   16.48
  -6  -3   0   85.22   26.54
   6   3   1    7.06   14.38
  -6  -3  -1    7.37   15.16
   6   3   2 1429.17   30.10
   6   3   2 1378.57   40.59
  -6  -3  -2 1359.37   29.39
   6   3   3  607.17   23.03
   6   3   3  593.60   18.52
  -6  -3  -3  560.75   30.03
   6   3   4  500.53   23.92
   6   3   4  478.92   25.80
  -6  -3  -4  504.48   17.89
   6   3   5   82.84   13.13
   6   3   5   47.21   12.59
  -6  -3  -5   59.84   13.14
   6   3   6 4271.94   93.99
   6   3   6 4122.75   69.27
  -6  -3  -6 4106.65   70.17
   6   3   7 2425.46   47.58
   6   3   7 2416.12   51.30
  -6  -3  -7 2576.44   53.61
   6   3   8   33.82   17.47
   6   3   8   14.74   17.51
  -6  -3  -8   30.83   11.23
   6   3   9  150.42   33.38
   6   3   9  122.92   18.20
  -6  -3  -9  159.54   19.38
   6   3  10  250.86   39.59
   6   3  10  220.95   17.86
  -6  -3 -10  244.15   19.08
   6   3  11  -21.69   39.14
   6   3  12  202.94   46.47
  -6  -4   8  224.31   36.95
   6   4  -7   26.09   14.41
  -6  -4   7  -22.69   20.40
   6   4  -6  121.55   12.89
  -6  -4   6  131.30   33.66
   6   4  -5 3387.00   52.82
  -6  -4   5 3727.42   76.00
   6   4  -4 2137.87   31.63
  -6  -4   4 2419.05   50.85
   6   4  -3 5183.94  107.47
  -6  -4   3 5145.34  105.72
   6   4  -2  239.94   19.75
  -6  -4   2  231.00   20.19
   6   4  -1 1253.22   45.83
  -6  -4   1 1189.38   31.00
   6   4   0    6.36    9.56
   6   4   0    2.28   25.39
  -6  -4   0   57.13   26.53
   6   4   1    4.55   10.54
   6   4   1   27.96   15.29
  -6  -4  -1   37.75   15.84
   6   4   2  115.71    8.59
   6   4   2  119.41   15.97
  -6  -4  -2  127.22   15.37
   6   4   3   61.49   14.85
   6   4   3   68.75   24.12
  -6  -4  -3   64.55   14.60
   6   4   4  422.62   20.96
   6   4   4  412.29   16.19
  -6  -4  -4  393.15   27.03
   6   4   5   82.02   19.88
   6   4   5   81.99   12.63
  -6  -4  -5   99.95   13.44
   6   4   6  453.30   17.37
   6   4   6  422.92   15.12
  -6  -4  -6  450.48   16.45
   6   4   7 1144.13   27.68
   6   4   7 1134.11   30.56
  -6  -4  -7 1180.90   33.30
   6   4   8   31.26   17.10
   6   4   8   14.50   16.94
  -6  -4  -8    5.37   17.81
   6   4   9  395.52   22.94
   6   4   9  370.38   19.10
  -6  -4  -9  411.16   21.50
   6   4  10  638.30   28.90
  -6  -4 -10  680.40   23.29
   6   4  11   15.83   22.74
   6   4  12  533.17   33.02
  -6  -5   7  353.25   42.54
  -6  -5   6  424.06   27.51
  -6  -5   5  458.35   42.07
   6   5  -4  196.55    5.39
  -6  -5   4  283.85   23.47
  -6  -5   3  366.15   24.31
  -6  -5   2 1247.10   34.49
  -6  -5   1   63.21   19.30
   6   5   0  300.03   34.21
  -6  -5   0  337.15   32.71
   6   5   1  223.74   19.67
  -6  -5  -1  182.60   19.05
   6   5   2  487.19   13.01
   6   5   2  494.60   32.26
  -6  -5  -2  511.89   32.31
   6   5   3  169.28   13.33
   6   5   3  217.01   16.36
  -6  -5  -3  228.70   26.64
   6   5   4 1307.23   28.19
   6   5   4 1204.57   26.47
  -6  -5  -4 1276.91   39.41
   6   5   5  373.44   13.85
   6   5   5  327.27   15.47
  -6  -5  -5  371.21   16.87
   6   5   6 1459.38   37.96
   6   5   6 1344.55   26.04
  -6  -5  -6 1471.00   39.17
   6   5   7   74.97   22.97
   6   5   7   68.42   17.78
  -6  -5  -7   27.23   19.18
   6   5   8   33.14   16.03
   6   5   8   23.03   10.72
  -6  -5  -8   55.91   18.44
   6   5   9  114.54   18.81
   6   5   9  115.82   10.50
  -6  -5  -9   99.25   18.22
   6   5  10   10.65   32.40
  -6  -5 -10   19.37   16.27
   6   5  11 1025.72   52.75
  -6  -5 -11  955.37   34.23
   6   5  12  127.39   25.68
  -6  -5 -12   79.48   25.03
  -6  -6   6  306.18   44.34
  -6  -6   6  241.03   39.80
  -6  -6   5  411.99   28.78
  -6  -6   4  470.40   29.04
  -6  -6   3    1.91   34.90
  -6  -6   2 1323.78   57.64
  -6  -6   1    7.07   33.08
  -6  -6   0  418.36   23.89
  -6  -6  -1  158.31   19.77
  -6  -6  -2  123.16   30.14
   6   6   3 1154.35   19.22
  -6  -6  -3 1354.04   45.57
   6   6   4  125.06   13.09
  -6  -6  -4  125.06   16.64
   6   6   5   31.14    9.43
  -6  -6  -5   15.37   23.69
   6   6   6  100.39   11.80
  -6  -6  -6  118.97   14.47
   6   6   7  366.49   25.11
  -6  -6  -7  360.50   26.01
   6   6   8  247.89   17.44
  -6  -6  -8  269.04   23.23
   6   6   9  -38.68   16.82
  -6  -6  -9   25.56   15.59
  -6  -6  -9    6.79   19.48
   6   6  10  -13.69   32.00
  -6  -6 -10   18.40   29.42
  -6  -6 -10    5.49   11.16
  -6  -6 -11  846.35   47.30
  -6  -6 -12   -5.25   36.79
  -6  -7   5  176.66   44.79
  -6  -7   5  234.40   44.73
  -6  -7   4   88.15   26.09
  -6  -7   4   90.75   42.73
  -6  -7   3   72.12   41.46
  -6  -7   3  135.95   24.79
  -6  -7   2   61.31   39.06
  -6  -7   1  804.52   50.53
  -6  -7   0   36.72   36.31
  -6  -7  -1   96.60   21.57
  -6  -7  -2  335.98   23.06
  -6  -7  -3   -9.07   29.80
  -6  -7  -4  365.78   32.89
  -6  -7  -5  189.78   29.28
  -6  -7  -6  241.65   28.15
  -6  -7  -7 1332.71   29.45
  -6  -7  -8 1075.98   25.20
  -6  -7  -8 1122.92   25.45
  -6  -7  -9    7.77   25.15
  -6  -7  -9   34.99   12.64
  -6  -7  -9   21.08   11.41
  -6  -7 -10 1574.68   38.06
  -6  -7 -10 1587.47   29.95
  -6  -7 -11   90.23   20.91
  -6  -7 -12   31.68   22.43
  -6  -8   3  158.94   30.11
  -6  -8   3  201.33   29.96
  -6  -8   2   35.39   26.47
  -6  -8   2   30.06   42.97
  -6  -8   1  639.99   34.57
  -6  -8   1  631.25   33.71
  -6  -8   0  761.58   34.95
  -6  -8   0  779.36   52.28
  -6  -8  -1  894.77   35.27
  -6  -8  -1  849.77   34.22
  -6  -8  -2  200.64   24.77
  -6  -8  -2  247.12   23.60
  -6  -8  -3   83.82   34.33
  -6  -8  -4   16.25   19.24
  -6  -8  -5   66.74   18.97
  -6  -8  -5   68.75   18.10
  -6  -8  -6   24.06   28.23
  -6  -8  -6    4.57   15.98
  -6  -8  -7 2150.02   46.00
  -6  -8  -7 2198.23   59.25
  -6  -8  -8  784.91   29.94
  -6  -8  -8  753.26   35.13
  -6  -8  -8  828.59   33.87
  -6  -8  -9  400.25   18.21
  -6  -8  -9  386.24   26.57
  -6  -8  -9  331.91   24.81
  -6  -8 -10  443.43   32.44
  -6  -8 -10  393.23   17.61
  -6  -8 -10  356.85   15.84
  -6  -8 -11   66.15   31.32
  -6  -9   1   56.34   29.22
  -6  -9   1   53.97   28.09
  -6  -9   0  105.63   29.60
  -6  -9   0  174.69   46.78
  -6  -9  -1   22.52   26.58
  -6  -9  -1   50.54   26.25
  -6  -9  -2  208.30   42.69
  -6  -9  -2  135.27   26.60
  -6  -9  -3  233.75   42.04
  -6  -9  -3  225.52   25.90
  -6  -9  -4  354.40   26.57
  -6  -9  -4  340.05   26.61
  -6  -9  -5  223.70   37.65
  -6  -9  -5  230.16   23.15
  -6  -9  -6 1980.09   68.98
  -6  -9  -6 2228.29   70.29
  -6  -9  -7  112.37   32.76
  -6  -9  -7  150.24   18.04
  -6  -9  -8  111.95   20.83
  -6  -9  -8  149.60   18.68
  -6  -9  -8  173.82   28.26
  -6  -9  -9 1223.01   28.40
  -6  -9  -9 1212.03   44.50
  -6  -9  -9 1278.05   41.81
  -6  -9 -10   20.95   25.45
  -6  -9 -10    9.60   23.63
  -6  -9 -10    4.08   14.54
  -6 -10  -2  129.06   29.98
  -6 -10  -2  168.37   30.50
  -6 -10  -3   44.36   26.51
  -6 -10  -3   -8.50   25.80
  -6 -10  -4   -0.19   40.02
  -6 -10  -4   -8.55   25.01
  -6 -10  -5  336.02   27.94
  -6 -10  -5  288.02   27.98
  -6 -10  -6   64.36   36.06
  -6 -10  -6  -34.39   35.71
  -6 -10  -7   97.39   35.46
  -6 -10  -7   81.40   20.66
   7  -5  -6  577.35   33.67
  -7   5   6  548.31   32.18
   7  -5  -5  -34.68   25.27
  -7   5   5   27.76   23.81
   7  -5  -4  242.18   28.43
  -7   5   4  263.41   27.85
   7  -5  -3   12.16   26.07
  -7   5   3   26.55   40.51
   7  -5  -2  314.52   30.46
  -7   5   2  270.15   29.05
   7  -5  -1  125.98   45.88
  -7   5   1   73.45   44.89
   7  -5   0   32.12   28.24
  -7   5   0  -16.81   26.70
   7  -5   1  165.08   48.91
  -7   5  -1   97.56   28.27
   7  -5   2   73.06   48.56
  -7   5  -2  115.72   45.57
   7  -4  -8  596.59   48.61
  -7   4   8  723.54   48.98
   7  -4  -7  158.22   23.88
  -7   4   7  168.00   38.39
   7  -4  -6  383.45   43.56
  -7   4   6  337.40   42.06
   7  -4  -5  192.72   26.00
  -7   4   5  240.09   40.69
   7  -4  -4   79.53   24.20
  -7   4   4   77.96   23.07
   7  -4  -3  240.30   26.10
  -7   4   3  256.31   26.46
   7  -4  -2   66.11   25.23
  -7   4   2   36.63   38.70
   7  -4  -1  852.28   54.31
  -7   4   1  710.20   33.47
   7  -4   0  915.68   39.57
  -7   4   0 1048.68   40.01
   7  -4   1  861.96   58.22
  -7   4  -1  733.96   35.25
   7  -4   2  119.12   28.05
  -7   4  -2  185.80   42.42
   7  -4   3  -33.93   26.24
  -7   4  -3   29.00   39.80
   7  -4   4   69.07   42.87
   7  -4   4   47.13   27.40
  -7   4  -4   51.40   40.53
   7  -4   5  -47.81   26.58
   7  -4   5    1.78   26.46
  -7   4  -5   -4.21   43.72
   7  -3  -9 1050.39   35.95
  -7   3   9 1076.07   55.06
   7  -3  -8   19.88   34.50
  -7   3   8   27.39   21.50
   7  -3  -7   23.64   33.45
  -7   3   7   16.07   21.22
   7  -3  -6  -10.50   20.30
  -7   3   6   22.83   20.86
   7  -3  -5   -7.38   20.77
  -7   3   5   31.75   20.56
   7  -3  -4   24.24   35.01
  -7   3   4   20.81   35.06
  -7   3   3  154.25   37.95
   7  -3  -2   37.32   36.14
  -7   3   2   16.11   22.16
   7  -3  -1   35.00   21.99
  -7   3   1   39.49   22.10
   7  -3   0    3.70   23.52
  -7   3   0  -16.70   37.05
   7  -3   1  739.94   50.74
  -7   3  -1  637.82   49.19
   7  -3   2  161.20   25.07
  -7   3  -2  157.97   39.37
   7  -3   3  180.20   26.03
  -7   3  -3  258.32   40.22
   7  -3   4   49.55   24.58
   7  -3   4   72.76   38.14
  -7   3  -4   44.63   36.88
   7  -3   5   53.61   25.04
   7  -3   5   90.36   37.93
  -7   3  -5  -14.62   37.30
   7  -3   6 1827.91   82.03
   7  -3   6 1759.02   73.73
  -7   3  -6 1730.31   50.70
   7  -2  -9  128.66   34.30
  -7   2   9  128.05   35.01
   7  -2  -8   40.95   31.90
  -7   2   8   65.05   33.16
   7  -2  -7  360.11   24.35
  -7   2   7  334.42   38.70
   7  -2  -6   23.63   19.06
  -7   2   6  -31.93   19.80
   7  -2  -5  835.65   30.10
  -7   2   5  801.59   45.96
   7  -2  -4   24.35   31.21
  -7   2   4   46.06   32.41
   7  -2  -3  901.67   48.34
  -7   2   3  901.64   31.56
   7  -2  -2   24.64   20.39
  -7   2   2   13.19   32.68
   7  -2  -1  411.68   39.84
  -7   2   1  344.70   24.59
   7  -2   0 1422.84   58.33
  -7   2   0 1404.35   39.51
   7  -2   1  284.45   23.91
  -7   2  -1  241.66   24.57
   7  -2   2  127.32   37.12
  -7   2  -2  147.68   22.34
   7  -2   3   -6.85   21.75
  -7   2  -3   55.03   20.74
   7  -2   4  155.44   24.07
   7  -2   4  110.38   23.07
  -7   2  -4  139.64   21.73
   7  -2   5  402.67   28.28
   7  -2   5  367.11   25.51
  -7   2  -5  402.38   41.05
   7  -2   6  100.40   39.09
   7  -2   6   69.69   21.92
  -7   2  -6   78.47   21.46
   7  -2   7  242.10   28.72
   7  -2   7  244.82   24.66
  -7   2  -7  239.48   37.73
   7  -2   8  344.89   50.02
   7  -2   8  299.12   26.54
  -7   2  -8  305.16   26.84
   7  -1  -9    0.84   19.06
  -7   1   9   26.81   20.42
   7  -1  -8  234.20   22.21
  -7   1   8  319.58   37.04
   7  -1  -7  474.23   38.12
  -7   1   7  527.28   39.50
   7  -1  -6   33.29   31.12
  -7   1   6   77.88   31.71
   7  -1  -5   84.88   20.10
  -7   1   5  156.50   33.30
   7  -1  -4  767.08   27.87
  -7   1   4  787.12   29.00
   7  -1  -3  308.35   34.76
  -7   1   3  271.05   22.97
   7  -1  -2 1329.60   52.13
  -7   1   2 1292.82   35.67
   7  -1  -1  150.56   34.97
  -7   1   1  217.58   34.62
   7  -1   0  962.63   46.61
  -7   1   0  955.32   30.80
   7  -1   1   73.26   19.88
  -7   1  -1   18.93   19.20
   7  -1   2 1984.44   46.60
  -7   1  -2 1993.23   46.07
   7  -1   3   50.80   19.43
  -7   1  -3   56.25   31.84
   7  -1   4 1283.04   36.24
   7  -1   4 1260.24   51.13
  -7   1  -4 1140.07   50.73
   7  -1   5   37.41   21.39
   7  -1   5   70.78   30.19
  -7   1  -5   23.15   19.48
   7  -1   6  149.67   38.28
   7  -1   6  130.12   31.45
  -7   1  -6   42.49   32.75
   7  -1   7   26.83   23.88
   7  -1   7   -1.05   30.56
  -7   1  -7  -18.19   19.20
   7  -1   8    0.12   24.83
   7  -1   8   60.40   32.11
  -7   1  -8   15.46   19.10
   7  -1   9  507.23   33.67
   7  -1   9  465.32   26.74
  -7   1  -9  483.12   41.56
   7   0  -9   85.14   33.26
  -7   0   9  101.73   33.35
   7   0  -8  178.68   33.00
  -7   0   8  169.66   21.32
   7   0  -7   24.35   19.54
  -7   0   7   58.90   19.40
   7   0  -6  984.67   30.35
  -7   0   6  943.61   45.99
   7   0  -5  647.75   39.36
  -7   0   5  639.35   26.36
   7   0  -4  722.98   41.60
  -7   0   4  753.19   27.34
   7   0  -3   12.77   18.68
  -7   0   3   58.55   29.74
   7   0  -2 2026.07   45.46
  -7   0   2 2030.09   45.60
   7   0  -1   23.12   18.26
  -7   0   1   -2.72   30.49
   7   0   0   43.35   17.80
  -7   0   0   71.47   18.91
   7   0   1 1801.76   41.73
  -7   0  -1 1877.25   43.23
   7   0   2 3062.87   83.46
  -7   0  -2 3017.21   61.83
   7   0   3   48.45   18.60
  -7   0  -3   70.90   29.61
   7   0   4   13.23   29.25
   7   0   4   15.36   28.29
  -7   0  -4    3.59   17.15
   7   0   5   72.75   31.31
   7   0   5   80.81   29.22
  -7   0  -5   15.69   28.86
   7   0   6   34.02   20.74
   7   0   6   16.91   17.60
  -7   0  -6   44.21   17.46
   7   0   7   83.98   36.40
   7   0   7   21.52   28.59
  -7   0  -7   72.77   28.69
   7   0   8   61.76   23.70
   7   0   8   25.25   29.12
  -7   0  -8   31.93   28.69
   7   0   9  169.73   45.69
   7   0   9  196.15   19.91
  -7   0  -9  176.00   30.87
   7   0  10  787.17   38.33
   7   0  10  727.74   41.67
  -7   0 -10  760.08   28.56
   7   1  -9    6.24   18.32
   7   1  -9   14.52   20.64
  -7  -1   9    1.21   20.27
   7   1  -8  150.38   21.84
  -7  -1   8  192.63   34.54
   7   1  -7   55.26   31.66
  -7  -1   7   59.13   19.31
   7   1  -6  153.96   19.74
  -7  -1   6   96.48   20.50
   7   1  -5  179.47   32.27
  -7  -1   5  159.48   20.87
   7   1  -4  312.73   21.35
  -7  -1   4  246.87   21.78
   7   1  -3 3084.45   62.51
  -7  -1   3 3254.79   85.39
   7   1  -2 1322.72   49.75
  -7  -1   2 1295.23   34.60
   7   1  -1   54.91   29.90
  -7  -1   1   24.79   30.18
   7   1   0  118.82   29.44
  -7  -1   0  107.60   19.33
   7   1   1 6054.89  126.20
  -7  -1  -1 6173.35  126.22
   7   1   2  611.42   24.42
  -7  -1  -2  626.67   24.30
   7   1   3  162.53   29.45
  -7  -1  -3  208.20   29.97
   7   1   4   74.14   26.36
   7   1   4   40.83   16.33
  -7  -1  -4   59.61   17.04
   7   1   5  107.49   18.00
   7   1   5  127.71   16.70
  -7  -1  -5  136.27   28.08
   7   1   6   67.76   19.63
   7   1   6   86.31   25.89
  -7  -1  -6  114.12   16.57
   7   1   7  199.07   34.67
   7   1   7  136.60   26.49
  -7  -1  -7  168.42   17.63
   7   1   8  230.52   24.46
   7   1   8  245.18   17.26
  -7  -1  -8  223.21   18.67
   7   1   9  277.43   27.33
   7   1   9  189.73   26.75
  -7  -1  -9  208.34   29.47
   7   1  10  303.37   50.04
   7   1  10  355.40   19.89
  -7  -1 -10  403.25   30.73
   7   2  -9   72.95   26.28
  -7  -2   9   53.69   35.18
   7   2  -8    7.82   23.64
   7   2  -8    6.05   33.90
  -7  -2   8   40.32   20.03
   7   2  -7    5.62   19.33
  -7  -2   7   -3.32   32.44
   7   2  -6   91.01   33.17
  -7  -2   6   80.04   33.01
   7   2  -5  -35.68   19.24
  -7  -2   5  -11.02   32.05
   7   2  -4  294.25   21.60
  -7  -2   4  313.79   36.33
   7   2  -3 4898.23  129.04
  -7  -2   3 4840.12  127.17
   7   2  -2   83.30   30.15
  -7  -2   2   93.79   19.04
   7   2  -1 2641.72   73.48
  -7  -2   1 2660.98   78.39
   7   2   0 2061.84   65.26
  -7  -2   0 2406.11   48.77
   7   2   1  206.03   31.07
  -7  -2  -1  179.09   19.16
   7   2   2  -18.74   16.70
  -7  -2  -2   24.51   17.25
   7   2   3 4363.97   80.16
   7   2   3 4658.80  112.27
  -7  -2  -3 4583.14  109.74
   7   2   4  191.45   25.09
   7   2   4  193.53   17.38
  -7  -2  -4  188.32   17.39
   7   2   5  903.38   38.36
   7   2   5  925.28   37.43
  -7  -2  -5  941.86   38.21
   7   2   6  242.16   19.48
   7   2   6  213.81   27.14
  -7  -2  -6  246.26   17.69
   7   2   7  761.74   42.26
   7   2   7  772.91   34.38
  -7  -2  -7  801.00   23.38
   7   2   8   98.90   21.73
   7   2   8   71.27   15.18
  -7  -2  -8   54.35   25.08
   7   2   9  136.84   24.10
   7   2   9  198.18   26.63
  -7  -2  -9  198.83   26.78
   7   2  10  883.81   57.62
   7   2  10  958.29   26.55
  -7  -2 -10  855.66   36.93
   7   2  11  237.84   49.45
   7   3  -8   14.50   12.50
  -7  -3   8   45.63   21.82
   7   3  -7   93.06   12.51
  -7  -3   7  117.07   35.88
   7   3  -6   76.76   18.55
   7   3  -6  109.01   22.10
  -7  -3   6  121.13   34.92
   7   3  -5  142.98   21.71
  -7  -3   5  201.54   22.50
   7   3  -4   96.41   33.54
  -7  -3   4   76.59   20.95
   7   3  -3  443.91   38.05
  -7  -3   3  378.95   24.90
   7   3  -2  103.94   30.48
  -7  -3   2   66.31   32.70
   7   3  -1 2119.28   65.95
  -7  -3   1 2003.51   46.15
   7   3   0  313.00   32.76
  -7  -3   0  359.44   35.42
   7   3   1  742.31   24.77
  -7  -3  -1  678.66   25.71
   7   3   2  302.34   13.35
   7   3   2  309.17   19.37
  -7  -3  -2  317.70   19.90
   7   3   3  644.11   26.78
  -7  -3  -3  720.20   24.05
   7   3   4 1257.33   37.36
   7   3   4 1227.84   28.65
  -7  -3  -4 1228.89   44.11
   7   3   5   32.73   14.90
   7   3   5   68.55   14.78
  -7  -3  -5   60.74   15.36
   7   3   6 3565.06   84.94
   7   3   6 3338.93   60.44
  -7  -3  -6 3294.18   61.94
   7   3   7  476.75   23.92
   7   3   7  501.49   18.85
  -7  -3  -7  494.60   19.62
   7   3   8   40.45   19.51
   7   3   8   59.76   13.89
  -7  -3  -8   56.56   23.31
   7   3   9  396.41   40.89
   7   3   9  404.47   26.79
  -7  -3  -9  386.47   17.61
   7   3  10   17.12   37.68
   7   3  10   16.83   20.91
  -7  -3 -10  -11.01   22.20
   7   3  11   65.14   41.78
  -7  -4   7   47.78   23.23
   7   4  -6   89.70   14.83
  -7  -4   6  147.24   37.58
   7   4  -5   25.01   13.03
  -7  -4   5   49.73   21.18
   7   4  -4   28.81   21.71
  -7  -4   4   47.24   21.09
   7   4  -3    8.92   20.35
  -7  -4   3   37.57   20.36
   7   4  -2 5806.12  125.21
  -7  -4   2 5473.96  118.53
   7   4  -1    1.56   30.04
  -7  -4   1   14.58   31.41
   7   4   0 1256.33   19.39
   7   4   0 1301.28   51.02
  -7  -4   0 1285.90   35.19
   7   4   1  296.33   11.08
   7   4   1  317.72   21.22
  -7  -4  -1  361.76   34.07
   7   4   2   88.46   16.96
   7   4   2  119.13   17.82
  -7  -4  -2   94.52   29.58
   7   4   3   28.28   17.73
   7   4   3  -14.19   26.10
  -7  -4  -3    6.10   26.83
   7   4   4 2316.55   39.65
   7   4   4 2401.23   62.62
  -7  -4  -4 2314.74   61.24
   7   4   5  100.81   13.91
   7   4   5  120.92   15.78
  -7  -4  -5   67.71   16.26
   7   4   6   72.50   25.60
   7   4   6  102.05   14.95
  -7  -4  -6   59.03   15.25
   7   4   7  -14.55   26.95
   7   4   7   69.31   22.83
  -7  -4  -7    2.43   22.76
   7   4   8   93.43   19.21
   7   4   8   91.46   21.81
  -7  -4  -8   93.53   14.15
   7   4   9  -24.45   20.61
   7   4   9    9.76   19.96
  -7  -4  -9  -10.01   21.63
   7   4  10  754.28   32.76
   7   4  10  762.60   29.55
  -7  -4 -10  796.76   31.52
   7   4  11  103.11   25.47
  -7  -5   6   24.18   24.01
  -7  -5   5  136.68   39.59
  -7  -5   4  -19.55   37.76
   7   5  -3   84.82    6.17
  -7  -5   3  159.86   38.20
   7   5  -2  385.33   26.14
  -7  -5   2  348.67   41.55
   7   5  -1 1534.28   42.30
  -7  -5   1 1437.48   60.16
   7   5   0 3365.86   48.06
   7   5   0 3384.69   93.73
  -7  -5   0 3426.43   73.13
   7   5   1  100.33   11.57
   7   5   1  112.44   19.50
  -7  -5  -1   80.36   32.75
   7   5   2  875.01   15.16
   7   5   2  957.16   29.36
  -7  -5  -2  833.89   28.09
   7   5   3  845.42   16.91
   7   5   3  851.29   27.05
  -7  -5  -3  783.34   26.91
   7   5   4   71.48   11.24
   7   5   4   81.78   27.13
  -7  -5  -4  132.89   16.99
   7   5   5  479.03   16.04
   7   5   5  457.35   29.34
  -7  -5  -5  468.03   31.28
   7   5   6  367.14   16.92
   7   5   6  373.09   26.95
  -7  -5  -6  356.19   18.07
   7   5   7  183.25   17.92
   7   5   7  150.90   24.45
  -7  -5  -7  182.43   24.81
   7   5   8   16.42   17.19
   7   5   8   14.45   13.15
  -7  -5  -8   17.00   22.02
   7   5   9  344.97   36.71
   7   5   9  307.33   14.69
  -7  -5  -9  330.40   25.56
   7   5  10  202.76   38.28
  -7  -5 -10  176.75   24.84
   7   5  11  179.80   41.43
  -7  -6   5   35.55   41.47
  -7  -6   4   28.12   24.75
  -7  -6   3  238.81   27.45
  -7  -6   2   18.63   23.76
  -7  -6   1  786.98   33.69
  -7  -6   0 2335.82   55.83
   7   6   2   94.17    9.22
   7   6   2  108.58   20.79
  -7  -6  -2   82.14   20.67
   7   6   3   77.33   12.29
   7   6   3   63.04   19.14
  -7  -6  -3  126.79   19.25
   7   6   4 1273.53   28.33
   7   6   4 1390.83   49.28
  -7  -6  -4 1234.07   47.17
   7   6   5  530.46   23.08
   7   6   5  625.69   34.36
  -7  -6  -5  505.69   22.53
   7   6   6   31.66   12.58
   7   6   6   59.79   25.30
  -7  -6  -6   23.81   16.05
   7   6   7  264.55   26.72
   7   6   7  232.34   16.99
  -7  -6  -7  285.55   28.62
   7   6   8  249.96   19.08
  -7  -6  -8  302.35   27.94
   7   6   9  190.63   20.86
  -7  -6  -9  252.20   17.04
   7   6  10  350.09   39.73
  -7  -6 -10  403.00   17.86
   7   6  11  408.13   28.32
  -7  -7   4  295.02   31.18
  -7  -7   3   50.40   27.67
  -7  -7   2  -31.68   26.08
  -7  -7   1 1492.87   46.29
  -7  -7   0  227.07   27.57
  -7  -7  -1 1125.98   38.67
  -7  -7  -2   17.54   35.36
  -7  -7  -3   95.61   21.39
  -7  -7  -4   43.08   19.40
  -7  -7  -5   21.61   17.73
   7   7   6  522.09   15.96
  -7  -7  -6  544.03   22.31
   7   7   7   13.35   13.12
  -7  -7  -7  -18.18   26.31
   7   7   8  193.25   17.40
  -7  -7  -8  268.81   18.26
  -7  -7  -9 1291.62   30.07
  -7  -7 -10  299.21   27.05
  -7  -8   2   38.79   29.12
  -7  -8   2  -12.42   27.11
  -7  -8   1   34.74   27.64
  -7  -8   0  139.63   28.68
  -7  -8  -1  108.51   26.89
  -7  -8  -2  759.63   53.20
  -7  -8  -3  525.96   29.85
  -7  -8  -4  155.74   37.34
  -7  -8  -5  581.40   27.48
  -7  -8  -6  173.53   20.91
  -7  -8  -7   18.13   28.53
  -7  -8  -8 1496.80   36.45
  -7  -8  -9  284.59   30.83
  -7  -8  -9  303.17   27.36
  -7  -8 -10  186.53   17.46
  -7  -8 -10  209.72   25.17
  -7  -9   0   -6.99   29.53
  -7  -9   0   -7.32   28.52
  -7  -9  -1  -48.21   44.31
  -7  -9  -1   16.75   26.48
  -7  -9  -2   -5.47   43.41
  -7  -9  -2   22.72   42.08
  -7  -9  -3   14.55   24.51
  -7  -9  -3  -44.75   38.13
  -7  -9  -4 1397.61   67.43
  -7  -9  -4 1434.88   63.81
  -7  -9  -5   27.67   22.88
  -7  -9  -5   12.11   34.33
  -7  -9  -6  379.92   26.02
  -7  -9  -6  377.54   40.48
  -7  -9  -7  945.17   32.60
  -7  -9  -7  968.31   32.08
  -7  -9  -8   81.50   19.53
  -7  -9  -8  130.83   30.33
   8  -4  -5  264.99   48.57
  -8   4   5  250.59   29.17
   8  -4  -4  439.52   52.90
  -8   4   4  409.02   32.51
   8  -4  -3   52.15   44.52
  -8   4   3   61.30   45.34
   8  -4  -2   57.71   29.36
  -8   4   2  104.50   27.61
   8  -4  -1   22.84   28.49
  -8   4   1   84.71   44.37
   8  -4   0  254.79   50.83
  -8   4   0  230.64   31.45
   8  -4   1   65.47   30.53
  -8   4  -1   83.30   45.79
   8  -4   2   14.42   30.40
  -8   4  -2   42.93   45.17
   8  -3  -7  -13.07   40.39
  -8   3   7   82.29   40.14
   8  -3  -6  167.03   26.77
  -8   3   6  201.71   43.03
   8  -3  -5  383.11   29.12
  -8   3   5  324.40   46.71
   8  -3  -4  194.60   27.82
  -8   3   4  239.32   44.01
   8  -3  -3  256.27   28.72
  -8   3   3  255.37   28.37
   8  -3  -2  820.13   37.24
  -8   3   2  806.10   57.38
   8  -3  -1  670.74   54.33
  -8   3   1  606.25   34.05
   8  -3   0    5.83   26.56
  -8   3   0   26.90   42.12
   8  -3   1    1.70   25.82
  -8   3  -1  -65.14   42.04
   8  -3   2    5.06   26.19
  -8   3  -2   17.90   25.57
   8  -3   3   48.70   44.21
  -8   3  -3   49.51   26.14
   8  -3   4  691.97   58.17
   8  -3   4  609.61   58.77
  -8   3  -4  618.31   35.55
   8  -2  -7  278.34   42.85
  -8   2   7  277.87   26.96
   8  -2  -6  431.92   28.41
  -8   2   6  393.06   28.30
   8  -2  -5    5.27   36.89
  -8   2   5   30.62   23.14
   8  -2  -4  194.96   40.40
  -8   2   4  235.40   25.68
   8  -2  -3   23.50   38.15
  -8   2   3   66.52   37.76
   8  -2  -2 1201.22   62.74
  -8   2   2 1253.83   41.65
   8  -2  -1  666.35   33.26
  -8   2   1  726.01   52.46
   8  -2   0  103.03   24.95
  -8   2   0  -18.28   40.84
  -8   2  -1  295.63   28.36
   8  -2   2  -23.34   24.38
  -8   2  -2   61.68   23.67
   8  -2   3  274.27   28.60
  -8   2  -3  317.24   28.02
   8  -2   4 1225.24   66.13
   8  -2   4 1201.06   64.26
  -8   2  -4 1238.83   41.15
   8  -2   5  152.71   28.07
   8  -2   5  179.56   40.50
  -8   2  -5  145.70   26.00
   8  -2   6   73.96   43.25
   8  -2   6  -12.55   38.71
  -8   2  -6   41.51   38.97
   8  -1  -8   42.17   23.07
  -8   1   8   52.38   37.91
  -8   1   7  308.98   43.76
   8  -1  -6  119.22   23.36
  -8   1   6  143.66   39.08
   8  -1  -5  109.83   36.92
  -8   1   5   69.08   38.09
   8  -1  -4   39.69   36.50
  -8   1   4   92.10   37.37
   8  -1  -3  196.44   37.85
  -8   1   3  145.98   24.24
   8  -1  -2 1136.69   55.61
  -8   1   2 1107.10   57.05
   8  -1  -1 1840.06   67.62
  -8   1   1 1770.53   47.89
   8  -1   0 1416.00   41.59
  -8   1   0 1418.78   42.31
   8  -1   1   99.60   23.10
  -8   1  -1   51.48   37.27
   8  -1   2   81.66   37.10
  -8   1  -2   29.69   36.67
   8  -1   3   86.79   23.69
  -8   1  -3   72.81   37.65
   8  -1   4  197.24   41.62
   8  -1   4  180.28   24.78
  -8   1  -4  222.96   38.94
   8  -1   5   60.76   24.18
   8  -1   5   32.36   22.41
  -8   1  -5   70.72   22.61
   8  -1   6  507.93   49.90
   8  -1   6  416.00   28.10
  -8   1  -6  385.46   43.35
   8  -1   7  172.67   28.77
   8  -1   7  175.36   24.71
  -8   1  -7  116.11   23.82
   8   0  -8  105.96   37.10
  -8   0   8   11.90   37.78
   8   0  -7    7.00   38.47
  -8   0   7  111.49   23.48
   8   0  -6    7.94   21.08
  -8   0   6  -21.95   22.33
   8   0  -5   70.90   21.88
  -8   0   5  116.06   23.26
   8   0  -4   -5.89   34.81
  -8   0   4  -41.95   21.95
   8   0  -3  307.26   40.13
  -8   0   3  337.39   41.21
   8   0  -2  298.09   39.37
  -8   0   2  256.95   24.84
   8   0  -1   76.75   34.88
  -8   0   1   35.05   35.25
   8   0   0 1257.85   37.51
  -8   0   0 1214.94   38.20
   8   0   1    7.90   20.37
  -8   0  -1    1.09   21.22
   8   0   2  465.00   41.27
  -8   0  -2  460.40   26.52
   8   0   3   72.08   21.23
  -8   0  -3   -9.64   21.03
   8   0   4    4.79   20.57
   8   0   4   -9.92   20.27
  -8   0  -4   45.66   20.32
   8   0   5 1198.41   57.29
   8   0   5 1228.88   54.37
  -8   0  -5 1277.73   56.05
   8   0   6    1.47   23.54
   8   0   6   45.23   32.56
  -8   0  -6   13.46   20.19
   8   0   7  145.48   42.03
   8   0   7   77.07   34.16
  -8   0  -7   89.80   34.26
   8   0   8  891.03   39.16
   8   0   8  850.67   31.99
  -8   0  -8  835.18   48.53
   8   1  -8  163.83   40.12
  -8  -1   8  106.90   24.03
   8   1  -7   29.76   22.25
  -8  -1   7  -17.80   36.53
   8   1  -6  158.21   36.83
  -8  -1   6  147.70   37.99
   8   1  -5   42.86   21.18
  -8  -1   5    7.55   36.00
  -8  -1   5  -17.74   36.04
   8   1  -4  861.07   32.02
  -8  -1   4  831.66   50.39
   8   1  -3  996.61   33.53
  -8  -1   3  957.09   33.85
   8   1  -2  393.96   25.00
  -8  -1   2  368.87   26.05
   8   1  -1 1089.63   35.20
  -8  -1   1 1026.24   33.80
   8   1   0  840.94   31.53
  -8  -1   0  853.58   49.02
   8   1   1   83.53   34.99
  -8  -1  -1  129.29   21.47
   8   1   2  439.40   25.43
  -8  -1  -2  383.46   24.40
   8   1   3   15.76   17.67
   8   1   3   53.78   32.06
  -8  -1  -3    9.90   32.80
   8   1   4  521.07   38.08
   8   1   4  452.11   25.09
  -8  -1  -4  472.10   38.98
   8   1   5  167.13   20.83
   8   1   5  221.43   33.05
  -8  -1  -5  183.00   21.57
   8   1   6  547.17   42.97
   8   1   6  513.72   38.48
  -8  -1  -6  514.55   39.19
   8   1   7  224.60   26.03
   8   1   7  234.08   33.37
  -8  -1  -7  282.95   22.37
   8   1   8  259.24   43.44
   8   1   8  222.73   20.52
  -8  -1  -8  247.13   22.27
   8   1   9  698.44   38.80
   8   1   9  738.10   40.80
  -8  -1  -9  769.15   28.92
   8   2  -7  493.83   46.79
  -8  -2   7  389.22   46.74
   8   2  -6   25.82   22.18
  -8  -2   6   20.67   23.52
   8   2  -5  466.35   44.74
  -8  -2   5  536.66   29.40
   8   2  -4 1496.58   63.94
  -8  -2   4 1441.01   43.48
   8   2  -3  216.42   37.82
  -8  -2   3  181.23   39.42
   8   2  -2  415.10   41.00
  -8  -2   2  419.31   26.67
   8   2  -1  348.84   37.77
  -8  -2   1  294.97   25.00
   8   2   0  226.67   35.42
  -8  -2   0  193.70   23.29
   8   2   1 1045.00   32.98
  -8  -2  -1 1043.14   49.94
   8   2   2  137.93   21.69
  -8  -2  -2  184.79   34.45
   8   2   3   41.94   16.44
   8   2   3   64.24   19.46
  -8  -2  -3   56.28   32.39
   8   2   4  186.77   29.06
   8   2   4  166.43   32.59
  -8  -2  -4  153.62   20.57
   8   2   5  510.54   23.98
   8   2   5  465.72   24.40
  -8  -2  -5  539.55   24.71
   8   2   6 3838.73  106.58
   8   2   6 3770.66   78.98
  -8  -2  -6 3738.59   77.33
   8   2   7 1011.68   34.04
   8   2   7  971.01   29.80
  -8  -2  -7  966.99   45.68
   8   2   8 1171.94   39.38
   8   2   8 1172.47   46.51
  -8  -2  -8 1136.51   48.10
   8   2   9  363.11   47.74
   8   2   9  365.87   33.56
  -8  -2  -9  361.60   33.86
   8   2  10  464.51   34.12
   8   2  10  564.23   38.60
  -8  -2 -10  530.91   24.42
   8   3  -7   56.85   22.04
   8   3  -7  107.83   40.98
  -8  -3   7  142.96   40.33
   8   3  -6   43.79   37.15
  -8  -3   6   44.73   24.20
   8   3  -5  316.80   27.37
  -8  -3   5  356.65   27.56
   8   3  -4   14.20   22.19
  -8  -3   4   35.54   23.09
   8   3  -3 2309.76   56.43
  -8  -3   3 2251.33   57.11
   8   3  -2 1046.42   34.63
  -8  -3   2 1096.57   56.52
   8   3  -1   57.66   21.38
  -8  -3   1   33.69   21.82
   8   3   0  134.97   21.88
  -8  -3   0  196.22   36.57
   8   3   1  429.69   39.12
  -8  -3  -1  412.18   26.15
   8   3   2   16.73   21.33
   8   3   2   40.68   19.38
  -8  -3  -2   37.03   19.67
   8   3   3  741.00   33.20
   8   3   3  780.35   42.87
  -8  -3  -3  833.78   28.90
   8   3   4  812.95   24.55
   8   3   4  853.53   27.44
  -8  -3  -4  877.63   28.32
   8   3   5  769.96   37.50
   8   3   5  728.90   25.93
  -8  -3  -5  704.12   40.75
   8   3   6   70.34   18.35
   8   3   6   80.62   16.97
  -8  -3  -6   58.59   17.83
   8   3   7  494.91   25.68
   8   3   7  575.81   22.60
  -8  -3  -7  553.47   36.31
   8   3   8  318.93   40.76
   8   3   8  298.74   20.05
  -8  -3  -8  311.63   32.01
   8   3   9  874.31   51.96
  -8  -3  -9  824.25   26.84
   8   3  10  809.00   38.10
   8   3  10  869.33   27.74
  -8  -3 -10  891.18   40.75
  -8  -4   6  341.48   47.39
   8   4  -5  100.48   16.31
   8   4  -5  182.77   41.31
  -8  -4   5   91.67   41.98
   8   4  -4  820.63   51.40
  -8  -4   4  758.72   34.96
   8   4  -3  182.15   40.71
  -8  -4   3  139.38   25.28
   8   4  -2  602.30   46.97
  -8  -4   2  507.82   47.92
   8   4  -1  221.94   38.29
  -8  -4   1  164.70   40.89
   8   4   0  932.27   33.55
  -8  -4   0  920.71   33.89
   8   4   1  647.28   25.09
   8   4   1  614.40   27.52
  -8  -4  -1  654.71   45.03
   8   4   2  544.41   17.00
   8   4   2  581.32   40.01
  -8  -4  -2  563.69   42.29
   8   4   3  193.86   23.38
   8   4   3  209.55   21.91
  -8  -4  -3  255.74   33.81
   8   4   4  173.63   15.48
   8   4   4  195.55   20.04
  -8  -4  -4  210.62   33.44
   8   4   5   14.67   25.08
   8   4   5   54.87   28.15
  -8  -4  -5   11.82   29.10
   8   4   6  282.06   31.32
   8   4   6  277.68   31.84
  -8  -4  -6  272.16   20.15
   8   4   7  151.89   19.88
   8   4   7  192.89   29.49
  -8  -4  -7  159.35   18.16
   8   4   8  972.08   32.95
   8   4   8 1007.78   28.90
  -8  -4  -8  940.43   28.57
   8   4   9  986.27   35.23
   8   4   9  932.35   39.32
  -8  -4  -9  893.53   27.18
   8   4  10   -8.93   25.43
   8   4  10   32.39   24.74
  -8  -4 -10   19.93   26.41
  -8  -5   5   48.59   26.08
  -8  -5   4  183.66   45.09
   8   5  -3  581.23   33.53
  -8  -5   3  595.26   52.32
   8   5  -2   -0.41   10.81
   8   5  -2    4.88   23.31
  -8  -5   2  -36.50   39.59
   8   5  -1 3980.17   67.30
   8   5  -1 4090.16   94.13
  -8  -5   1 4217.51   96.64
   8   5   0    9.57    8.33
   8   5   0   57.39   35.30
  -8  -5   0    6.33   22.77
   8   5   1   18.77   15.11
   8   5   1   39.67   21.44
  -8  -5  -1   52.00   35.60
   8   5   2 1676.86   37.30
   8   5   2 1677.42   62.54
  -8  -5  -2 1659.03   43.44
   8   5   3  218.68   20.58
   8   5   3  192.47   21.39
  -8  -5  -3  239.80   22.43
   8   5   4   69.92   22.07
   8   5   4   75.60   18.46
  -8  -5  -4   74.35   19.64
   8   5   5   -7.25   14.16
   8   5   5   29.55   27.36
  -8  -5  -5   39.50   17.56
   8   5   6   86.89   16.36
   8   5   6   58.36   27.52
  -8  -5  -6   78.53   29.22
   8   5   7   79.79   18.41
   8   5   7  112.22   26.85
  -8  -5  -7   82.40   17.64
   8   5   8   65.91   31.62
   8   5   8    7.80   15.40
  -8  -5  -8  -24.59   16.29
   8   5   9  257.14   40.41
   8   5   9  379.86   29.98
  -8  -5  -9  362.13   32.81
   8   5  10   78.21   24.11
  -8  -5 -10   91.66   28.16
  -8  -6   4   14.19   27.56
  -8  -6   3  314.06   30.84
  -8  -6   2 2342.72   64.68
  -8  -6   1  481.43   32.63
   8   6   0  651.24   33.38
  -8  -6   0  731.08   51.40
   8   6   1  238.31   41.56
  -8  -6  -1  150.44   24.40
   8   6   2 1221.84   39.41
  -8  -6  -2 1111.60   55.87
   8   6   3  352.42   18.54
   8   6   3  435.27   25.94
  -8  -6  -3  419.59   25.97
   8   6   4  233.27   20.17
   8   6   4  300.26   35.01
  -8  -6  -4  202.73   22.87
   8   6   5   24.71   12.89
   8   6   5   61.97   29.49
  -8  -6  -5   33.84   19.52
   8   6   6  176.60   24.43
   8   6   6  173.33   30.57
  -8  -6  -6  163.95   20.43
   8   6   7   32.09   25.82
   8   6   7   22.72   27.50
  -8  -6  -7  -36.78   29.51
   8   6   8  864.58   29.04
   8   6   8  881.00   26.88
  -8  -6  -8  807.45   41.97
   8   6   9   40.65   32.81
   8   6   9   15.22   25.57
  -8  -6  -9   28.83   27.30
   8   6  10  223.83   39.44
  -8  -6 -10  180.42   18.80
  -8  -7   3 1388.79   52.28
  -8  -7   2  451.63   34.46
  -8  -7   1  200.66   29.16
  -8  -7   0  852.85   38.89
  -8  -7  -1   73.26   41.46
  -8  -7  -2  242.91   26.44
  -8  -7  -3  418.16   43.59
   8   7   4   91.73   14.39
  -8  -7  -4  125.24   21.80
   8   7   5  208.77   19.24
  -8  -7  -5  250.53   23.40
   8   7   6  114.80   21.28
  -8  -7  -6   84.38   21.06
   8   7   7  168.37   25.26
  -8  -7  -7  159.32   33.28
   8   7   8  481.71   33.65
  -8  -7  -8  451.11   23.49
   8   7   9   50.17   18.68
  -8  -7  -9   46.19   17.61
  -8  -8   1  363.36   35.97
  -8  -8   0  -10.00   28.90
  -8  -8  -1  200.74   47.88
  -8  -8  -2  191.51   46.35
  -8  -8  -3   27.54   24.76
  -8  -8  -4  797.46   52.32
  -8  -8  -5   18.83   35.90
  -8  -8  -6  760.19   46.67
  -8  -8  -7  232.35   36.25
  -8  -8  -8    6.76   19.08
  -8  -9  -3  540.04   35.70
  -8  -9  -4   25.62   41.95
  -8  -9  -5   -7.68   24.31
  -8  -9  -6   16.08   23.08
   9  -3  -2   98.75   49.16
  -9   3   2  115.64   29.67
   9  -3  -1  329.29   34.33
  -9   3   1  337.74   53.18
   9  -3   0   12.01   29.57
  -9   3   0   -8.26   29.69
   9  -2  -5    4.03   42.86
  -9   2   5   19.58   26.70
   9  -2  -4   -9.88   41.77
  -9   2   4   30.59   26.74
   9  -2  -3  106.07   44.71
  -9   2   3   53.11   27.37
   9  -2  -2   83.73   28.07
  -9   2   2  125.28   45.77
   9  -2  -1   91.56   29.13
  -9   2   1  125.08   28.80
   9  -2   0  364.25   52.14
  -9   2   0  294.50   32.85
   9  -2   1  -20.65   28.44
  -9   2  -1   10.43   45.05
   9  -2   2  137.66   47.16
  -9   2  -2   36.17   27.63
   9  -2   3  189.50   31.46
  -9   2  -3  245.55   30.33
   9  -1  -6  221.59   45.81
   9  -1  -5  143.67   44.65
  -9   1   5  178.44   45.05
   9  -1  -4   34.32   42.03
  -9   1   4   61.38   42.55
   9  -1  -3  190.95   44.72
  -9   1   3  151.10   27.84
   9  -1  -2  104.85   41.71
  -9   1   2   35.20   43.41
   9  -1  -1  333.27   47.08
  -9   1   1  273.77   29.62
   9  -1   0  204.99   28.31
  -9   1   0  276.67   46.12
   9  -1   1  279.09   48.08
  -9   1  -1  255.96   29.01
   9  -1   2  644.14   34.54
  -9   1  -2  557.24   34.38
   9  -1   3   89.73   43.81
  -9   1  -3   71.92   26.03
   9  -1   4   79.22   26.51
   9  -1   4  148.97   42.92
  -9   1  -4   83.19   25.92
   9  -1   5  -36.05   26.74
   9  -1   5   13.28   25.23
  -9   1  -5   -1.06   25.33
   9   0  -6  302.87   48.15
  -9   0   6  415.02   30.99
   9   0  -5   79.63   40.81
  -9   0   5   63.00   25.83
   9   0  -4  149.76   25.59
  -9   0   4   79.10   43.29
   9   0  -3  464.02   30.72
  -9   0   3  401.26   49.80
   9   0  -2  169.56   27.23
  -9   0   2  172.87   27.38
   9   0  -1   36.75   39.71
  -9   0   1  -26.27   41.60
   9   0   0   88.96   26.43
  -9   0   0   86.22   25.78
   9   0   1   85.34   26.30
  -9   0  -1  151.06   25.94
   9   0   2  804.24   55.24
  -9   0  -2  681.73   53.62
   9   0   3  451.94   30.38
  -9   0  -3  421.13   47.06
   9   0   4  455.98   30.08
   9   0   4  438.35   29.19
  -9   0  -4  406.76   46.61
   9   0   5   -1.82   38.79
   9   0   5   40.85   22.94
  -9   0  -5   -1.40   23.95
   9   0   6  399.29   32.84
   9   0   6  363.84   27.87
  -9   0  -6  410.94   29.03
   9   1  -6  242.52   44.15
  -9  -1   6  195.63   28.51
   9   1  -5  485.32   50.00
  -9  -1   5  477.54   32.52
   9   1  -4 1585.16   47.71
  -9  -1   4 1603.59   50.00
   9   1  -3  467.25   30.05
  -9  -1   3  504.48   31.76
   9   1  -2   66.19   40.32
  -9  -1   2   90.72   41.79
   9   1  -1   47.98   39.99
  -9  -1   1    5.57   25.01
   9   1   0  281.53   27.23
  -9  -1   0  238.28   43.67
   9   1   1   14.55   23.72
  -9  -1  -1  -41.35   38.75
   9   1   2   48.71   37.94
  -9  -1  -2  -30.44   23.89
   9   1   3  646.43   29.17
   9   1   3  693.79   32.24
  -9  -1  -3  610.77   31.94
   9   1   4   61.75   35.93
   9   1   4   44.00   22.95
  -9  -1  -4   44.18   38.13
   9   1   5 1484.09   45.74
   9   1   5 1606.74   67.06
  -9  -1  -5 1632.62   66.11
   9   1   6  163.56   41.72
   9   1   6  136.22   38.16
  -9  -1  -6  141.21   24.37
   9   1   7   83.72   25.93
   9   1   7   32.92   35.63
  -9  -1  -7   48.37   37.30
   9   2  -6   69.32   25.87
  -9  -2   6   79.59   27.04
   9   2  -5  161.70   43.38
  -9  -2   5   90.24   26.98
   9   2  -4  185.67   44.72
  -9  -2   4  151.16   28.29
   9   2  -3   34.32   39.82
  -9  -2   3   67.89   26.09
   9   2  -2  228.91   43.87
  -9  -2   2  276.51   46.05
   9   2  -1  438.49   45.21
  -9  -2   1  377.12   30.22
   9   2   0  206.08   25.65
  -9  -2   0  167.34   42.43
   9   2   1   55.22   24.32
  -9  -2  -1   66.72   23.85
   9   2   2   59.00   23.98
  -9  -2  -2  101.69   23.34
   9   2   3  468.29   24.38
   9   2   3  486.32   46.59
  -9  -2  -3  495.52   28.38
   9   2   4 2385.84   74.24
   9   2   4 2312.91   58.10
  -9  -2  -4 2387.17   58.32
   9   2   5  919.65   34.02
   9   2   5  969.11   34.39
  -9  -2  -5  939.73   34.81
   9   2   6   72.41   36.10
   9   2   6  -11.23   34.44
  -9  -2  -6   76.45   34.96
   9   2   7  119.42   40.86
   9   2   7  185.00   22.30
  -9  -2  -7  151.93   23.05
   9   2   8  110.91   27.32
   9   2   8  197.30   21.97
  -9  -2  -8  185.87   37.36
   9   3  -5    5.04   25.27
  -9  -3   5  -16.66   27.30
   9   3  -4    9.76   24.22
  -9  -3   4  -19.76   26.90
   9   3  -3  326.74   29.19
  -9  -3   3  250.06   29.87
   9   3  -2  -16.42   24.39
  -9  -3   2    7.21   25.63
   9   3  -1  476.80   31.65
  -9  -3   1  409.53   50.09
   9   3   0 1057.72   37.64
  -9  -3   0 1078.23   40.09
   9   3   1  489.96   46.48
  -9  -3  -1  566.14   49.23
   9   3   2  164.39   17.01
   9   3   2  156.70   24.26
  -9  -3  -2  208.67   39.72
   9   3   3  463.93   33.05
   9   3   3  490.13   43.63
  -9  -3  -3  562.13   43.89
   9   3   4  553.10   24.46
   9   3   4  559.71   43.15
  -9  -3  -4  603.98   44.37
   9   3   5  767.77   28.42
   9   3   5  783.25   30.54
  -9  -3  -5  823.75   46.64
   9   3   6  237.23   36.56
   9   3   6  202.91   22.06
  -9  -3  -6  211.59   23.33
   9   3   7  497.80   44.81
   9   3   7  517.33   25.61
  -9  -3  -7  547.37   42.40
   9   3   8  344.76   29.10
   9   3   8  393.20   36.78
  -9  -3  -8  317.77   38.20
   9   4  -5   -2.49   27.19
   9   4  -4  116.46   28.23
  -9  -4   4  188.19   29.08
   9   4  -3  364.66   31.09
  -9  -4   3  336.13   31.69
   9   4  -2  110.59   25.42
  -9  -4   2  113.33   27.97
   9   4  -1   83.76   42.83
  -9  -4   1   69.78   42.42
   9   4   0   41.53   12.95
   9   4   0   43.57   40.75
  -9  -4   0  -27.25   25.14
   9   4   1  203.52   23.84
   9   4   1  234.13   25.50
  -9  -4  -1  200.47   43.71
   9   4   2  122.82   15.42
   9   4   2  140.28   41.36
  -9  -4  -2  144.84   25.30
   9   4   3  102.79   25.34
   9   4   3   46.70   22.87
  -9  -4  -3   35.10   22.42
   9   4   4   -1.77   26.70
   9   4   4   11.97   20.88
  -9  -4  -4   13.90   21.37
   9   4   5  187.28   19.67
   9   4   5  219.88   36.21
  -9  -4  -5  161.76   22.53
   9   4   6 1989.36   48.14
   9   4   6 2062.37   71.10
  -9  -4  -6 1968.74   69.81
   9   4   7   63.79   21.98
   9   4   7   73.60   33.16
  -9  -4  -7   82.39   20.35
   9   4   8  739.43   50.16
   9   4   8  816.37   30.02
  -9  -4  -8  725.06   29.83
   9   4   9   34.98   39.82
   9   4   9   61.34   32.83
  -9  -4  -9   65.35   32.52
   9   5  -4   65.98   29.06
  -9  -5   4  -42.14   47.76
   9   5  -3  635.39   59.78
  -9  -5   3  648.16   59.82
   9   5  -2 1371.90   71.07
  -9  -5   2 1299.17   76.05
   9   5  -1   39.00   16.45
   9   5  -1   24.45   26.54
  -9  -5   1   12.40   27.43
   9   5   0 2702.96   57.65
   9   5   0 2844.32   74.59
  -9  -5   0 2727.35   73.02
   9   5   1  330.25   23.45
   9   5   1  350.64   45.92
  -9  -5  -1  431.76   46.85
   9   5   2   77.75   13.54
   9   5   2   67.11   24.09
  -9  -5  -2   97.73   24.69
   9   5   3   11.80   13.97
   9   5   3    2.86   34.85
  -9  -5  -3   14.87   22.17
   9   5   4   53.26   15.42
   9   5   4   -7.95   34.98
  -9  -5  -4   57.11   22.40
   9   5   5  216.20   19.42
   9   5   5  237.46   22.49
  -9  -5  -5  159.84   22.96
   9   5   6 1094.36   31.76
   9   5   6 1086.65   34.57
  -9  -5  -6  978.39   34.39
   9   5   7  755.96   30.48
   9   5   7  871.37   30.31
  -9  -5  -7  788.50   45.96
   9   5   8   32.26   21.98
   9   5   8   39.74   30.18
  -9  -5  -8    2.57   33.59
   9   5   9    5.45   24.37
   9   5   9   41.60   18.44
  -9  -5  -9   54.59   33.66
  -9  -6   2   41.09   29.46
   9   6  -1  123.51   30.28
  -9  -6   1   63.57   48.40
   9   6   0   75.08   45.07
  -9  -6   0   -5.67   43.56
   9   6   1  158.86   28.81
  -9  -6  -1  206.74   28.10
   9   6   2 1134.64   62.52
  -9  -6  -2 1129.13   62.37
   9   6   3  232.15   20.91
   9   6   3  273.17   25.89
  -9  -6  -3  271.55   27.18
   9   6   4  108.54   22.04
   9   6   4  113.98   22.99
  -9  -6  -4  116.35   24.01
   9   6   5  192.77   16.90
   9   6   5  165.16   22.42
  -9  -6  -5  189.86   23.87
   9   6   6  485.41   35.26
   9   6   6  480.90   25.63
  -9  -6  -6  505.58   28.31
   9   6   7  378.92   36.02
   9   6   7  328.90   23.70
  -9  -6  -7  337.37   39.32
   9   6   8  362.50   24.35
   9   6   8  335.32   35.15
  -9  -6  -8  275.42   24.14
  -9  -7   0   54.36   28.17
  -9  -7  -1  256.66   49.75
  -9  -7  -2  133.30   28.50
  -9  -7  -3 1070.15   63.85
  -9  -7  -4   65.69   25.16
   9   7   5   33.41   20.52
   9   7   5   42.82   22.88
  -9  -7  -5   51.50   23.76
   9   7   6  100.22   15.29
  -9  -7  -6  127.50   23.45
   9   7   7 1228.30   45.94
  -9  -7  -7 1244.72   56.85
  -9  -8  -3  699.92   36.88
  -9  -8  -4   21.60   26.17
  -9  -8  -5  -25.43   40.28
  10  -1   0  871.67   44.15
  10   0  -3  312.19   32.63
 -10   0   3  264.27   53.29
  10   0  -2   67.47   29.42
 -10   0   2   80.46   30.33
  10   0  -1    1.70   46.89
 -10   0   1   15.29   46.91
  10   0   0   -0.79   46.84
 -10   0   0   36.01   28.87
  10   0   1 1129.85   46.15
 -10   0  -1 1052.18   70.36
  10   0   2  297.80   50.45
 -10   0  -2  226.56   51.55
  10   0   3   74.42   27.54
  10   0   3   78.31   47.39
 -10   0  -3   18.67   45.02
  10   1  -3  245.36   48.66
 -10  -1   3  190.27   50.46
  10   1  -2    1.03   27.34
 -10  -1   2   46.38   27.79
  10   1  -1  296.25   31.77
 -10  -1   1  306.61   51.64
  10   1   0  100.44   44.91
 -10  -1   0   26.09   28.97
  10   1   1   53.39   28.49
 -10  -1  -1   33.82   46.13
  10   1   2  240.71   49.79
 -10  -1  -2  212.42   30.16
  10   1   3  269.18   45.34
  10   1   3  319.25   31.91
 -10  -1  -3  305.08   30.55
  10   1   4   82.44   25.22
  10   1   4   53.25   26.50
 -10  -1  -4   75.05   26.52
  10   1   5  350.32   50.07
  10   1   5  466.73   48.83
 -10  -1  -5  432.43   32.06
  10   2  -3  237.30   50.64
 -10  -2   3  161.86   51.63
  10   2  -2   60.42   28.26
 -10  -2   2   16.78   28.40
  10   2  -1  104.05   28.31
 -10  -2   1   60.41   28.49
  10   2   0   67.03   45.04
 -10  -2   0   61.28   45.51
  10   2   1  840.21   38.27
 -10  -2  -1  844.48   62.41
  10   2   2   69.67   21.32
  10   2   2   -5.39   43.68
 -10  -2  -2   46.77   26.99
  10   2   3  354.32   40.58
  10   2   3  299.21   31.05
 -10  -2  -3  316.60   30.60
  10   2   4  407.67   26.94
  10   2   4  378.58   47.81
 -10  -2  -4  360.20   31.07
  10   2   5  136.31   25.95
  10   2   5  182.51   42.63
 -10  -2  -5  138.52   27.04
  10   3  -3   -8.38   28.56
 -10  -3   3  -14.92   48.37
  10   3  -2   37.57   28.71
 -10  -3   2  134.85   29.89
  10   3  -1  299.51   32.52
 -10  -3   1  249.76   32.82
  10   3   0  228.21   49.34
 -10  -3   0  204.25   49.54
  10   3   1  101.26   18.49
  10   3   1   57.77   28.27
 -10  -3  -1   80.41   27.48
  10   3   2  746.98   42.34
  10   3   2  797.96   58.09
 -10  -3  -2  791.37   37.07
  10   3   3  221.06   33.79
  10   3   3  228.74   28.89
 -10  -3  -3  234.26   28.04
  10   3   4  340.06   44.80
 -10  -3  -4  272.03   45.84
  10   3   5  113.83   22.88
 -10  -3  -5  126.74   25.71
  10   3   6  863.78   54.49
  10   3   6  911.29   54.28
 -10  -3  -6  895.70   36.85
  10   4  -2    7.42   28.26
 -10  -4   2  -26.36   31.06
  10   4  -1  449.80   34.81
 -10  -4   1  357.03   57.20
  10   4   0  124.72   26.54
  10   4   0  202.19   49.45
 -10  -4   0  224.21   48.52
  10   4   1  413.04   20.40
  10   4   1  458.83   32.59
 -10  -4  -1  395.53   33.68
  10   4   2  130.00   17.69
  10   4   2  125.50   45.10
 -10  -4  -2  117.85   27.38
  10   4   3   44.11   29.12
  10   4   3   48.76   26.52
 -10  -4  -3   13.58   41.47
  10   4   4  183.38   33.53
  10   4   4  220.49   27.42
 -10  -4  -4  170.27   42.95
  10   4   5  429.02   40.17
  10   4   5  473.72   47.57
 -10  -4  -5  484.16   47.44
  10   4   6   42.03   22.19
  10   4   6   20.68   38.16
 -10  -4  -6   61.18   23.44
  10   5  -1  165.09   52.35
 -10  -5   1  179.54   51.92
  10   5   0  636.53   32.36
  10   5   0  781.67   40.82
 -10  -5   0  727.34   40.14
  10   5   1   91.49   25.00
  10   5   1   59.87   28.56
 -10  -5  -1   60.12   46.80
  10   5   2  514.55   33.99
  10   5   2  576.84   34.85
 -10  -5  -2  541.52   36.42
  10   5   3 1098.32   46.75
  10   5   3 1213.84   67.58
 -10  -5  -3 1113.40   65.67
  10   5   4   93.69   31.14
  10   5   4  112.96   26.28
 -10  -5  -4  126.97   43.12
  10   5   5   38.50   33.52
  10   5   5   32.89   23.89
 -10  -5  -5   30.60   38.71
  10   5   6  285.57   39.19
  10   5   6  306.52   27.41
 -10  -5  -6  318.41   43.34
  10   6   1  606.45   61.65
 -10  -6  -1  705.60   40.10
  10   6   2  308.76   31.79
 -10  -6  -2  359.77   53.07
  10   6   3   54.12   14.44
  10   6   3    4.32   26.98
 -10  -6  -3   52.63   27.43
  10   6   4   76.22   26.23
  10   6   4    5.19   41.73
 -10  -6  -4   66.92   43.79
  10   6   5  427.39   34.96
  10   6   5  497.09   48.00
 -10  -6  -5  435.70   49.33
   0   0   0    0.00    0.00
;
_shelx_hkl_checksum              50799
loop_
_space_group_symop_operation_xyz
'x, y, z'
'-x, -y, -z'
loop_
_atom_site_label
_atom_site_type_symbol
_atom_site_fract_x
_atom_site_fract_y
_atom_site_fract_z
_atom_site_U_iso_or_equiv
_atom_site_adp_type
_atom_site_occupancy
_atom_site_site_symmetry_order
_atom_site_calc_flag
_atom_site_refinement_flags_posn
_atom_site_refinement_flags_adp
C1 C 0.5058(2) 0.1689(2) 0.41642(16) 0.0167(3) Uani 1 1 d . .
C2 C 0.6263(2) 0.0181(2) 0.41143(16) 0.0180(4) Uani 1 1 d . .
C3 C 0.6203(2) -0.1539(2) 0.48569(16) 0.0171(3) Uani 1 1 d . .
C4 C 0.5851(2) 0.3520(3) 0.20619(16) 0.0207(4) Uani 1 1 d . .
H4 H 0.6315 0.2478 0.1844 0.025 Uiso 1 1 calc R U
C5 C 0.5988(2) 0.5103(3) 0.12037(17) 0.0227(4) Uani 1 1 d . .
H5 H 0.6584 0.5160 0.0411 0.027 Uiso 1 1 calc R U
C6 C 0.5248(3) 0.6642(3) 0.14940(18) 0.0249(4) Uani 1 1 d . .
H6 H 0.5385 0.7753 0.0928 0.030 Uiso 1 1 calc R U
C7 C 0.4317(2) 0.6521(3) 0.26158(18) 0.0234(4) Uani 1 1 d . .
H7 H 0.3754 0.7573 0.2795 0.028 Uiso 1 1 calc R U
C8 C 0.4172(2) 0.4897(2) 0.35008(16) 0.0182(4) Uani 1 1 d . .
C9 C 0.3072(2) 0.4763(2) 0.46327(16) 0.0182(4) Uani 1 1 d . .
C10 C 0.2239(2) 0.6307(3) 0.49227(17) 0.0217(4) Uani 1 1 d . .
H10 H 0.2455 0.7408 0.4408 0.026 Uiso 1 1 calc R U
C11 C 0.1112(2) 0.6233(3) 0.59495(18) 0.0234(4) Uani 1 1 d . .
H11 H 0.0551 0.7280 0.6137 0.028 Uiso 1 1 calc R U
C12 C 0.0803(2) 0.4625(3) 0.67056(18) 0.0240(4) Uani 1 1 d . .
H12 H 0.0031 0.4576 0.7413 0.029 Uiso 1 1 calc R U
C13 C 0.1605(2) 0.3095(3) 0.64421(17) 0.0224(4) Uani 1 1 d . .
H13 H 0.1371 0.2008 0.6968 0.027 Uiso 1 1 calc R U
C14 C 0.2767(2) 0.3122(2) 0.54020(16) 0.0173(3) Uani 1 1 d . .
S1 S 1.25108(6) 0.14888(6) 0.19530(4) 0.01889(13) Uani 1 1 d . .
F1 F 0.76194(14) 0.03773(15) 0.33347(10) 0.0249(3) Uani 1 1 d . .
F2 F 0.94981(15) 0.2045(2) 0.11057(12) 0.0407(3) Uani 1 1 d . .
F3 F 1.14369(17) 0.2117(2) -0.03526(11) 0.0402(3) Uani 1 1 d . .
O1 O 1.41575(17) 0.07223(18) 0.15204(13) 0.0246(3) Uani 1 1 d . .
F4 F 1.12099(19) -0.03712(18) 0.10314(14) 0.0440(4) Uani 1 1 d . .
O2 O 1.19993(19) 0.04519(19) 0.32071(12) 0.0270(3) Uani 1 1 d . .
O3 O 1.21596(18) 0.33563(18) 0.17305(13) 0.0274(3) Uani 1 1 d . .
N1 N 0.50527(19) 0.3389(2) 0.32424(13) 0.0170(3) Uani 1 1 d . .
C15 C 1.1089(3) 0.1310(3) 0.08778(18) 0.0256(4) Uani 1 1 d . .
loop_
_atom_site_aniso_label
_atom_site_aniso_U_11
_atom_site_aniso_U_22
_atom_site_aniso_U_33
_atom_site_aniso_U_23
_atom_site_aniso_U_13
_atom_site_aniso_U_12
C1 0.0184(8) 0.0192(9) 0.0136(7) -0.0039(6) -0.0009(6) -0.0082(7)
C2 0.0172(8) 0.0246(10) 0.0135(8) -0.0062(7) 0.0028(6) -0.0084(7)
C3 0.0160(8) 0.0206(9) 0.0149(8) -0.0050(6) -0.0015(6) -0.0055(7)
C4 0.0221(9) 0.0246(10) 0.0169(8) -0.0066(7) 0.0018(7) -0.0094(8)
C5 0.0229(10) 0.0287(10) 0.0167(8) -0.0050(7) 0.0016(7) -0.0108(8)
C6 0.0258(10) 0.0230(10) 0.0236(9) -0.0015(7) -0.0005(7) -0.0104(8)
C7 0.0238(10) 0.0210(10) 0.0231(9) -0.0038(7) -0.0010(7) -0.0063(8)
C8 0.0164(9) 0.0206(9) 0.0185(8) -0.0056(7) -0.0029(6) -0.0062(7)
C9 0.0162(8) 0.0210(9) 0.0169(8) -0.0049(7) -0.0037(6) -0.0044(7)
C10 0.0220(9) 0.0209(9) 0.0220(9) -0.0060(7) -0.0033(7) -0.0054(8)
C11 0.0218(9) 0.0239(10) 0.0247(9) -0.0112(7) -0.0042(7) -0.0006(8)
C12 0.0216(10) 0.0303(11) 0.0192(8) -0.0101(7) 0.0021(7) -0.0037(8)
C13 0.0231(10) 0.0256(10) 0.0181(8) -0.0073(7) 0.0031(7) -0.0068(8)
C14 0.0158(8) 0.0219(9) 0.0152(8) -0.0062(6) -0.0013(6) -0.0058(7)
S1 0.0215(2) 0.0194(2) 0.0162(2) -0.00524(16) 0.00071(15) -0.00711(17)
F1 0.0223(6) 0.0242(6) 0.0250(5) -0.0054(4) 0.0106(4) -0.0087(5)
F2 0.0197(6) 0.0589(9) 0.0389(7) -0.0108(6) -0.0002(5) -0.0097(6)
F3 0.0378(8) 0.0646(10) 0.0169(6) -0.0041(6) -0.0018(5) -0.0226(7)
O1 0.0220(7) 0.0251(7) 0.0277(7) -0.0105(5) 0.0005(5) -0.0056(6)
F4 0.0551(9) 0.0365(8) 0.0487(8) -0.0145(6) -0.0204(7) -0.0166(7)
O2 0.0357(8) 0.0280(8) 0.0164(6) -0.0029(5) 0.0005(5) -0.0125(6)
O3 0.0305(8) 0.0220(7) 0.0296(7) -0.0091(6) 0.0055(6) -0.0083(6)
N1 0.0179(7) 0.0198(8) 0.0137(7) -0.0037(6) -0.0002(5) -0.0077(6)
C15 0.0230(10) 0.0314(11) 0.0200(9) -0.0042(7) -0.0010(7) -0.0087(8)
loop_
_atom_type_symbol
_atom_type_description
_atom_type_scat_dispersion_real
_atom_type_scat_dispersion_imag
_atom_type_scat_source
C C 0.0033 0.0016 'International Tables Vol C Tables 4.2.6.8 and 6.1.1.4'
H H 0.0000 0.0000 'International Tables Vol C Tables 4.2.6.8 and 6.1.1.4'
F F 0.0171 0.0103 'International Tables Vol C Tables 4.2.6.8 and 6.1.1.4'
N N 0.0061 0.0033 'International Tables Vol C Tables 4.2.6.8 and 6.1.1.4'
O O 0.0106 0.0060 'International Tables Vol C Tables 4.2.6.8 and 6.1.1.4'
S S 0.1246 0.1234 'International Tables Vol C Tables 4.2.6.8 and 6.1.1.4'
loop_
_geom_angle_atom_site_label_1
_geom_angle_atom_site_label_2
_geom_angle_atom_site_label_3
_geom_angle
_geom_angle_site_symmetry_1
_geom_angle_site_symmetry_3
C2 C1 C3 119.25(16) . 2_656
C2 C1 N1 121.57(16) . .
C3 C1 N1 119.17(16) 2_656 .
F1 C2 C1 118.35(16) . .
F1 C2 C3 117.14(16) . .
C1 C2 C3 124.46(16) . .
C2 C3 C1 115.68(16) . 2_656
C2 C3 C14 124.13(16) . 2_656
C1 C3 C14 119.93(16) 2_656 2_656
C5 C4 N1 121.52(18) . .
C5 C4 H4 119.2 . .
N1 C4 H4 119.2 . .
C4 C5 C6 119.55(18) . .
C4 C5 H5 120.2 . .
C6 C5 H5 120.2 . .
C7 C6 C5 118.64(18) . .
C7 C6 H6 120.7 . .
C5 C6 H6 120.7 . .
C6 C7 C8 121.91(19) . .
C6 C7 H7 119.0 . .
C8 C7 H7 119.0 . .
N1 C8 C7 117.87(17) . .
N1 C8 C9 119.80(16) . .
C7 C8 C9 122.26(17) . .
C10 C9 C14 119.95(17) . .
C10 C9 C8 119.33(17) . .
C14 C9 C8 120.65(16) . .
C11 C10 C9 120.55(18) . .
C11 C10 H10 119.7 . .
C9 C10 H10 119.7 . .
C10 C11 C12 119.72(18) . .
C10 C11 H11 120.1 . .
C12 C11 H11 120.1 . .
C13 C12 C11 120.79(18) . .
C13 C12 H12 119.6 . .
C11 C12 H12 119.6 . .
C12 C13 C14 120.97(18) . .
C12 C13 H13 119.5 . .
C14 C13 H13 119.5 . .
C9 C14 C13 118.02(17) . .
C9 C14 C3 117.55(16) . 2_656
C13 C14 C3 124.16(17) . 2_656
O3 S1 O1 114.70(8) . .
O3 S1 O2 115.22(8) . .
O1 S1 O2 114.48(8) . .
O3 S1 C15 104.18(9) . .
O1 S1 C15 103.52(9) . .
O2 S1 C15 102.50(9) . .
C8 N1 C4 119.80(15) . .
C8 N1 C1 120.16(15) . .
C4 N1 C1 119.93(15) . .
F2 C15 F4 107.62(17) . .
F2 C15 F3 107.25(16) . .
F4 C15 F3 107.91(17) . .
F2 C15 S1 111.49(14) . .
F4 C15 S1 110.97(13) . .
F3 C15 S1 111.40(13) . .
loop_
_geom_bond_atom_site_label_1
_geom_bond_atom_site_label_2
_geom_bond_distance
_geom_bond_site_symmetry_2
C1 C2 1.388(3) .
C1 C3 1.414(2) 2_656
C1 N1 1.430(2) .
C2 F1 1.347(2) .
C2 C3 1.395(2) .
C3 C1 1.414(2) 2_656
C3 C14 1.464(2) 2_656
C4 C5 1.358(3) .
C4 N1 1.379(2) .
C4 H4 0.9500 .
C5 C6 1.391(3) .
C5 H5 0.9500 .
C6 C7 1.373(3) .
C6 H6 0.9500 .
C7 C8 1.396(3) .
C7 H7 0.9500 .
C8 N1 1.376(2) .
C8 C9 1.453(2) .
C9 C10 1.410(3) .
C9 C14 1.411(3) .
C10 C11 1.381(3) .
C10 H10 0.9500 .
C11 C12 1.387(3) .
C11 H11 0.9500 .
C12 C13 1.380(3) .
C12 H12 0.9500 .
C13 C14 1.412(2) .
C13 H13 0.9500 .
C14 C3 1.464(2) 2_656
S1 O3 1.4397(14) .
S1 O1 1.4428(14) .
S1 O2 1.4449(13) .
S1 C15 1.8335(19) .
F2 C15 1.327(2) .
F3 C15 1.331(2) .
F4 C15 1.329(2) .
loop_
_geom_torsion_atom_site_label_1
_geom_torsion_atom_site_label_2
_geom_torsion_atom_site_label_3
_geom_torsion_atom_site_label_4
_geom_torsion
_geom_torsion_site_symmetry_1
_geom_torsion_site_symmetry_4
C3 C1 C2 F1 -168.07(15) 2_656 .
N1 C1 C2 F1 12.5(2) . .
C3 C1 C2 C3 9.3(3) 2_656 .
N1 C1 C2 C3 -170.11(15) . .
F1 C2 C3 C1 168.40(14) . 2_656
C1 C2 C3 C1 -9.0(3) . 2_656
F1 C2 C3 C14 -17.6(2) . 2_656
C1 C2 C3 C14 164.95(16) . 2_656
N1 C4 C5 C6 -2.7(3) . .
C4 C5 C6 C7 -3.6(3) . .
C5 C6 C7 C8 3.7(3) . .
C6 C7 C8 N1 2.5(3) . .
C6 C7 C8 C9 -174.41(16) . .
N1 C8 C9 C10 176.93(15) . .
C7 C8 C9 C10 -6.2(2) . .
N1 C8 C9 C14 -6.3(2) . .
C7 C8 C9 C14 170.60(16) . .
C14 C9 C10 C11 -0.6(3) . .
C8 C9 C10 C11 176.26(16) . .
C9 C10 C11 C12 0.3(3) . .
C10 C11 C12 C13 -0.2(3) . .
C11 C12 C13 C14 0.4(3) . .
C10 C9 C14 C13 0.7(2) . .
C8 C9 C14 C13 -176.08(15) . .
C10 C9 C14 C3 -173.56(15) . 2_656
C8 C9 C14 C3 9.7(2) . 2_656
C12 C13 C14 C9 -0.6(3) . .
C12 C13 C14 C3 173.23(17) . 2_656
C7 C8 N1 C4 -8.8(2) . .
C9 C8 N1 C4 168.23(15) . .
C7 C8 N1 C1 174.97(15) . .
C9 C8 N1 C1 -8.0(2) . .
C5 C4 N1 C8 9.1(3) . .
C5 C4 N1 C1 -174.64(16) . .
C2 C1 N1 C8 -161.99(16) . .
C3 C1 N1 C8 18.6(2) 2_656 .
C2 C1 N1 C4 21.7(2) . .
C3 C1 N1 C4 -157.71(16) 2_656 .
O3 S1 C15 F2 -56.65(15) . .
O1 S1 C15 F2 -176.92(13) . .
O2 S1 C15 F2 63.75(15) . .
O3 S1 C15 F4 -176.61(14) . .
O1 S1 C15 F4 63.13(15) . .
O2 S1 C15 F4 -56.20(16) . .
O3 S1 C15 F3 63.13(16) . .
O1 S1 C15 F3 -57.14(16) . .
O2 S1 C15 F3 -176.47(14) . .
