#------------------------------------------------------------------------------
#$Date: 2017-08-05 21:55:49 +0300 (Sat, 05 Aug 2017) $
#$Revision: 199596 $
#$URL: file:///home/coder/svn-repositories/cod/cif/1/54/65/1546597.cif $
#------------------------------------------------------------------------------
#
# This file is available in the Crystallography Open Database (COD),
# http://www.crystallography.net/
#
# All data on this site have been placed in the public domain by the
# contributors.
#
data_1546597
loop_
_publ_author_name
'Xu, Rui-Bin'
'Wang, Qi-Qiang'
'Ao, Yu-Fei'
'Li, Zhi-Yan'
'Huang, Zhi-Tang'
'Wang, De-Xian'
_publ_section_title
;
 Anionic Head Containing Oxacalix[2]arene[2]triazines: Synthesis and
 Anion-\p-Directed Self-Assembly in Solution and Solid State.
;
_journal_issue                   3
_journal_name_full               'Organic letters'
_journal_page_first              738
_journal_page_last               741
_journal_paper_doi               10.1021/acs.orglett.7b00070
_journal_volume                  19
_journal_year                    2017
_chemical_formula_moiety         'C20 H13 N6 O10 S, C8 H20 N'
_chemical_formula_sum            'C28 H33 N7 O10 S'
_chemical_formula_weight         659.67
_space_group_crystal_system      monoclinic
_space_group_IT_number           14
_space_group_name_Hall           '-P 2yn'
_space_group_name_H-M_alt        'P 1 21/n 1'
_symmetry_space_group_name_Hall  '-P 2yn'
_symmetry_space_group_name_H-M   'P 1 21/n 1'
_atom_sites_solution_hydrogens   geom
_atom_sites_solution_primary     dual
_audit_creation_date             2016-09-26
_audit_creation_method
;
Olex2 1.2
(compiled 2016.02.19 svn.r3266 for OlexSys, GUI svn.r5227)
;
_cell_angle_alpha                90
_cell_angle_beta                 99.339(3)
_cell_angle_gamma                90
_cell_formula_units_Z            4
_cell_length_a                   11.585(2)
_cell_length_b                   18.121(3)
_cell_length_c                   14.653(3)
_cell_measurement_reflns_used    9487
_cell_measurement_temperature    173.1500
_cell_measurement_theta_max      31.6612
_cell_measurement_theta_min      1.8019
_cell_volume                     3035.4(10)
_computing_cell_refinement       'CrystalClear (Rigaku Inc., 2007)'
_computing_data_collection       'CrystalClear (Rigaku Inc., 2007)'
_computing_data_reduction        'CrystalClear (Rigaku Inc., 2007)'
_computing_molecular_graphics    'Olex2 (Dolomanov et al., 2009)'
_computing_publication_material  'CIFTAB (Sheldrick, 2013)'
_computing_structure_refinement  'SHELXL (Sheldrick, 2014)'
_computing_structure_solution
;
'SHELXT (Sheldrick, 2014)'
;
_diffrn_ambient_temperature      173.1500
_diffrn_detector_area_resol_mean 28.5714
_diffrn_measured_fraction_theta_full 0.997
_diffrn_measured_fraction_theta_max 0.990
_diffrn_measurement_details
;
scan:
    Number of images: 346
               Slice: -110.0000 - 63.0000
         Image width: 0.5000
            Exp time: 20.0000
       Rotation axis: Omega
               Omega: 0.0000
                 Chi: 45.0000
                 Phi: 0.0000
                 XTD: 44.9271
              2theta: -19.2548
scan:
    Number of images: 342
               Slice: -110.0000 - 61.0000
         Image width: 0.5000
            Exp time: 20.0000
       Rotation axis: Omega
               Omega: 0.0000
                 Chi: 45.0000
                 Phi: 270.0000
                 XTD: 44.9271
              2theta: -19.2548
scan:
    Number of images: 342
               Slice: -110.0000 - 61.0000
         Image width: 0.5000
            Exp time: 20.0000
       Rotation axis: Omega
               Omega: 0.0000
                 Chi: 45.0000
                 Phi: 90.0000
                 XTD: 44.9271
              2theta: -19.2548
scan:
    Number of images: 212
               Slice: -42.5000 - 63.5000
         Image width: 0.5000
            Exp time: 20.0000
       Rotation axis: Omega
               Omega: 0.0000
                 Chi: 45.0000
                 Phi: 180.0000
                 XTD: 44.9271
              2theta: -19.2548
;
_diffrn_measurement_device
;
Saturn724+ (2x2 bin mode)
;
_diffrn_measurement_device_details
;
AFC10: Fixed Chi 2 circle
;
_diffrn_measurement_device_type  'MM007-HF CCD(Saturn 724+)'
_diffrn_measurement_method       '\w scans at fixed \c = 45\%'
_diffrn_orient_matrix_type       d*Trek
_diffrn_orient_matrix_UB_11      -0.0155
_diffrn_orient_matrix_UB_12      0.0089
_diffrn_orient_matrix_UB_13      -0.0856
_diffrn_orient_matrix_UB_21      -0.0261
_diffrn_orient_matrix_UB_22      0.0476
_diffrn_orient_matrix_UB_23      0.0097
_diffrn_orient_matrix_UB_31      0.0569
_diffrn_orient_matrix_UB_32      0.0349
_diffrn_orient_matrix_UB_33      -0.0181
_diffrn_radiation_detector       CCD
_diffrn_radiation_monochromator  Confocal
_diffrn_radiation_type           MoK\a
_diffrn_radiation_wavelength     0.71073
_diffrn_reflns_av_unetI/netI     0.0247
_diffrn_reflns_Laue_measured_fraction_full 0.997
_diffrn_reflns_Laue_measured_fraction_max 0.990
_diffrn_reflns_limit_h_max       14
_diffrn_reflns_limit_h_min       -15
_diffrn_reflns_limit_k_max       23
_diffrn_reflns_limit_k_min       -23
_diffrn_reflns_limit_l_max       19
_diffrn_reflns_limit_l_min       -19
_diffrn_reflns_number            6929
_diffrn_reflns_point_group_measured_fraction_full 0.997
_diffrn_reflns_point_group_measured_fraction_max 0.990
_diffrn_reflns_theta_full        26.000
_diffrn_reflns_theta_max         27.578
_diffrn_reflns_theta_min         1.802
_diffrn_source                   'Rotating Anode'
_diffrn_source_current           24.0000
_diffrn_source_power             1.2000
_diffrn_source_voltage           50.0000
_exptl_absorpt_coefficient_mu    0.176
_exptl_absorpt_correction_T_max  1.0000
_exptl_absorpt_correction_T_min  0.8400
_exptl_absorpt_correction_type   multi-scan
_exptl_absorpt_process_details   'CrystalClear (Rigaku Inc., 2007)'
_exptl_crystal_colour            Colorless
_exptl_crystal_density_diffrn    1.444
_exptl_crystal_description       Plate
_exptl_crystal_F_000             1384
_exptl_crystal_size_max          0.201
_exptl_crystal_size_mid          0.18
_exptl_crystal_size_min          0.039
_refine_diff_density_max         0.456
_refine_diff_density_min         -0.345
_refine_diff_density_rms         0.075
_refine_ls_extinction_method     none
_refine_ls_goodness_of_fit_ref   1.093
_refine_ls_hydrogen_treatment    constr
_refine_ls_matrix_type           full
_refine_ls_number_parameters     422
_refine_ls_number_reflns         6929
_refine_ls_number_restraints     0
_refine_ls_restrained_S_all      1.093
_refine_ls_R_factor_all          0.0712
_refine_ls_R_factor_gt           0.0678
_refine_ls_shift/su_max          0.001
_refine_ls_shift/su_mean         0.000
_refine_ls_structure_factor_coef Fsqd
_refine_ls_weighting_details
'w=1/[\s^2^(Fo^2^)+(0.0853P)^2^+4.9653P] where P=(Fo^2^+2Fc^2^)/3'
_refine_ls_weighting_scheme      calc
_refine_ls_wR_factor_gt          0.1943
_refine_ls_wR_factor_ref         0.1972
_reflns_Friedel_coverage         0.000
_reflns_number_gt                6617
_reflns_number_total             6929
_reflns_threshold_expression     'I > 2\s(I)'
_cod_data_source_file            ol7b00070_si_004.cif
_cod_data_source_block           5c
_cod_depositor_comments
;
The following automatic conversions were performed:

'_exptl_absorpt_correction_type' value 'Multi-scan' changed to
'multi-scan' according to
/home/data/users/saulius/crontab/automatic-downloads/rss-feeds/ACS/lib/dictionaries/cif_core.dic
dictionary named 'cif_core.dic' version 2.4.2 from 2011-04-26.

Automatic conversion script
Id: cif_fix_values 4973 2017-02-22 13:04:09Z antanas 

 Adding full bibliography for 1546597.cif.
;
_cod_original_cell_volume        3035.2(10)
_cod_database_code               1546597
_shelx_space_group_comment
;
The symmetry employed for this shelxl refinement is uniquely defined
by the following loop, which should always be used as a source of
symmetry information in preference to the above space-group names.
They are only intended as comments.
;
_diffrn_number_total             7174
_olex2_refinement_description
;
1. Twinned data refinement
 Scales: 0.845(3) 0.155(3)
2. Fixed Uiso
 At 1.2 times of:
  All C(H) groups, All C(H,H) groups
 At 1.5 times of:
  All C(H,H,H) groups
3.a Secondary CH2 refined with riding coordinates:
 C21(H21A,H21B), C23(H23A,H23B), C25(H25A,H25B), C27(H27A,H27B)
3.b Aromatic/amide H refined with riding coordinates:
 C6(H6), C7(H7), C8(H8), C10(H10), C16(H16), C18(H18), C20(H20)
3.c Idealised Me refined as rotating group:
 C4(H4A,H4B,H4C), C14(H14A,H14B,H14C), C22(H22A,H22B,H22C), C24(H24A,H24B,
 H24C), C26(H26A,H26B,H26C), C28(H28A,H28B,H28C)
;
_shelx_res_file
;
    mx5155.res created by SHELXL-2014/7

TITL mx5155_a.res in P2(1)/n
CELL 0.71073 11.5847 18.1206 14.6529 90 99.339 90
ZERR 4 0.0023 0.0034 0.0028 0 0.003 0
LATT 1
SYMM 0.5-X,0.5+Y,0.5-Z
SFAC C H N O S
UNIT 112 132 28 40 4

L.S. 4 0 77
PLAN  20
BOND $H
list 4
MORE -1
CONF
fmap 2 53
acta 52
OMIT -1 10 5
OMIT 7 4 4
OMIT 6 9 5
OMIT 0 15 4
OMIT 4 0 0
OMIT -5 0 1
OMIT 7 3 0
OMIT -8 3 4
OMIT -3 11 10
OMIT -9 10 2
REM <olex2.extras>
REM <HklSrc "%.\\mx5155.hkl">
REM </olex2.extras>

WGHT    0.085300    4.965300
BASF   0.15481
FVAR      10.65897
S1    5    0.109088    0.844525    0.315482    11.00000    0.03474    0.03264 =
         0.02969    0.00870    0.00405    0.00483
O1    4    0.287674    0.610569    0.510278    11.00000    0.05165    0.02310 =
         0.02390   -0.00073    0.00344    0.00828
O2    4    0.413334    0.376568    0.559849    11.00000    0.03506    0.02453 =
         0.05498   -0.00555    0.00993    0.00686
O3    4    0.273749    0.493103    0.786469    11.00000    0.03688    0.02307 =
         0.03261    0.00430    0.00385    0.00203
O4    4    0.228730    0.724526    0.936937    11.00000    0.04890    0.02831 =
         0.02410   -0.00425    0.00848   -0.01459
O5    4    0.479746    0.916392    0.977097    11.00000    0.03535    0.02805 =
         0.02689   -0.00547   -0.00099   -0.00683
O6    4    0.358800    0.835528    0.690774    11.00000    0.03235    0.02378 =
         0.02274    0.00032    0.00198   -0.00612
O7    4    0.074469    0.828731    0.418753    11.00000    0.02854    0.03728 =
         0.02834    0.00618    0.00116    0.00861
O8    4    0.110976    0.773169    0.273365    11.00000    0.12755    0.04614 =
         0.03153    0.00048    0.01187    0.03193
O9    4    0.013110    0.889692    0.275240    11.00000    0.03853    0.04141 =
         0.03695    0.01105   -0.00768    0.00351
O10   4    0.219112    0.881797    0.334449    11.00000    0.03094    0.08965 =
         0.07834    0.04710    0.00024   -0.01033
N1    3    0.347465    0.495075    0.530225    11.00000    0.03311    0.02445 =
         0.03557   -0.00358    0.00141    0.00324
N2    3    0.348401    0.435463    0.675413    11.00000    0.02927    0.02166 =
         0.04162    0.00048   -0.00051    0.00239
N3    3    0.271738    0.557508    0.650780    11.00000    0.02648    0.02207 =
         0.02810    0.00017   -0.00180    0.00087
N4    3    0.289879    0.773273    0.807977    11.00000    0.02801    0.02184 =
         0.02501   -0.00115    0.00283   -0.00337
N5    3    0.353272    0.818357    0.961134    11.00000    0.03318    0.02381 =
         0.02466   -0.00276    0.00295   -0.00289
N6    3    0.423650    0.874604    0.833668    11.00000    0.02711    0.02054 =
         0.02643    0.00020    0.00070   -0.00152
C1    1    0.302402    0.552900    0.568019    11.00000    0.02845    0.02281 =
         0.02667   -0.00212   -0.00333    0.00025
C2    1    0.367929    0.438022    0.588114    11.00000    0.02328    0.02365 =
         0.03983   -0.00180    0.00194    0.00171
C3    1    0.298650    0.496411    0.700328    11.00000    0.02342    0.02297 =
         0.03181   -0.00053   -0.00124   -0.00311
C4    1    0.416046    0.369279    0.461551    11.00000    0.04920    0.03338 =
         0.05697   -0.01116    0.02033    0.00326
AFIX 137
H4A   2    0.337660    0.370897    0.428065    11.00000   -1.50000
H4B   2    0.451557    0.323073    0.449988    11.00000   -1.50000
H4C   2    0.460714    0.409046    0.441600    11.00000   -1.50000
AFIX   0
C5    1    0.201982    0.549360    0.814025    11.00000    0.03424    0.02238 =
         0.02488    0.00348    0.00389   -0.00119
C6    1    0.084038    0.535804    0.805316    11.00000    0.03550    0.02622 =
         0.03501   -0.00214    0.00103   -0.00849
AFIX  43
H6    2    0.052333    0.492219    0.778635    11.00000   -1.20000
AFIX   0
C7    1    0.013276    0.588336    0.837059    11.00000    0.03010    0.03829 =
         0.03824   -0.00397    0.00377   -0.00628
AFIX  43
H7    2   -0.066955    0.580516    0.830909    11.00000   -1.20000
AFIX   0
C8    1    0.062153    0.652894    0.878202    11.00000    0.03672    0.02962 =
         0.02753    0.00085    0.00443   -0.00004
AFIX  43
H8    2    0.015344    0.688246    0.900187    11.00000   -1.20000
AFIX   0
C9    1    0.181040    0.663374    0.885701    11.00000    0.03766    0.02360 =
         0.02054   -0.00033    0.00150   -0.00843
C10   1    0.254296    0.612471    0.853744    11.00000    0.02802    0.02798 =
         0.02528    0.00491    0.00130   -0.00818
AFIX  43
H10   2    0.334386    0.620450    0.858816    11.00000   -1.20000
AFIX   0
C11   1    0.293723    0.773434    0.898947    11.00000    0.03161    0.02004 =
         0.02592   -0.00100    0.00316   -0.00119
C12   1    0.416672    0.867454    0.923226    11.00000    0.02625    0.01951 =
         0.02791   -0.00319   -0.00100    0.00101
C13   1    0.356981    0.826053    0.780938    11.00000    0.02540    0.01934 =
         0.02513    0.00115    0.00216    0.00222
C14   1    0.478733    0.911565    1.075676    11.00000    0.04304    0.03784 =
         0.02787   -0.00864    0.00196   -0.01076
AFIX 137
H14A  2    0.399354    0.911672    1.086883    11.00000   -1.50000
H14B  2    0.519667    0.953078    1.106167    11.00000   -1.50000
H14C  2    0.516505    0.866747    1.099286    11.00000   -1.50000
AFIX   0
C15   1    0.292485    0.791480    0.622568    11.00000    0.02543    0.02359 =
         0.02291   -0.00008    0.00527   -0.00358
C16   1    0.213804    0.829646    0.558271    11.00000    0.02899    0.02175 =
         0.02792    0.00229    0.00683    0.00057
AFIX  43
H16   2    0.200236    0.879707    0.565669    11.00000   -1.20000
AFIX   0
C17   1    0.155914    0.791394    0.482760    11.00000    0.02645    0.02841 =
         0.02425    0.00378    0.00385    0.00431
C18   1    0.177527    0.716928    0.470917    11.00000    0.02999    0.02712 =
         0.02190    0.00078    0.00199   -0.00372
AFIX  43
H18   2    0.138463    0.691214    0.420207    11.00000   -1.20000
AFIX   0
C19   1    0.258656    0.681929    0.536466    11.00000    0.03514    0.02078 =
         0.02338    0.00142    0.00609    0.00063
C20   1    0.318138    0.717382    0.613833    11.00000    0.02931    0.02356 =
         0.02246    0.00322    0.00289    0.00179
AFIX  43
H20   2    0.372106    0.692892    0.657343    11.00000   -1.20000
AFIX   0
N7    3    0.802157    0.888656    0.681115    11.00000    0.04151    0.02672 =
         0.02426   -0.00211   -0.00141    0.00314
C21   1    0.831612    0.809405    0.661219    11.00000    0.09025    0.03400 =
         0.04080   -0.01169   -0.00118    0.01689
AFIX  23
H21A  2    0.837235    0.805094    0.596103    11.00000   -1.20000
H21B  2    0.767721    0.778066    0.672919    11.00000   -1.20000
AFIX   0
C22   1    0.944272    0.780963    0.717554    11.00000    0.19180    0.08238 =
         0.06876   -0.02488   -0.04093    0.09739
AFIX 137
H22A  2    1.009069    0.809173    0.703062    11.00000   -1.50000
H22B  2    0.954592    0.729977    0.703008    11.00000   -1.50000
H22C  2    0.940459    0.785739    0.782246    11.00000   -1.50000
AFIX   0
C23   1    0.698768    0.913409    0.611712    11.00000    0.03120    0.04587 =
         0.02262   -0.00105    0.00135    0.00164
AFIX  23
H23A  2    0.685765    0.965544    0.621111    11.00000   -1.20000
H23B  2    0.717975    0.907636    0.550092    11.00000   -1.20000
AFIX   0
C24   1    0.586635    0.872426    0.616370    11.00000    0.04280    0.10804 =
         0.04801   -0.01854    0.01434   -0.02605
AFIX 137
H24A  2    0.524604    0.893209    0.572495    11.00000   -1.50000
H24B  2    0.567585    0.876646    0.677520    11.00000   -1.50000
H24C  2    0.596306    0.821325    0.602060    11.00000   -1.50000
AFIX   0
C25   1    0.775044    0.893333    0.779036    11.00000    0.08064    0.03558 =
         0.02320    0.00286    0.00499    0.00744
AFIX  23
H25A  2    0.720838    0.854079    0.787489    11.00000   -1.20000
H25B  2    0.846711    0.884556    0.821972    11.00000   -1.20000
AFIX   0
C26   1    0.723526    0.965670    0.803793    11.00000    0.07066    0.04728 =
         0.02324   -0.00165    0.00630    0.01399
AFIX 137
H26A  2    0.651302    0.974487    0.762922    11.00000   -1.50000
H26B  2    0.777416    1.004935    0.797781    11.00000   -1.50000
H26C  2    0.709078    0.963615    0.866428    11.00000   -1.50000
AFIX   0
C27   1    0.903662    0.939345    0.673997    11.00000    0.03300    0.05719 =
         0.05223   -0.01012   -0.00067   -0.00716
AFIX  23
H27A  2    0.970245    0.923351    0.718496    11.00000   -1.20000
H27B  2    0.883133    0.988663    0.691514    11.00000   -1.20000
AFIX   0
C28   1    0.940807    0.943374    0.579630    11.00000    0.04260    0.11589 =
         0.07429   -0.00988    0.02305   -0.02183
AFIX 137
H28A  2    0.877216    0.961920    0.535343    11.00000   -1.50000
H28B  2    0.961893    0.894979    0.561357    11.00000   -1.50000
H28C  2    1.006848    0.975774    0.582397    11.00000   -1.50000
AFIX   0
HKLF 5

REM  mx5155_a.res in P2(1)/n
REM R1 =  0.0678 for    6617 Fo > 4sig(Fo)  and  0.0712 for all    6929 data
REM    422 parameters refined using      0 restraints

END

WGHT      0.0853      4.9651

REM Highest difference peak  0.456,  deepest hole -0.345,  1-sigma level  0.075
Q1    1   0.3735  0.8486  0.5823  11.00000  0.05    0.46
Q2    1   0.3319  0.6450  0.5435  11.00000  0.05    0.40
Q3    1   0.1773  0.7946  0.2945  11.00000  0.05    0.37
Q4    1   0.2691  0.6949  0.5829  11.00000  0.05    0.34
Q5    1   0.9618  0.7953  0.7080  11.00000  0.05    0.31
Q6    1   0.2877  0.7582  0.6259  11.00000  0.05    0.31
Q7    1   0.2284  0.5807  0.8366  11.00000  0.05    0.30
Q8    1   0.0753  0.7785  0.2961  11.00000  0.05    0.30
Q9    1   0.2475  0.8253  0.3111  11.00000  0.05    0.29
Q10   1   0.1143  0.6598  0.8624  11.00000  0.05    0.28
Q11   1   0.2365  0.8013  0.5986  11.00000  0.05    0.28
Q12   1   0.8242  0.8564  0.6608  11.00000  0.05    0.28
Q13   1   0.1177  0.6631  0.4682  11.00000  0.05    0.27
Q14   1   0.5655  0.8446  0.7778  11.00000  0.05    0.26
Q15   1   0.8646  0.7628  0.7100  11.00000  0.05    0.26
Q16   1   0.2755  0.8111  0.5764  11.00000  0.05    0.25
Q17   1   1.0340  0.8840  0.6345  11.00000  0.05    0.25
Q18   1   0.9892  0.8010  0.7798  11.00000  0.05    0.25
Q19   1   0.4942  0.8267  0.8249  11.00000  0.05    0.25
Q20   1   0.1859  0.7589  0.4671  11.00000  0.05    0.25
;
_shelx_res_checksum              19257
_shelx_hkl_file
;
   6   0   0  145311   10220   1
   8   0   0   16895     764   1
  10   0   0  163542    2815   1
  12   0   0     601     338   1
  14   0   0   70842    2521   1
   1   1   0  202028    1977   1
   2   1   0  134557    1029   1
   3   1   0 1435662   75698   1
   4   1   0  849506   12989   1
   5   1   0   18202     439   1
   6   1   0   88069    1852   1
   7   1   0  144554    2850   1
   8   1   0   54569    1129   1
   9   1   0   86882    1471   1
  10   1   0    8906     395   1
   3  -1 -14   23178     520  -2
  11   1   0   23178     520   1
  12   1   0   13868     618   1
  13   1   0     797     309   1
  14   1   0    3109     669   1
   1   2   0   40019     416   1
   2   2   0  100689     992   1
   4   2   0  510811    4997   1
   5   2   0  275618    3649   1
   6   2   0    2197     203   1
   7   2   0  115097    1709   1
   8   2   0    6301     506   1
   9   2   0   31414     894   1
  10   2   0    1061     374   1
   3  -2 -14    3918     367  -2
  11   2   0    3918     367   1
  12   2   0     561     428   1
  13   2   0    1909     505   1
  14   2   0    2518     541   1
   1   3   0    1541     226   1
   2   3   0  192782    1261   1
   3   3   0  318401    2238   1
   4   3   0  149579    1365   1
   5   3   0   79472     924   1
   6   3   0    3320     247   1
   7   3   0  309590   10864   1
   8   3   0    2704    1019   1
   9   3   0   71123    2291   1
  10   3   0    1403     267   1
   3  -3 -14   38381    1509  -2
  11   3   0   38381    1509   1
  12   3   0    1414     419   1
  13   3   0   10911     749   1
  14   3   0    5933     724   1
   1   4   0 2269004   23142   1
   2   4   0 1743465   11910   1
   3   4   0   18150     234   1
   4   4   0    1703     400   1
   5   4   0    4452     254   1
   6   4   0  190226    2212   1
   7   4   0  138305    1463   1
   8   4   0   14595    1195   1
   9   4   0  121026    1296   1
  10   4   0   28971     744   1
   3  -4 -14   32607    1001  -2
  11   4   0   32607    1001   1
  12   4   0   25824    1017   1
  13   4   0   38491    1192   1
  14   4   0     868     357   1
   1   5   0  126589    1112   1
   2   5   0   48131     483   1
   3   5   0  455448    1980   1
   4   5   0  621971    6876   1
   5   5   0   86263    1126   1
   6   5   0  179716    1982   1
   7   5   0   37305     770   1
   8   5   0  231595    2718   1
   9   5   0   23029     826   1
  10   5   0     904     221   1
   3  -5 -14   22605     742  -2
  11   5   0   22605     742   1
  12   5   0   70351    2917   1
  13   5   0     710     366   1
  14   5   0    1174     582   1
   0  -6   0    6313     312  -2
   0   6   0    6313     312   1
   1   6   0  142469    1739   1
   2   6   0   79907     725   1
   3   6   0  328325    3124   1
   4   6   0 1298079   11112   1
   5   6   0  279871    1516   1
   6   6   0   84025    1137   1
   7   6   0   38619     797   1
   8   6   0    7284     502   1
   9   6   0   86306    1404   1
  10   6   0   29690     791   1
   3  -6 -14    4160     372  -2
  11   6   0    4160     372   1
  12   6   0    3762     518   1
  13   6   0   40553    1302   1
  14   6   0     564     382   1
   1   7   0    6244     220   1
   2   7   0   56200     592   1
   3   7   0    6122     236   1
   4   7   0    2854     334   1
   5   7   0  474577    4578   1
   6   7   0  137206    1435   1
   7   7   0  142541    2356   1
   8   7   0  102822    2796   1
   9   7   0  280877    4292   1
  10   7   0    4493     445   1
   3  -7 -14    4430     414  -2
  11   7   0    4430     414   1
  12   7   0   11859     703   1
  13   7   0   17377    1105   1
  14   7   0    2880     551   1
   0  -8   0   15531     546  -2
   0   8   0   15531     546   1
   1   8   0  234421    2026   1
   2   8   0    2020     155   1
   3   8   0     535     140   1
   1  -8  -5  112042    2298  -2
   4   8   0  112042    2298   1
   5   8   0   44704     992   1
   6   8   0  278384    2489   1
   7   8   0   89348    1559   1
   8   8   0   20440     850   1
   9   8   0    2312     346   1
  10   8   0   67672    1065   1
   3  -8 -14    3986     401  -2
  11   8   0    3986     401   1
  12   8   0    8456     660   1
  13   8   0    3086     472   1
   1   9   0   38426     519   1
   2   9   0  327431    5204   1
   3   9   0  103084    1202   1
   1  -9  -5   12937     708  -2
   4   9   0   12937     708   1
   5   9   0  143010    1255   1
   6   9   0    5038     397   1
   7   9   0  103380    2303   1
   8   9   0   29583     836   1
   9   9   0   40607     827   1
  10   9   0   27671     806   1
   3  -9 -14    4122     508  -2
  11   9   0    4122     508   1
  12   9   0    2432     645   1
  13   9   0    2366     503   1
   0 -10   0  123415    1937  -2
   0  10   0  123415    1937   1
   1  10   0   40316     705   1
   2  10   0  124340    1410   1
   3  10   0    1729     128   1
   1 -10  -5  682638    7750  -2
   4  10   0  682638    7750   1
   5  10   0   64229    1140   1
   6  10   0  221044    2462   1
   2 -10  -9    8747     658  -2
   7  10   0    8747     658   1
   8  10   0    1192     243   1
   9  10   0   81589    1648   1
  10  10   0    7459     425   1
   3 -10 -14    4774     475  -2
  11  10   0    4774     475   1
  12  10   0    2902     487   1
  13  10   0     371     447   1
   1  11   0   50572     747   1
   2  11   0   77586    1020   1
   3  11   0   57833     984   1
   1 -11  -5   18374     739  -2
   4  11   0   18374     739   1
   5  11   0  109165    1311   1
   6  11   0    2095     244   1
   2 -11  -9  402209    5563  -2
   7  11   0  402209    5563   1
   8  11   0   45106    1082   1
   9  11   0    2323     272   1
  10  11   0     516     204   1
   3 -11 -14    1374     655  -2
  11  11   0    1374     655   1
  12  11   0   11297     769   1
  13  11   0    5958     742   1
   0 -12   0    9324     480  -2
   0  12   0    9324     480   1
   1  12   0   77662    1029   1
   2  12   0   59574     978   1
   3  12   0    3561     369   1
   1 -12  -5   21997    1350  -2
   4  12   0   21997    1350   1
   5  12   0   22875     810   1
   6  12   0   82548    1367   1
   2 -12  -9   76289    1404  -2
   7  12   0   76289    1404   1
   8  12   0   88232    1541   1
   9  12   0    1257     278   1
  10  12   0    8585     641   1
   3 -12 -14    7749     971  -2
  11  12   0    7749     971   1
  12  12   0   12779    1212   1
   1  13   0    1554     198   1
   2  13   0   10025     539   1
   3  13   0   23537    1695   1
   1 -13  -5   25089    1233  -2
   4  13   0   25089    1233   1
   5  13   0  458316    6052   1
   6  13   0  192197    2716   1
   2 -13  -9   13966     499  -2
   7  13   0   13966     499   1
   8  13   0  120388    1642   1
   9  13   0    1102     273   1
  10  13   0   10102     735   1
   3 -13 -14    1374     527  -2
  11  13   0    1374     527   1
  12  13   0   11238    1494   1
   0 -14   0   26149    1302  -2
   0  14   0   26149    1302   1
   1  14   0  129014    1638   1
   2  14   0     968     275   1
   3  14   0   14964     670   1
   1 -14  -5   41440     981  -2
   4  14   0   41440     981   1
   5  14   0     554     286   1
   6  14   0    6387     545   1
   2 -14  -9   15520     814  -2
   7  14   0   15520     814   1
   8  14   0    5254     562   1
   9  14   0    3219     567   1
  10  14   0     935     484   1
   3 -14 -14   47508    2341  -2
  11  14   0   47508    2341   1
   1  15   0   27621     985   1
   2  15   0  125186    1853   1
   3  15   0  168102    2846   1
   1 -15  -5   59569    1281  -2
   4  15   0   59569    1281   1
   5  15   0   64346    1359   1
   6  15   0   22952     835   1
   2 -15  -9   73038    2219  -2
   7  15   0   73038    2219   1
   8  15   0   10230    1039   1
   9  15   0    3294     568   1
  10  15   0    1472     722   1
   3 -15 -14   16470    1598  -2
  11  15   0   16470    1598   1
   0 -16   0    1323     152  -2
   0  16   0    1323     152   1
   1  16   0   83929    1851   1
   2  16   0   10131     545   1
   3  16   0   67037    1358   1
   1 -16  -5    4772     471  -2
   4  16   0    4772     471   1
   5  16   0   22806     913   1
   6  16   0   14646     803   1
   2 -16  -9     963     450  -2
   7  16   0     963     450   1
   8  16   0     665     256   1
   9  16   0    1764     573   1
  10  16   0   27024    1265   1
   1  17   0   94795    1933   1
   2  17   0    9565     545   1
   3  17   0     959     286   1
   1 -17  -5   60089    2408  -2
   4  17   0   60089    2408   1
   5  17   0   78868    1559   1
   6  17   0    6616     464   1
   2 -17  -9   63538    1680  -2
   7  17   0   63538    1680   1
   8  17   0     645     614   1
   9  17   0   20912    1267   1
  10  17   0    3472     701   1
   0 -18   0  730541   22274  -2
   0  18   0  730541   22274   1
   1  18   0   74173    1804   1
   2  18   0  309518    8076   1
   3  18   0    7917     644   1
   1 -18  -5    1442     427  -2
   4  18   0    1442     427   1
   5  18   0    4643     556   1
   6  18   0     769     342   1
   2 -18  -9   19466     804  -2
   7  18   0   19466     804   1
   8  18   0    2438     310   1
   9  18   0   20014    1273   1
   1  19   0   99691    2598   1
   2  19   0    1489    1086   1
   3  19   0   27521    1525   1
   1 -19  -5    1793     421  -2
   4  19   0    1793     421   1
   5  19   0    8216     978   1
   6  19   0    1337     575   1
   2 -19  -9    5009     807  -2
   7  19   0    5009     807   1
   8  19   0    5182    1182   1
   0 -20   0   14177    1110  -2
   0  20   0   14177    1110   1
   1  20   0    5627     574   1
   2  20   0    3586     643   1
   3  20   0   13395    1019   1
   1 -20  -5    1838     591  -2
   4  20   0    1838     591   1
   5  20   0   24794    1155   1
   6  20   0   11061    1042   1
   2 -20  -9   13968    2036  -2
   7  20   0   13968    2036   1
   1  21   0    1877     469   1
   2  21   0   34647    1385   1
   3  21   0   11955    2077   1
   1 -21  -5    4959     717  -2
   4  21   0    4959     717   1
   5  21   0    1116     393   1
   6  21   0   26494    2030   1
   0 -22   0    5493    1095  -2
   0  22   0    5493    1095   1
   1  22   0    8875     826   1
   2  22   0    2569     593   1
   3  22   0    3630     693   1
   1 -22  -5   13398    1206  -2
   4  22   0   13398    1206   1
   5  22   0   15646    1237   1
   1  23   0   39990    1608   1
   2  23   0   10005    1549   1
   3  23   0    9038    1129   1
 -13   0   1   32682    1366   1
 -11   0   1   30412    1102   1
  -9   0   1    2852     862   1
  -7   0   1  252545    3018   1
  -3   0   1   97580    1757   1
   1   0   1  125038    3523   1
   3   0   1 3116177  139802   1
   5   0   1    1747     596   1
   7   0   1     951     265   1
   9   0   1   14195     694   1
  11   0   1   54694    1433   1
  13   0   1   43086    4230   1
 -14   1   1    2705     502   1
 -13   1   1    1706     476   1
  -4  -1  15   39407    1216  -2
 -12   1   1   39407    1216   1
 -11   1   1    1497     218   1
 -10   1   1   14672     571   1
  -9   1   1   77051    1424   1
  -8   1   1   24914    1604   1
  -7   1   1    8023     444   1
  -6   1   1   29902     910   1
  -5   1   1  386426    4040   1
  -4   1   1  394705    2085   1
  -3   1   1 2564677   58831   1
  -2   1   1  548785    7141   1
  -1  -1   1  550361    3296  -2
  -1   1   1  550361    3296   1
   0   1   1  279039    3227   1
   1   1   1  675470    9637   1
   2   1   1  635525    5684   1
   3   1   1    2702     237   1
   4   1   1  667847    3953   1
   5   1   1     751     129   1
   6   1   1  290311    6380   1
   7   1   1    1590     278   1
   8   1   1   24173     667   1
   9   1   1   81892    1334   1
   2  -1 -13    1920     258  -2
  10   1   1    1920     258   1
  11   1   1    1751     259   1
  12   1   1    7496     391   1
  13   1   1     920     479   1
  14   1   1     722     234   1
 -14   2   1    9993     840   1
 -13   2   1    1105     340   1
  -4  -2  15   11532     911  -2
 -12   2   1   11532     911   1
 -11   2   1     783     173   1
 -10   2   1  111411    1401   1
  -9   2   1   15705    1844   1
  -8   2   1    2496     296   1
  -7   2   1   84839    1506   1
  -6   2   1  255647    2658   1
  -5   2   1     811     408   1
  -4   2   1  143060    1302   1
  -3   2   1 2697991   29161   1
  -2   2   1 1671604   29265   1
  -1  -2   1   61699     608  -2
  -1   2   1   61699     608   1
   0   2   1   48495    1042   1
   1   2   1  391668    4157   1
   2   2   1  104306    1261   1
   3   2   1  315998    2120   1
   4   2   1  723638    4041   1
   5   2   1    3732     190   1
   6   2   1 1047994   30841   1
   7   2   1    3407     396   1
   8   2   1  245262    3004   1
   9   2   1    6216     468   1
   2  -2 -13    5710     307  -2
  10   2   1    5710     307   1
  11   2   1     949     204   1
  12   2   1     833     238   1
  13   2   1    8033     776   1
  14   2   1   51166    1244   1
 -14   3   1    1693     520   1
 -13   3   1    9693     763   1
  -4  -3  15    1462     300  -2
 -12   3   1    1462     300   1
 -11   3   1    6066     469   1
 -10   3   1   64989    1108   1
  -9   3   1    7290     443   1
  -8   3   1   86372    2209   1
  -7   3   1   65237    1141   1
  -6   3   1    1911     218   1
  -5   3   1    1333     401   1
  -4   3   1  287559    1785   1
  -3   3   1  576669    2924   1
  -1  -3   1  872000   10969  -2
  -1   3   1  872000   10969   1
   0   3   1  489972    7736   1
   1   3   1    1591     165   1
   2   3   1 1724997   22905   1
   4   3   1  308151    2065   1
   5   3   1     519     164   1
   6   3   1   82916    1201   1
   7   3   1   29081     669   1
   8   3   1   21645     629   1
   9   3   1    3403     332   1
   2  -3 -13   63483    1980  -2
  10   3   1   63483    1980   1
  11   3   1   16526     632   1
  12   3   1   33867     963   1
  13   3   1   36514    1525   1
  14   3   1    1954    1187   1
 -14   4   1   19302    1418   1
 -13   4   1    2395     430   1
  -4  -4  15   22318     954  -2
 -12   4   1   22318     954   1
 -11   4   1  160763    2076   1
 -10   4   1    3527     296   1
  -9   4   1   87662    1547   1
  -8   4   1   16946    1411   1
  -7   4   1   12077     462   1
  -6   4   1  466919    2570   1
  -5   4   1   19743     947   1
  -4   4   1  119367     784   1
  -3   4   1  816880    4363   1
  -2   4   1  875829    6243   1
  -1  -4   1 1157188   13203  -2
  -1   4   1 1157188   13203   1
   0   4   1    1587     115   1
   1   4   1  877064    5672   1
   2   4   1  357061    2803   1
   0  -4  -4  571741   16521  -2
   3   4   1  571741   16521   1
   4   4   1  453954    3674   1
   5   4   1  107077    2420   1
   6   4   1   17577     826   1
   7   4   1   22038     604   1
   8   4   1    3636     333   1
   9   4   1   13177     970   1
   2  -4 -13   14050     595  -2
  10   4   1   14050     595   1
  11   4   1   93004    1391   1
  12   4   1   56128    1173   1
  13   4   1    2395     419   1
  14   4   1   39076    2115   1
 -14   5   1    8259     911   1
 -13   5   1    2307     487   1
  -4  -5  15    5936     696  -2
 -12   5   1    5936     696   1
 -11   5   1   43564    1341   1
 -10   5   1   20045    1159   1
  -9   5   1  100368    2112   1
  -8   5   1   11373     565   1
  -7   5   1   17371     627   1
  -6   5   1   14468     454   1
  -5   5   1  514239    4877   1
  -4   5   1    8979     233   1
  -3   5   1   68678     656   1
  -2   5   1    8476     143   1
  -1  -5   1 2167897   58143  -2
  -1   5   1 2167897   58143   1
   0   5   1  261831    1804   1
   1   5   1  821405    8747   1
   2   5   1 1063478    7424   1
   0  -5  -4    8414     244  -2
   3   5   1    8414     244   1
   4   5   1   33628     597   1
   5   5   1  839596    7046   1
   6   5   1  487678    2764   1
   7   5   1  127237    1670   1
   8   5   1    8753     638   1
   9   5   1    4524     377   1
   2  -5 -13   15747     699  -2
  10   5   1   15747     699   1
  11   5   1   23989    1123   1
  12   5   1    2029     649   1
  13   5   1   21638     754   1
  14   5   1    5580     827   1
 -14   6   1    1209     358   1
 -13   6   1    4801     536   1
  -4  -6  15   10918     987  -2
 -12   6   1   10918     987   1
 -11   6   1   13825     689   1
 -10   6   1     958     282   1
  -9   6   1   26919     651   1
  -8   6   1  107238    1931   1
  -7   6   1     803     211   1
  -6   6   1   43297     724   1
  -5   6   1    8234     569   1
  -4   6   1  193242    1965   1
  -3   6   1  218218    1597   1
  -2   6   1    1989     108   1
  -1  -6   1   77011    1103  -2
  -1   6   1   77011    1103   1
   0   6   1  189970    1398   1
   1   6   1  211372    1723   1
   2   6   1   14578     313   1
   0  -6  -4  211344    2087  -2
   3   6   1  211344    2087   1
   4   6   1    2863     181   1
   5   6   1   31072     648   1
   1  -6  -8  275715    8731  -2
   6   6   1  275715    8731   1
   7   6   1  164608    2100   1
   8   6   1   50693    1097   1
   9   6   1   19274     650   1
   2  -6 -13    1576     319  -2
  10   6   1    1576     319   1
  11   6   1     780     339   1
  12   6   1   20845    1309   1
  13   6   1   12501    1166   1
  14   6   1    2386     862   1
 -14   7   1    6879     888   1
 -13   7   1    1455     347   1
  -4  -7  15   11416     717  -2
 -12   7   1   11416     717   1
 -11   7   1    4106     418   1
 -10   7   1   13375     505   1
  -9   7   1    2254     339   1
  -8   7   1    6153     826   1
  -7   7   1     273     302   1
  -6   7   1  453875    3713   1
  -5   7   1  143273    1664   1
  -4   7   1    1771     166   1
  -3   7   1   24736     426   1
  -2   7   1  122488    1156   1
  -1  -7   1   77585     735  -2
  -1   7   1   77585     735   1
   0   7   1   41612     501   1
   1   7   1  321196    2410   1
   2   7   1   42681     511   1
   0  -7  -4   67144     787  -2
   3   7   1   67144     787   1
   4   7   1   80366    1172   1
   5   7   1  565981    3369   1
   1  -7  -8  127503    2960  -2
   6   7   1  127503    2960   1
   7   7   1  139774    1689   1
   8   7   1   44369    1128   1
   9   7   1   29223     767   1
   2  -7 -13   17037     597  -2
  10   7   1   17037     597   1
  11   7   1   20661     905   1
  12   7   1   10431     788   1
  13   7   1    9503     692   1
  14   7   1    7855    1880   1
 -14   8   1   11971    1316   1
 -13   8   1     329     247   1
  -4  -8  15   19098    1058  -2
 -12   8   1   19098    1058   1
 -11   8   1   12913     808   1
 -10   8   1    4063     509   1
  -9   8   1    3467     364   1
  -8   8   1  249009    3060   1
  -7   8   1    8097     599   1
  -6   8   1  197944    1950   1
  -5   8   1  350100    3247   1
  -4   8   1    7020     346   1
  -3   8   1   16209     320   1
  -2   8   1    1944     163   1
  -1  -8   1  626927    8611  -2
  -1   8   1  626927    8611   1
   0   8   1   51270     657   1
   1   8   1   23272     421   1
   2   8   1   44098     555   1
   0  -8  -4   19651     556  -2
   3   8   1   19651     556   1
   4   8   1  118079    1277   1
   5   8   1    6995     324   1
   1  -8  -8   11172     568  -2
   6   8   1   11172     568   1
   7   8   1     343     186   1
   8   8   1   13264     679   1
   9   8   1  122878    1502   1
   2  -8 -13  194706    2635  -2
  10   8   1  194706    2635   1
  11   8   1    1327     465   1
  12   8   1   14681    1283   1
  13   8   1   16511    1148   1
 -13   9   1     820     443   1
  -4  -9  15     872     337  -2
 -12   9   1     872     337   1
 -11   9   1   44328     956   1
 -10   9   1  116487    1565   1
  -9   9   1  146903    1683   1
  -8   9   1  263485    5321   1
  -7   9   1   63265    1133   1
  -6   9   1   92615    1573   1
  -5   9   1   80165    1408   1
  -4   9   1  339144    2082   1
  -3   9   1    6429     310   1
  -2   9   1    5562     330   1
  -1  -9   1   13092     488  -2
  -1   9   1   13092     488   1
   0   9   1  200082    1900   1
   1   9   1  262655    6515   1
   2   9   1  337685    4230   1
   0  -9  -4   15492    4817  -2
   3   9   1   15492    4817   1
   4   9   1   16503     494   1
   5   9   1     794     213   1
   1  -9  -8  263994    3783  -2
   6   9   1  263994    3783   1
   7   9   1    6647     472   1
   8   9   1   80192    1417   1
   9   9   1   37770     879   1
   2  -9 -13    7297     493  -2
  10   9   1    7297     493   1
  11   9   1   17787     705   1
  12   9   1   13285    1164   1
  13   9   1    1007     368   1
 -13  10   1   13221     903   1
  -4 -10  15    6710    1023  -2
 -12  10   1    6710    1023   1
 -11  10   1    4013     413   1
 -10  10   1   29823     865   1
  -9  10   1   15180     700   1
  -8  10   1   68678    2349   1
  -7  10   1   40399    1048   1
  -6  10   1   65237    1124   1
  -5  10   1   58978    1033   1
  -4  10   1  206918    1726   1
  -3  10   1    2985     272   1
  -2  10   1   18000     538   1
  -1 -10   1    2059     214  -2
  -1  10   1    2059     214   1
   0  10   1    9028     354   1
   1  10   1   53482     790   1
   2  10   1   22700     407   1
   0 -10  -4   33546    1453  -2
   3  10   1   33546    1453   1
   4  10   1   11932     501   1
   5  10   1   13704     542   1
   1 -10  -8  181536    2273  -2
   6  10   1  181536    2273   1
   7  10   1  257699    3073   1
   8  10   1   85313    1565   1
   9  10   1    4399     647   1
   2 -10 -13   54119    1461  -2
  10  10   1   54119    1461   1
  11  10   1   15418    1104   1
  12  10   1   11278    1237   1
  13  10   1    3590     691   1
 -13  11   1    1076     333   1
  -4 -11  15    1169     243  -2
 -12  11   1    1169     243   1
 -11  11   1    2888     388   1
 -10  11   1   49213    1063   1
  -9  11   1    3070     417   1
  -8  11   1  454217    4042   1
  -7  11   1   94032    1523   1
  -6  11   1   20367     754   1
  -2 -11   6   11332    1255  -2
  -5  11   1   11332    1255   1
  -4  11   1    3471     295   1
  -3  11   1    2121     229   1
  -2  11   1   24735     674   1
  -1 -11   1    6193     357  -2
  -1  11   1    6193     357   1
   0  11   1    7644     525   1
   1  11   1   12129     441   1
   2  11   1   86422    1196   1
   0 -11  -4  173173    1917  -2
   3  11   1  173173    1917   1
   4  11   1   14348     606   1
   5  11   1  142581    1896   1
   1 -11  -8  131333    1941  -2
   6  11   1  131333    1941   1
   7  11   1   96283    2348   1
   8  11   1    6942     546   1
   9  11   1   55235    1347   1
   2 -11 -13   30041     884  -2
  10  11   1   30041     884   1
  11  11   1    1258     374   1
  12  11   1     411     326   1
  -4 -12  15    1314     600  -2
 -12  12   1    1314     600   1
 -11  12   1     513     273   1
 -10  12   1    1712     304   1
  -9  12   1  182096    3271   1
  -8  12   1   23499     520   1
  -7  12   1     612     249   1
  -6  12   1    1054     246   1
  -2 -12   6   69896    2152  -2
  -5  12   1   69896    2152   1
  -4  12   1   29867     767   1
  -3  12   1    9569     951   1
  -2  12   1   82788    1363   1
  -1 -12   1  123552    1683  -2
  -1  12   1  123552    1683   1
   0  12   1   70481    1033   1
   1  12   1    4742     242   1
   2  12   1   89831    1257   1
   0 -12  -4  190439    2497  -2
   3  12   1  190439    2497   1
   4  12   1    2125     194   1
   5  12   1    7957     527   1
   1 -12  -8   42393    1033  -2
   6  12   1   42393    1033   1
   7  12   1  147184    1920   1
   8  12   1   17700     499   1
   9  12   1    1422     283   1
   2 -12 -13    5496     401  -2
  10  12   1    5496     401   1
  11  12   1    2880     438   1
  12  12   1   18815    1223   1
  -4 -13  15    2437     956  -2
 -12  13   1    2437     956   1
 -11  13   1   19748    1123   1
 -10  13   1     608     374   1
  -9  13   1   28198     942   1
  -8  13   1   12635     555   1
  -7  13   1   15551     743   1
  -6  13   1    2792     311   1
  -2 -13   6   10604     892  -2
  -5  13   1   10604     892   1
  -4  13   1   98107    1769   1
  -3  13   1   65044    1282   1
  -2  13   1   37354     925   1
  -1 -13   1   19585     944  -2
  -1  13   1   19585     944   1
   0  13   1   22614     604   1
   1  13   1    2124     326   1
   2  13   1    7862     356   1
   0 -13  -4   40931     954  -2
   3  13   1   40931     954   1
   4  13   1   18807     598   1
   5  13   1  286287    6263   1
   1 -13  -8  287807    2925  -2
   6  13   1  287807    2925   1
   7  13   1  349296    6189   1
   8  13   1    3593     314   1
   9  13   1     386     261   1
   2 -13 -13   15756    1117  -2
  10  13   1   15756    1117   1
  11  13   1     606     666   1
  12  13   1    2945     554   1
  -4 -14  15   40179    2179  -2
 -12  14   1   40179    2179   1
 -11  14   1   11901    1466   1
 -10  14   1   24806    1986   1
  -9  14   1    3031     409   1
  -3 -14  10   14081    1178  -2
  -8  14   1   14081    1178   1
  -7  14   1   16916     519   1
  -6  14   1     854     166   1
  -2 -14   6   16544     631  -2
  -5  14   1   16544     631   1
  -4  14   1   64786    1300   1
  -3  14   1   32991     989   1
  -2  14   1  486224   36944   1
  -1 -14   1   43311    1471  -2
  -1  14   1   43311    1471   1
   0  14   1   25977     944   1
   1  14   1   71485    1074   1
   2  14   1   31473     814   1
   0 -14  -4  211241    3184  -2
   3  14   1  211241    3184   1
   4  14   1  227329    2906   1
   5  14   1   21644     545   1
   1 -14  -8   68412    1367  -2
   6  14   1   68412    1367   1
   7  14   1   38880    1658   1
   8  14   1    9290     810   1
   9  14   1   10227     730   1
   2 -14 -13    1881     450  -2
  10  14   1    1881     450   1
  11  14   1    1665     513   1
 -11  15   1    1106     485   1
 -10  15   1    5097     625   1
  -9  15   1    1160     399   1
  -3 -15  10    2860     571  -2
  -8  15   1    2860     571   1
  -7  15   1    6173     552   1
  -6  15   1    7613     567   1
  -2 -15   6  170880    2352  -2
  -5  15   1  170880    2352   1
  -4  15   1    2690     338   1
  -3  15   1     905     274   1
  -2  15   1  142613    3631   1
  -1 -15   1     599     479  -2
  -1  15   1     599     479   1
   0  15   1  156049    3090   1
   1  15   1    2308     180   1
   2  15   1  254106    2949   1
   0 -15  -4  375440    4605  -2
   3  15   1  375440    4605   1
   4  15   1  129040    1606   1
   5  15   1   43335    1056   1
   1 -15  -8   43239    1094  -2
   6  15   1   43239    1094   1
   7  15   1    4993     428   1
   8  15   1   10892     881   1
   9  15   1   13776    1210   1
   2 -15 -13   13742     967  -2
  10  15   1   13742     967   1
  11  15   1   27446    1869   1
 -10  16   1    3345     495   1
  -9  16   1    3324     917   1
  -3 -16  10   44544    1344  -2
  -8  16   1   44544    1344   1
  -7  16   1   53135    1506   1
  -6  16   1    6689     447   1
  -2 -16   6    1030     259  -2
  -5  16   1    1030     259   1
  -4  16   1    7345     374   1
  -3  16   1   34968    2093   1
  -2  16   1   18240     961   1
  -1 -16   1   11637     578  -2
  -1  16   1   11637     578   1
   0  16   1   14869     686   1
   1  16   1  131658    2950   1
   2  16   1   21287     701   1
   0 -16  -4    1117     216  -2
   3  16   1    1117     216   1
   4  16   1  177485    2128   1
   5  16   1    1587     403   1
   1 -16  -8   64046    1934  -2
   6  16   1   64046    1934   1
   7  16   1   14095     681   1
   8  16   1   16975     772   1
   9  16   1   16837    1087   1
   2 -16 -13    1497     407  -2
  10  16   1    1497     407   1
 -10  17   1    7489    1177   1
  -9  17   1    2203     374   1
  -3 -17  10    1900     520  -2
  -8  17   1    1900     520   1
  -7  17   1   23164     830   1
  -6  17   1    1264     435   1
  -2 -17   6   12528     993  -2
  -5  17   1   12528     993   1
  -4  17   1   42146    1548   1
  -3  17   1    3822     535   1
  -2  17   1   34422    1070   1
  -1 -17   1  144899    3414  -2
  -1  17   1  144899    3414   1
   0  17   1   81019    1861   1
   1  17   1    3040     586   1
   2  17   1   20103     819   1
   0 -17  -4  231370    3095  -2
   3  17   1  231370    3095   1
   4  17   1   25673     789   1
   5  17   1   10760     565   1
   1 -17  -8     874     648  -2
   6  17   1     874     648   1
   7  17   1   12249     645   1
   8  17   1    1324     613   1
   9  17   1   28795    1089   1
   2 -17 -13    4318     712  -2
  10  17   1    4318     712   1
  -9  18   1    7067    1245   1
  -3 -18  10    7938    1682  -2
  -8  18   1    7938    1682   1
  -7  18   1    1122     311   1
  -6  18   1   25878    1056   1
  -2 -18   6   48007    2137  -2
  -5  18   1   48007    2137   1
  -4  18   1   21748     948   1
  -3  18   1   48582    1487   1
  -2  18   1   22303    1047   1
  -1 -18   1   65499    2853  -2
  -1  18   1   65499    2853   1
   0  18   1  168568    2926   1
   1  18   1  166432    3368   1
   2  18   1    4357     669   1
   0 -18  -4  138872    2771  -2
   3  18   1  138872    2771   1
   4  18   1   75945    1592   1
   5  18   1     916     512   1
   1 -18  -8   11115    1324  -2
   6  18   1   11115    1324   1
   7  18   1   22866     905   1
   8  18   1    1712     520   1
   9  18   1     907     453   1
  -3 -19  10    3128     505  -2
  -8  19   1    3128     505   1
  -7  19   1    8118    1270   1
  -6  19   1    5243     784   1
  -2 -19   6    8913    1459  -2
  -5  19   1    8913    1459   1
  -4  19   1   10917    1757   1
  -3  19   1    1183     596   1
  -2  19   1    4134     634   1
  -1 -19   1    4036     559  -2
  -1  19   1    4036     559   1
   0  19   1   61121    1695   1
   1  19   1   29068    1427   1
   2  19   1   35512    1623   1
   0 -19  -4   14722    1642  -2
   3  19   1   14722    1642   1
   4  19   1    1142     485   1
   5  19   1    5051     619   1
   1 -19  -8   40747    1344  -2
   6  19   1   40747    1344   1
   7  19   1    5482     835   1
   8  19   1    1888     643   1
  -7  20   1   18779    1387   1
  -6  20   1    1470     520   1
  -2 -20   6    6409    1355  -2
  -5  20   1    6409    1355   1
  -4  20   1    2665     543   1
  -3  20   1    3832    1055   1
  -2  20   1    2887     616   1
  -1 -20   1   24254    1181  -2
  -1  20   1   24254    1181   1
   0  20   1    1295     846   1
   1  20   1    1015     455   1
   2  20   1    4180    1316   1
   0 -20  -4   37703    1609  -2
   3  20   1   37703    1609   1
   4  20   1    2239     583   1
   5  20   1   44209    1336   1
   1 -20  -8    3215    1205  -2
   6  20   1    3215    1205   1
   7  20   1     561     322   1
  -6  21   1    1088     474   1
  -2 -21   6    3080    1002  -2
  -5  21   1    3080    1002   1
  -4  21   1    4683    1674   1
  -3  21   1   33785    1890   1
  -2  21   1   15856    1200   1
  -1 -21   1   24714    1401  -2
  -1  21   1   24714    1401   1
   0  21   1   10253    1842   1
   1  21   1   30676    1302   1
   2  21   1     959     459   1
   0 -21  -4    7992     873  -2
   3  21   1    7992     873   1
   4  21   1    2288     516   1
   5  21   1   25113    1698   1
   1 -21  -8     921     538  -2
   6  21   1     921     538   1
  -2 -22   6   13961    2926  -2
  -5  22   1   13961    2926   1
  -4  22   1    1741     498   1
  -3  22   1    2422    1177   1
  -2  22   1    1084     594   1
  -1 -22   1   44159    1956  -2
  -1  22   1   44159    1956   1
   0  22   1    5249     748   1
   1  22   1    5507     795   1
   2  22   1    8281    1057   1
   0 -22  -4    3878    1413  -2
   3  22   1    3878    1413   1
   4  22   1     -10     415   1
   5  22   1    2058    1141   1
  -3  23   1     742     542   1
  -2  23   1    4496     765   1
  -1 -23   1   25386    1124  -2
  -1  23   1   25386    1124   1
   0  23   1   17138    1644   1
   1  23   1    2790     587   1
   2  23   1   10201    1105   1
 -14   0   2     682     486   1
 -12   0   2    8103    1085   1
 -10   0   2  106414    2125   1
  -8   0   2   54580    1602   1
  -6   0   2    9199     927   1
  -4   0   2  221897    3916   1
   0   0   2  399373    2687   1
   4   0   2  124135    1696   1
   6   0   2  119991    2787   1
   8   0   2  104924    2270   1
  10   0   2    6600     547   1
  12   0   2   44975    1297   1
  14   0   2     212     417   1
 -15   1   2    1949     385   1
 -14   1   2    1999     331   1
  -5  -1  16   16801    1110  -2
 -13   1   2   16801    1110   1
 -12   1   2    9915     758   1
 -11   1   2    3919     472   1
 -10   1   2   25757     674   1
  -9   1   2   36745    2535   1
  -8   1   2   13231     494   1
  -7   1   2    3022     311   1
  -6   1   2  111302    2716   1
  -5   1   2   71775    1898   1
  -4   1   2  220754    2298   1
  -3   1   2 1276188   16741   1
  -2  -1   2  531364    3122  -2
  -2   1   2  531364    3122   1
  -1   1   2 1370695   15296   1
   0   1   2 1066101    6166   1
   1   1   2  976671   10169   1
  -1  -1  -3   85690    1288  -2
   2   1   2   85690    1288   1
   3   1   2  116216     793   1
   4   1   2    2450     181   1
   0  -1  -7  296797    2097  -2
   5   1   2  296797    2097   1
   6   1   2  271829    3131   1
   7   1   2   53226     975   1
   8   1   2    5957     352   1
   1  -1 -12  206575    1599  -2
   9   1   2  206575    1599   1
  10   1   2   40004     866   1
  11   1   2     968     220   1
  12   1   2   50272     912   1
  13   1   2    1887     406   1
  14   1   2    1240     401   1
 -14   2   2     822     419   1
  -5  -2  16     284     691  -2
 -13   2   2     284     691   1
 -12   2   2    1568     390   1
 -11   2   2   13595     457   1
 -10   2   2   12690     465   1
  -9   2   2    9733     659   1
  -8   2   2   29675     876   1
  -7   2   2  196956    2465   1
  -6   2   2   24582     627   1
  -5   2   2   56622     698   1
  -4   2   2  251548    1780   1
  -3   2   2   76331     760   1
  -2  -2   2 1172438    8466  -2
  -2   2   2 1172438    8466   1
  -1   2   2   29267     408   1
   0   2   2  314082    4489   1
   1   2   2      76     147   1
  -1  -2  -3 1306975   14690  -2
   2   2   2 1306975   14690   1
   3   2   2   92536     856   1
   4   2   2  374252    2341   1
   0  -2  -7  637588    6225  -2
   5   2   2  637588    6225   1
   6   2   2   57955     957   1
   7   2   2   23791     595   1
   8   2   2    3671     324   1
   1  -2 -12   98873     835  -2
   9   2   2   98873     835   1
  10   2   2   11055     515   1
  11   2   2     802     301   1
  12   2   2   18926     681   1
  13   2   2    6470     682   1
  14   2   2    1249     403   1
 -14   3   2    1215     354   1
  -5  -3  16    7283     916  -2
 -13   3   2    7283     916   1
 -12   3   2    4513     747   1
 -11   3   2   23223     741   1
 -10   3   2   65399    1116   1
  -9   3   2   37936    1071   1
  -8   3   2     197     164   1
  -7   3   2    5220     516   1
  -6   3   2  360641    7606   1
  -5   3   2   14841     322   1
  -4   3   2    8644     215   1
  -3   3   2  443938    2247   1
  -2  -3   2    9497     149  -2
  -2   3   2    9497     149   1
  -1   3   2  540820    6932   1
   0   3   2   40918     457   1
   1   3   2    1231     105   1
  -1  -3  -3  392281   12593  -2
   2   3   2  392281   12593   1
   3   3   2  360842    1973   1
   4   3   2  293281    1869   1
   0  -3  -7   82970    1174  -2
   5   3   2   82970    1174   1
   6   3   2  302438    4215   1
   7   3   2  316195    4488   1
   8   3   2  107721    1535   1
   1  -3 -12   67094    1309  -2
   9   3   2   67094    1309   1
  10   3   2    6256     349   1
  11   3   2    6984     369   1
  12   3   2   22299     793   1
  13   3   2   43610    1180   1
  14   3   2    3469     480   1
 -14   4   2    7165     685   1
  -5  -4  16   17874     708  -2
 -13   4   2   17874     708   1
 -12   4   2    6146     625   1
 -11   4   2    4662     455   1
 -10   4   2    4286     432   1
  -9   4   2   46641    1822   1
  -8   4   2   50018    1043   1
  -7   4   2     564     206   1
  -6   4   2  265680    3348   1
  -5   4   2  327970    3925   1
  -4   4   2   57132     524   1
  -3   4   2  219682    1275   1
  -2  -4   2  108366     999  -2
  -2   4   2  108366     999   1
  -1   4   2  182585    1328   1
   0   4   2  143231     965   1
   1   4   2  479150    2998   1
  -1  -4  -3    7336     124  -2
   2   4   2    7336     124   1
   3   4   2  246095    1509   1
   4   4   2   30031     649   1
   0  -4  -7  132851    1507  -2
   5   4   2  132851    1507   1
   6   4   2  228473    1751   1
   7   4   2  282178    3320   1
   8   4   2   43888    1554   1
   1  -4 -12  119513    1952  -2
   9   4   2  119513    1952   1
  10   4   2  107000    1695   1
  11   4   2   50948     973   1
  12   4   2     881     249   1
  13   4   2   12695    1301   1
  14   4   2    1603     369   1
 -14   5   2   14522    1289   1
  -5  -5  16    1269     278  -2
 -13   5   2    1269     278   1
 -12   5   2     830     266   1
 -11   5   2     982     299   1
 -10   5   2    1239     195   1
  -9   5   2   66416    1325   1
  -8   5   2    5229     397   1
  -7   5   2   70394    1290   1
  -6   5   2  159204    4340   1
  -5   5   2  307995    1824   1
  -4   5   2     375      97   1
  -3   5   2   24671     264   1
  -2  -5   2  913410    7406  -2
  -2   5   2  913410    7406   1
  -1   5   2  300484    2438   1
   0   5   2  385785    2306   1
   1   5   2    5769     126   1
  -1  -5  -3    5324     117  -2
   2   5   2    5324     117   1
   3   5   2   77342     723   1
   4   5   2   45126     556   1
   0  -5  -7   31024    2492  -2
   5   5   2   31024    2492   1
   6   5   2  350975    2626   1
   7   5   2  139260    1589   1
   8   5   2   49917    1231   1
   1  -5 -12   39514    1076  -2
   9   5   2   39514    1076   1
  10   5   2   50011    1144   1
  11   5   2    9257     531   1
  12   5   2   26933    1662   1
  13   5   2   37240    2049   1
  14   5   2    8278     901   1
 -14   6   2   18111    1280   1
  -5  -6  16    1896     311  -2
 -13   6   2    1896     311   1
 -12   6   2    3813     423   1
 -11   6   2    6568     498   1
 -10   6   2    1603     409   1
  -9   6   2   49298    1935   1
  -8   6   2     617     231   1
  -7   6   2  122999    1790   1
  -6   6   2    7759     368   1
  -5   6   2  204703    2446   1
  -4   6   2   22982     395   1
  -3   6   2  332876    1648   1
  -2  -6   2   75410     735  -2
  -2   6   2   75410     735   1
  -1   6   2  285323    1850   1
   0   6   2   30750     311   1
   1   6   2  104201     940   1
  -1  -6  -3  123048     853  -2
   2   6   2  123048     853   1
   3   6   2   71482     852   1
   4   6   2    1110     164   1
   0  -6  -7   77904     937  -2
   5   6   2   77904     937   1
   6   6   2   18808     595   1
   7   6   2   37932     756   1
   8   6   2   41159    1086   1
   1  -6 -12  121346    1813  -2
   9   6   2  121346    1813   1
  10   6   2   43653    1079   1
  11   6   2    4240     485   1
  12   6   2   37528    1086   1
  13   6   2    3458     429   1
  14   6   2    1702     393   1
 -14   7   2     947     317   1
  -5  -7  16     826     358  -2
 -13   7   2     826     358   1
 -12   7   2     793     371   1
 -11   7   2    6063     476   1
 -10   7   2   17201    1216   1
  -9   7   2   35360    2067   1
  -8   7   2   27364     729   1
  -7   7   2  191506    2091   1
  -6   7   2   17405     581   1
  -5   7   2   77660     870   1
  -4   7   2  181397    1568   1
  -3   7   2   99091    1051   1
  -2  -7   2   48265     696  -2
  -2   7   2   48265     696   1
  -1   7   2  962612    7040   1
   0   7   2   60364     606   1
   1   7   2    3292     132   1
  -1  -7  -3  251435    5235  -2
   2   7   2  251435    5235   1
   3   7   2  183718    1573   1
   4   7   2  291441    2790   1
   0  -7  -7    2983     295  -2
   5   7   2    2983     295   1
   6   7   2   23739     708   1
   7   7   2   11999     509   1
   8   7   2  196760    2703   1
   1  -7 -12   78566    1492  -2
   9   7   2   78566    1492   1
  10   7   2    6303     459   1
  11   7   2    9935     580   1
  12   7   2    1036     725   1
  13   7   2   38875    1591   1
 -14   8   2    2593     601   1
  -5  -8  16   13816     825  -2
 -13   8   2   13816     825   1
 -12   8   2     832     245   1
 -11   8   2     528     477   1
 -10   8   2    8922     501   1
  -9   8   2   77280    4857   1
  -8   8   2   20301    1046   1
  -7   8   2   35180     866   1
  -6   8   2   19092    1275   1
  -5   8   2     463      91   1
  -4   8   2  193359    1679   1
  -3   8   2  150321    1251   1
  -2  -8   2  907125    9321  -2
  -2   8   2  907125    9321   1
  -1   8   2   77857     930   1
   0   8   2  178517    1630   1
   1   8   2    5772     312   1
  -1  -8  -3  224443    5667  -2
   2   8   2  224443    5667   1
   3   8   2   66355     691   1
   4   8   2  346188    5228   1
   0  -8  -7   94987    1319  -2
   5   8   2   94987    1319   1
   6   8   2    2976     345   1
   7   8   2   21062     797   1
   8   8   2    4680     439   1
   1  -8 -12  132925    1459  -2
   9   8   2  132925    1459   1
  10   8   2    2601     341   1
  11   8   2   15184    1111   1
  12   8   2   16281     883   1
  13   8   2    3571     925   1
  -5  -9  16   10049     839  -2
 -13   9   2   10049     839   1
 -12   9   2    1655     386   1
 -11   9   2     761     251   1
 -10   9   2   30377     839   1
  -9   9   2   59089    1106   1
  -8   9   2    1408     199   1
  -7   9   2   42852    1053   1
  -6   9   2   56308    1180   1
  -5   9   2  163133    2069   1
  -4   9   2   24551     464   1
  -3   9   2   14092     441   1
  -2  -9   2  184850    2365  -2
  -2   9   2  184850    2365   1
  -1   9   2   55069    1422   1
   0   9   2  489429    4932   1
   1   9   2   45985     752   1
  -1  -9  -3   15936    1177  -2
   2   9   2   15936    1177   1
   3   9   2     425     159   1
   4   9   2   25417     494   1
   0  -9  -7  263777    2078  -2
   5   9   2  263777    2078   1
   6   9   2  104039    1961   1
   7   9   2  332652    2623   1
   8   9   2  112162    1490   1
   1  -9 -12  315007    7328  -2
   9   9   2  315007    7328   1
  10   9   2   17924     648   1
  11   9   2   15797     917   1
  12   9   2    2117     557   1
  13   9   2    7095    1189   1
  -5 -10  16    2262     459  -2
 -13  10   2    2262     459   1
 -12  10   2     867     263   1
 -11  10   2   32552    1046   1
 -10  10   2     507     326   1
  -9  10   2   25753    1213   1
  -8  10   2    1785     231   1
  -7  10   2     488     182   1
  -6  10   2   23695     908   1
  -5  10   2   15028     598   1
  -4  10   2   92530    2298   1
  -3  10   2  228356    4359   1
  -2 -10   2  161706    2638  -2
  -2  10   2  161706    2638   1
  -1  10   2   63344    1051   1
   0  10   2  116145    1635   1
   1  10   2    5946     278   1
  -1 -10  -3  191836    2415  -2
   2  10   2  191836    2415   1
   3  10   2     535     130   1
   4  10   2  243938    3832   1
   0 -10  -7   70854    1350  -2
   5  10   2   70854    1350   1
   6  10   2   37295    2023   1
   7  10   2  124668    1701   1
   8  10   2   85425    1508   1
   1 -10 -12    7408     442  -2
   9  10   2    7408     442   1
  10  10   2   14090     672   1
  11  10   2    9307     645   1
  12  10   2   10393    1114   1
  13  10   2     883     373   1
  -5 -11  16    3640     574  -2
 -13  11   2    3640     574   1
 -12  11   2   33223    1007   1
 -11  11   2     807     251   1
 -10  11   2   37456    1151   1
  -9  11   2   18544    1524   1
  -8  11   2   19626     848   1
  -7  11   2    1604     186   1
  -6  11   2   95584    1453   1
  -5  11   2   23749     722   1
  -4  11   2  188777    2023   1
  -3  11   2    3797     486   1
  -2 -11   2   10653     644  -2
  -2  11   2   10653     644   1
  -1  11   2    3046     204   1
   0  11   2   28628     592   1
   1  11   2   53820    1023   1
  -1 -11  -3   75220    1013  -2
   2  11   2   75220    1013   1
   3  11   2   44511     801   1
   4  11   2   32956    1030   1
   0 -11  -7   98492    1623  -2
   5  11   2   98492    1623   1
   6  11   2    6323     458   1
   7  11   2   45595    1164   1
   8  11   2     915     515   1
   1 -11 -12    4222     395  -2
   9  11   2    4222     395   1
  10  11   2     132     271   1
  11  11   2   24123    1017   1
  12  11   2     767     712   1
 -12  12   2    2602     453   1
 -11  12   2    1151     251   1
 -10  12   2    2263     411   1
  -9  12   2   16970    1323   1
  -8  12   2   13150     578   1
  -7  12   2  176010    1847   1
  -6  12   2  123926    1566   1
  -5  12   2   13653     778   1
  -4  12   2    9207     623   1
  -3  12   2   45245    1225   1
  -2 -12   2    3418     293  -2
  -2  12   2    3418     293   1
  -1  12   2   69377    1186   1
   0  12   2    8770     684   1
   1  12   2   58894     865   1
  -1 -12  -3  151998    2408  -2
   2  12   2  151998    2408   1
   3  12   2     473     166   1
   4  12   2  573628   37615   1
   0 -12  -7  266211    3868  -2
   5  12   2  266211    3868   1
   6  12   2   38126    1004   1
   7  12   2  181301    2023   1
   8  12   2    5081     387   1
   1 -12 -12   17258     764  -2
   9  12   2   17258     764   1
  10  12   2   15322    1030   1
  11  12   2    1424     325   1
  12  12   2     967     458   1
 -12  13   2     624     311   1
 -11  13   2   34454    1297   1
 -10  13   2    1687     564   1
  -9  13   2   26630    1586   1
  -8  13   2    2085     374   1
  -7  13   2  202202    2139   1
  -6  13   2    2660     589   1
  -5  13   2   53407    2773   1
  -4  13   2    1779     317   1
  -3  13   2   12772     961   1
  -2 -13   2     856     373  -2
  -2  13   2     856     373   1
  -1  13   2  123136    1623   1
   0  13   2     304     219   1
   1  13   2   42086     774   1
  -1 -13  -3    6809     469  -2
   2  13   2    6809     469   1
   3  13   2   12205     571   1
   4  13   2   48552     898   1
   0 -13  -7   15053    1446  -2
   5  13   2   15053    1446   1
   6  13   2    3540     267   1
   7  13   2   15887     577   1
   8  13   2    8774     573   1
   1 -13 -12   38178     903  -2
   9  13   2   38178     903   1
  10  13   2   11034     720   1
  11  13   2    3477     542   1
  12  13   2    7522    1028   1
 -12  14   2    7353     944   1
 -11  14   2     827     553   1
 -10  14   2    8301     812   1
  -9  14   2    8618     520   1
  -8  14   2    9244     622   1
  -7  14   2   30535     997   1
  -6  14   2   82936    1654   1
  -5  14   2    9108     818   1
  -4  14   2    4193     501   1
  -3  14   2   41480    1270   1
  -2 -14   2    1283     403  -2
  -2  14   2    1283     403   1
  -1  14   2   34185    1086   1
   0  14   2    2695     237   1
   1  14   2  228857    2830   1
  -1 -14  -3   66868    1096  -2
   2  14   2   66868    1096   1
   3  14   2    4407     420   1
   4  14   2   31126     886   1
   0 -14  -7  115150    3059  -2
   5  14   2  115150    3059   1
   6  14   2    4452     440   1
   7  14   2   64904    1448   1
   8  14   2   11565     630   1
   1 -14 -12    1971     432  -2
   9  14   2    1971     432   1
  10  14   2    1058     466   1
  11  14   2    8333     868   1
 -11  15   2   31009    1449   1
 -10  15   2    1207     420   1
  -9  15   2   11016     846   1
  -8  15   2   17333     810   1
  -7  15   2    7729     518   1
  -6  15   2    7030     528   1
  -5  15   2   14853     877   1
  -4  15   2   67752    1491   1
  -3  15   2     848     356   1
  -2 -15   2   11214     777  -2
  -2  15   2   11214     777   1
  -1  15   2   25053     628   1
   0  15   2   13829     867   1
   1  15   2   77532    1740   1
  -1 -15  -3    5347   10756  -2
   2  15   2    5347   10756   1
   3  15   2   24368     755   1
   4  15   2   52015     998   1
   0 -15  -7   43358    1079  -2
   5  15   2   43358    1079   1
   6  15   2   25497     748   1
   7  15   2   10997     655   1
   8  15   2    1105     505   1
   1 -15 -12    1208     663  -2
   9  15   2    1208     663   1
  10  15   2   17576    1012   1
  11  15   2     338     426   1
 -11  16   2     486     628   1
 -10  16   2    4882     564   1
  -9  16   2   43014    1331   1
  -8  16   2    4131     589   1
  -7  16   2    3055     453   1
  -3 -16   7   47452    1421  -2
  -6  16   2   47452    1421   1
  -5  16   2   43502    1205   1
  -4  16   2    2736     426   1
  -3  16   2   27368     929   1
  -2 -16   2   99613    1432  -2
  -2  16   2   99613    1432   1
  -1  16   2    2189     391   1
   0  16   2   26932     845   1
   1  16   2    4852     429   1
  -1 -16  -3    2689     457  -2
   2  16   2    2689     457   1
   3  16   2  182123    2618   1
   4  16   2  241283    3121   1
   0 -16  -7   89468    1386  -2
   5  16   2   89468    1386   1
   6  16   2    6787     825   1
   7  16   2   25357    1238   1
   8  16   2   10336     957   1
   1 -16 -12    4055     742  -2
   9  16   2    4055     742   1
  10  16   2    8782    1198   1
 -10  17   2   11887    1242   1
  -9  17   2    9447     928   1
  -8  17   2   14928    1149   1
  -7  17   2    2088     449   1
  -3 -17   7   17785    3975  -2
  -6  17   2   17785    3975   1
  -5  17   2   16711     599   1
  -4  17   2    6116     638   1
  -3  17   2    7694     548   1
  -2 -17   2   26199     967  -2
  -2  17   2   26199     967   1
  -1  17   2   11690     656   1
   0  17   2   19446     723   1
   1  17   2  135991    5419   1
  -1 -17  -3    7580     798  -2
   2  17   2    7580     798   1
   3  17   2    9210     716   1
   4  17   2   49562    1382   1
   0 -17  -7    3597     458  -2
   5  17   2    3597     458   1
   6  17   2   40697     962   1
   7  17   2    4977     730   1
   8  17   2    2065     795   1
   1 -17 -12    4308     508  -2
   9  17   2    4308     508   1
  -9  18   2   29999    1148   1
  -8  18   2    3599     567   1
  -7  18   2    1072     292   1
  -3 -18   7    1286     649  -2
  -6  18   2    1286     649   1
  -5  18   2    4177     656   1
  -4  18   2    2703     468   1
  -3  18   2   82289    2099   1
  -2 -18   2  162689    5397  -2
  -2  18   2  162689    5397   1
  -1  18   2    5494     605   1
   0  18   2   41626    1874   1
   1  18   2    1680     514   1
  -1 -18  -3   63262    2042  -2
   2  18   2   63262    2042   1
   3  18   2   17953     813   1
   4  18   2    8501     667   1
   0 -18  -7   23297    1221  -2
   5  18   2   23297    1221   1
   6  18   2     772     755   1
   7  18   2    9417    1186   1
   8  18   2   16015    1307   1
   1 -18 -12    9698    1872  -2
   9  18   2    9698    1872   1
  -8  19   2    3074     462   1
  -7  19   2   31383    1718   1
  -3 -19   7    2709     584  -2
  -6  19   2    2709     584   1
  -5  19   2   14530    1420   1
  -4  19   2     657     366   1
  -3  19   2    7273     962   1
  -2 -19   2    8793     913  -2
  -2  19   2    8793     913   1
  -1  19   2    1305     518   1
   0  19   2   25132    1585   1
   1  19   2    8079     772   1
  -1 -19  -3   65027    2535  -2
   2  19   2   65027    2535   1
   3  19   2     978     686   1
   4  19   2    6997     576   1
   0 -19  -7    1718     467  -2
   5  19   2    1718     467   1
   6  19   2    1518     967   1
   7  19   2    5094     957   1
   8  19   2    1417     690   1
  -7  20   2    2737     519   1
  -3 -20   7   17698    2768  -2
  -6  20   2   17698    2768   1
  -5  20   2   12950    1177   1
  -4  20   2     534     470   1
  -3  20   2   19662     920   1
  -2 -20   2   25326    1960  -2
  -2  20   2   25326    1960   1
  -1  20   2    1716     757   1
   0  20   2   32206    1208   1
   1  20   2   79919    5284   1
  -1 -20  -3   50901    1751  -2
   2  20   2   50901    1751   1
   3  20   2    3284     695   1
   4  20   2   21035    1010   1
   0 -20  -7   32492    2117  -2
   5  20   2   32492    2117   1
   6  20   2   22733    2071   1
   7  20   2   10375    1255   1
  -3 -21   7    2571     520  -2
  -6  21   2    2571     520   1
  -5  21   2    7413     954   1
  -4  21   2   11634    1006   1
  -3  21   2   30100    1509   1
  -2 -21   2    2024     934  -2
  -2  21   2    2024     934   1
  -1  21   2   16691    1548   1
   0  21   2    4872    1227   1
   1  21   2    1419     440   1
  -1 -21  -3   13742    1317  -2
   2  21   2   13742    1317   1
   3  21   2    6114     919   1
   4  21   2   18457    1017   1
   0 -21  -7    1852     406  -2
   5  21   2    1852     406   1
   6  21   2    5094     851   1
  -5  22   2   29840    1547   1
  -4  22   2    4124    1476   1
  -3  22   2    7463    1370   1
  -2 -22   2   82092    3504  -2
  -2  22   2   82092    3504   1
  -1  22   2    2220     628   1
   0  22   2   20134    1480   1
   1  22   2    8615    1030   1
  -1 -22  -3   20545    1079  -2
   2  22   2   20545    1079   1
   3  22   2    1081     926   1
   4  22   2    1221     409   1
  -2 -23   2   14231    1409  -2
  -2  23   2   14231    1409   1
  -1  23   2   19218    1287   1
   0  23   2    2933    1062   1
   1  23   2    4923     686   1
  -1 -23  -3    1014     443  -2
   2  23   2    1014     443   1
 -15   0   3    5810    1390   1
 -13   0   3    6790     966   1
 -11   0   3   38802    2013   1
  -9   0   3  184335    2373   1
  -5   0   3  272143    3063   1
  -3   0   3  101901    1129  -2
  -3   0   3  101901    1129   1
  -1   0   3 1374044    9109   1
  -2   0  -2 3207018  143872  -2
   1   0   3 3207018  143872   1
   3   0   3  287968   10789   1
   5   0   3   56393    1558   1
   7   0   3  423581    4456   1
   9   0   3  206799    2637   1
  11   0   3   22692     767   1
  13   0   3     425     425   1
 -15   1   3    1721     385   1
  -6  -1  17    3814     767  -2
 -14   1   3    3814     767   1
 -13   1   3     803     455   1
 -12   1   3    8044     912   1
 -11   1   3    2643     342   1
 -10   1   3   13272     450   1
  -9   1   3  113243    1769   1
  -8   1   3    8156     387   1
  -7   1   3   10401     365   1
  -6   1   3    9317     375   1
  -5   1   3   63181     758   1
  -4   1   3  118241     907   1
  -3  -1   3  641612    6886  -2
  -3   1   3  641612    6886   1
  -2   1   3   79845     776   1
  -1   1   3  192605    1590   1
  -2  -1  -2  257869    1754  -2
   1   1   3  257869    1754   1
   2   1   3  543900    3996   1
   3   1   3   68115     655   1
  -1  -1  -6   51404     833  -2
   4   1   3   51404     833   1
   5   1   3     374     138   1
   6   1   3   18547     579   1
   7   1   3  438832    3274   1
   0  -1 -11   13272     692  -2
   8   1   3   13272     692   1
   9   1   3     957     255   1
  10   1   3  123173    1794   1
  11   1   3   77483    1260   1
  12   1   3   13540     769   1
  13   1   3    1204     198   1
  14   1   3    2831     701   1
  -6  -2  17    1811     357  -2
 -14   2   3    1811     357   1
 -13   2   3    1696     306   1
 -12   2   3    9131     511   1
 -11   2   3   10961     638   1
 -10   2   3   32425    1362   1
  -9   2   3  152211    3268   1
  -8   2   3  153545    1790   1
  -7   2   3   26211     616   1
  -6   2   3    2626     684   1
  -5   2   3  185147    1592   1
  -4   2   3  141934    1215   1
  -3  -2   3  464115    2650  -2
  -3   2   3  464115    2650   1
  -2   2   3  907781    8343   1
  -1   2   3  244181    3167   1
   0   2   3     171      88   1
  -2  -2  -2 1213484   13724  -2
   1   2   3 1213484   13724   1
   2   2   3   14581     208   1
   3   2   3    1869     160   1
  -1  -2  -6 1018326    9037  -2
   4   2   3 1018326    9037   1
   5   2   3  187298    1813   1
   6   2   3     903     134   1
   7   2   3   51892     952   1
   0  -2 -11  217446    2243  -2
   8   2   3  217446    2243   1
   9   2   3    3339     344   1
  10   2   3   70964    1169   1
  11   2   3    8240     612   1
  12   2   3   18903     604   1
  13   2   3    2432     425   1
  14   2   3    1313     342   1
  -6  -3  17   11622     797  -2
 -14   3   3   11622     797   1
 -13   3   3    1084     259   1
 -12   3   3   11266     922   1
 -11   3   3    1932     377   1
 -10   3   3   12550     867   1
  -9   3   3    1099     358   1
  -8   3   3   84001    1850   1
  -7   3   3  129375    2201   1
  -6   3   3    4512     707   1
  -5   3   3    8020     460   1
  -4   3   3    5192     209   1
  -3  -3   3   78069     700  -2
  -3   3   3   78069     700   1
  -2   3   3  115205     974   1
  -1   3   3   51412     530   1
   0   3   3 2264613   17690   1
  -2  -3  -2  257787    7839  -2
   1   3   3  257787    7839   1
   2   3   3   83268     927   1
   3   3   3  320927    3006   1
  -1  -3  -6  184119    2979  -2
   4   3   3  184119    2979   1
   5   3   3   41041     761   1
   6   3   3   12541     467   1
   7   3   3   87061    1466   1
   0  -3 -11   36413    1473  -2
   8   3   3   36413    1473   1
   9   3   3   85618    1395   1
  10   3   3  108494    1301   1
  11   3   3    2225     289   1
  12   3   3    4237    1103   1
  13   3   3    1795     417   1
  14   3   3    4640     690   1
  -6  -4  17    5541     647  -2
 -14   4   3    5541     647   1
 -13   4   3   12353     706   1
 -12   4   3   14733     653   1
 -11   4   3   17279     677   1
 -10   4   3   27430     986   1
  -9   4   3   37689    1018   1
  -8   4   3     848     166   1
  -7   4   3  158693    2594   1
  -6   4   3   19190     842   1
  -5   4   3  150815    3158   1
  -4   4   3  126536    1334   1
  -3  -4   3   40534     406  -2
  -3   4   3   40534     406   1
  -2   4   3   43702     440   1
  -1   4   3   22407     299   1
   0   4   3  182431    1179   1
  -2  -4  -2  126476     789  -2
   1   4   3  126476     789   1
   2   4   3  469445    3612   1
   3   4   3  192393    1473   1
  -1  -4  -6   66413     783  -2
   4   4   3   66413     783   1
   5   4   3   16844     529   1
   6   4   3   36555     762   1
   7   4   3  124277    2205   1
   0  -4 -11   30086     882  -2
   8   4   3   30086     882   1
   9   4   3    3326     375   1
  10   4   3   50678    1051   1
  11   4   3   24141     736   1
  12   4   3   89338    2078   1
  13   4   3     805     484   1
  14   4   3     627     321   1
  -6  -5  17    5876    1060  -2
 -14   5   3    5876    1060   1
 -13   5   3    7392     626   1
 -12   5   3    3174     382   1
 -11   5   3   58767    1269   1
 -10   5   3   29353     870   1
  -9   5   3     345     237   1
  -8   5   3   32879     916   1
  -7   5   3   51442    1643   1
  -6   5   3  165878    2116   1
  -5   5   3    6985     460   1
  -4   5   3 1057827    9580   1
  -3  -5   3  100446     988  -2
  -3   5   3  100446     988   1
  -2   5   3   63005     591   1
  -1   5   3  144369     950   1
   0   5   3  248470    2653   1
  -2  -5  -2   57193     535  -2
   1   5   3   57193     535   1
   2   5   3   17230     257   1
   3   5   3  936591    5724   1
  -1  -5  -6  271076    3059  -2
   4   5   3  271076    3059   1
   5   5   3  855320    6271   1
   6   5   3  203278    1609   1
   7   5   3   24000     671   1
   0  -5 -11   65779    1291  -2
   8   5   3   65779    1291   1
   9   5   3    9541     491   1
  10   5   3  109787    1646   1
  11   5   3   10443     488   1
  12   5   3    5864     445   1
  13   5   3   14936    1660   1
  -6  -6  17    5447     633  -2
 -14   6   3    5447     633   1
 -13   6   3    1637     317   1
 -12   6   3    5840     549   1
 -11   6   3     787     201   1
 -10   6   3    8065     596   1
  -9   6   3   15806     552   1
  -8   6   3     751     210   1
  -7   6   3   30830     810   1
  -6   6   3  158414    2595   1
  -5   6   3     348     121   1
  -4   6   3  564259    4575   1
  -3  -6   3   60361     688  -2
  -3   6   3   60361     688   1
  -2   6   3  446242    4518   1
  -1   6   3  300627    1881   1
   0   6   3   69623     625   1
  -2  -6  -2    2455     166  -2
   1   6   3    2455     166   1
   2   6   3   82026     865   1
   3   6   3    8623     235   1
  -1  -6  -6   67864     917  -2
   4   6   3   67864     917   1
   5   6   3   33851     560   1
   6   6   3    9128     386   1
   7   6   3  143827    1512   1
   0  -6 -11   18487    1140  -2
   8   6   3   18487    1140   1
   9   6   3   10310     518   1
  10   6   3    3659     505   1
  11   6   3     995     311   1
  12   6   3   21778    1146   1
  13   6   3    3009     364   1
  -6  -7  17    5586    1018  -2
 -14   7   3    5586    1018   1
 -13   7   3    8389     660   1
 -12   7   3    5735     545   1
 -11   7   3     908     253   1
 -10   7   3   43280     741   1
  -9   7   3     712     223   1
  -8   7   3   24687     701   1
  -7   7   3   17452     921   1
  -6   7   3     550     347   1
  -5   7   3     146     137   1
  -4   7   3  255363    2619   1
  -3  -7   3  379812    4344  -2
  -3   7   3  379812    4344   1
  -2   7   3   66263     753   1
  -1   7   3   27017     490   1
   0   7   3  405497    2049   1
  -2  -7  -2  176560    2675  -2
   1   7   3  176560    2675   1
   2   7   3  662116    5996   1
   3   7   3   51256     744   1
  -1  -7  -6  162943    3663  -2
   4   7   3  162943    3663   1
   5   7   3    3930     310   1
   6   7   3  111492    1373   1
   7   7   3   27351     708   1
   0  -7 -11   80954    1323  -2
   8   7   3   80954    1323   1
   9   7   3    3353     499   1
  10   7   3     935     229   1
  11   7   3   11487     622   1
  12   7   3    2199     597   1
  13   7   3    1536     366   1
  -6  -8  17    1279     311  -2
 -14   8   3    1279     311   1
 -13   8   3   11166     966   1
 -12   8   3    5659     579   1
 -11   8   3      38     388   1
 -10   8   3   10263     629   1
  -9   8   3   28151     786   1
  -8   8   3    1095     295   1
  -7   8   3   22217     847   1
  -6   8   3   57866    1379   1
  -5   8   3   68341    1028   1
  -4   8   3  113643    1292   1
  -3  -8   3 1423853   14085  -2
  -3   8   3 1423853   14085   1
  -2   8   3   62165     842   1
  -1   8   3  453815    3125   1
   0   8   3   28158     558   1
  -2  -8  -2  505039    7982  -2
   1   8   3  505039    7982   1
   2   8   3  183229    1890   1
   3   8   3     614     197   1
  -1  -8  -6   41759     728  -2
   4   8   3   41759     728   1
   5   8   3  129683    1486   1
   6   8   3    3341     272   1
   7   8   3   11603     572   1
   0  -8 -11   94263    1649  -2
   8   8   3   94263    1649   1
   9   8   3    1470     240   1
  10   8   3    1003     309   1
  11   8   3   51135    1609   1
  12   8   3    1263     500   1
  13   8   3   24449    1597   1
 -13   9   3    1722     285   1
 -12   9   3     862     272   1
 -11   9   3    2089     453   1
 -10   9   3   33274     950   1
  -9   9   3    9011     555   1
  -8   9   3   35261     883   1
  -7   9   3   41070    1077   1
  -6   9   3    3258     380   1
  -5   9   3    2462     267   1
  -4   9   3    2247     205   1
  -3  -9   3   65709     383  -2
  -3   9   3   65709     383   1
  -2   9   3  196412    2210   1
  -1   9   3  220731    2270   1
   0   9   3   12923     566   1
  -2  -9  -2   36366     747  -2
   1   9   3   36366     747   1
   2   9   3   10499     360   1
   3   9   3    4587     350   1
  -1  -9  -6  766124    7807  -2
   4   9   3  766124    7807   1
   5   9   3   88959    1530   1
   6   9   3   15297     578   1
   7   9   3    8668     450   1
   0  -9 -11  160864    4319  -2
   8   9   3  160864    4319   1
   9   9   3    8122     548   1
  10   9   3  141712    2472   1
  11   9   3    1333     391   1
  12   9   3    6457     758   1
  13   9   3    5475     691   1
 -13  10   3   10929    1012   1
 -12  10   3    4485     703   1
 -11  10   3    3422     461   1
 -10  10   3    5360     680   1
  -9  10   3   46218    1142   1
  -8  10   3    4184     488   1
  -7  10   3   27172     878   1
  -6  10   3    9849     436   1
  -5  10   3   79010    1446   1
  -4  10   3   26100     670   1
  -3 -10   3   46872    1031  -2
  -3  10   3   46872    1031   1
  -2  10   3  959501    6049   1
  -1  10   3    6707     411   1
   0  10   3   41307     753   1
  -2 -10  -2   84066    8438  -2
   1  10   3   84066    8438   1
   2  10   3    2074     157   1
   3  10   3   25076     679   1
  -1 -10  -6  127613    1528  -2
   4  10   3  127613    1528   1
   5  10   3   73702    1196   1
   6  10   3    2397     348   1
   7  10   3    8628     513   1
   0 -10 -11   10163     463  -2
   8  10   3   10163     463   1
   9  10   3    1042     293   1
  10  10   3   12365     717   1
  11  10   3   63028    1117   1
  12  10   3   54879    1595   1
 -13  11   3    1390     357   1
 -12  11   3   12519     899   1
 -11  11   3     566     253   1
 -10  11   3   77768    1799   1
  -9  11   3    1031     300   1
  -8  11   3   20798     897   1
  -7  11   3   50272    1125   1
  -6  11   3   19174     626   1
  -5  11   3     760     251   1
  -4  11   3  129151    1518   1
  -3 -11   3   75280    1253  -2
  -3  11   3   75280    1253   1
  -2  11   3    1161     350   1
  -1  11   3  151102    1475   1
   0  11   3  192959    1578   1
  -2 -11  -2   11027    1478  -2
   1  11   3   11027    1478   1
   2  11   3   98260    1209   1
   3  11   3  266267    3814   1
  -1 -11  -6   99013    1928  -2
   4  11   3   99013    1928   1
   5  11   3    2594     295   1
   6  11   3   54511    1764   1
   7  11   3    6107     395   1
   0 -11 -11   35182     861  -2
   8  11   3   35182     861   1
   9  11   3     394     251   1
  10  11   3    2781     342   1
  11  11   3   14767     865   1
  12  11   3    1162     530   1
 -12  12   3     627     363   1
 -11  12   3    2821     437   1
 -10  12   3   16247     700   1
  -9  12   3    3388     381   1
  -8  12   3   13455     545   1
  -7  12   3    8721     706   1
  -6  12   3     456     252   1
  -5  12   3    3907     284   1
  -4  12   3  100388    2016   1
  -3 -12   3   80170    1635  -2
  -3  12   3   80170    1635   1
  -2  12   3   73919    1743   1
  -1  12   3    7670     424   1
   0  12   3    8175     519   1
  -2 -12  -2  277303    4410  -2
   1  12   3  277303    4410   1
   2  12   3  104563    1472   1
   3  12   3   11288     759   1
  -1 -12  -6   22893     800  -2
   4  12   3   22893     800   1
   5  12   3  161580    2694   1
   6  12   3   72707    1211   1
   7  12   3    3473     472   1
   0 -12 -11   86157    2356  -2
   8  12   3   86157    2356   1
   9  12   3    1315     356   1
  10  12   3    4608     485   1
  11  12   3    1272     867   1
  12  12   3    5822     789   1
 -12  13   3     934     289   1
 -11  13   3    2380     578   1
 -10  13   3   12213    1256   1
  -9  13   3    1382     380   1
  -8  13   3    2053     338   1
  -7  13   3   19933     862   1
  -6  13   3   81874    1579   1
  -5  13   3    1131     290   1
  -4  13   3  146051    1776   1
  -3 -13   3   19073     844  -2
  -3  13   3   19073     844   1
  -2  13   3  178950    2662   1
  -1  13   3   22295     735   1
   0  13   3     597     311   1
  -2 -13  -2    4683     405  -2
   1  13   3    4683     405   1
   2  13   3  225824    4436   1
   3  13   3  143868    2342   1
  -1 -13  -6   64771    1261  -2
   4  13   3   64771    1261   1
   5  13   3  115089    2171   1
   6  13   3   98039    1553   1
   7  13   3    2314     287   1
   0 -13 -11   73693    1490  -2
   8  13   3   73693    1490   1
   9  13   3    5368     468   1
  10  13   3    1311     360   1
  11  13   3   18369    1850   1
 -12  14   3    3763    1056   1
 -11  14   3     596     390   1
 -10  14   3    9825    1309   1
  -9  14   3    8813     643   1
  -8  14   3    2595     495   1
  -7  14   3    5237     393   1
  -6  14   3    3225     524   1
  -5  14   3   88743    1890   1
  -4  14   3   17565     699   1
  -3 -14   3   64085    3522  -2
  -3  14   3   64085    3522   1
  -2  14   3   14227     661   1
  -1  14   3     973     301   1
   0  14   3   55027    1699   1
  -2 -14  -2    1466     692  -2
   1  14   3    1466     692   1
   2  14   3  101860    1575   1
   3  14   3  145320    1873   1
  -1 -14  -6   42069    1862  -2
   4  14   3   42069    1862   1
   5  14   3  163343    2504   1
   6  14   3   26348     781   1
   7  14   3    1020     256   1
   0 -14 -11   19045     754  -2
   8  14   3   19045     754   1
   9  14   3    1101     240   1
  10  14   3    2549     478   1
  11  14   3    1536     439   1
 -11  15   3    1504     392   1
 -10  15   3   11849    1124   1
  -9  15   3     842     301   1
  -8  15   3   18673     841   1
  -7  15   3   39039    1679   1
  -6  15   3     817     362   1
  -5  15   3    6760     525   1
  -4  15   3   21295    1247   1
  -3 -15   3     922     411  -2
  -3  15   3     922     411   1
  -2  15   3    1152     325   1
  -1  15   3   81244    1607   1
   0  15   3   35970    1281   1
  -2 -15  -2   74073    1669  -2
   1  15   3   74073    1669   1
   2  15   3   34849     852   1
   3  15   3    4892     349   1
  -1 -15  -6   25539     767  -2
   4  15   3   25539     767   1
   5  15   3    9257     822   1
   6  15   3    5393     484   1
   7  15   3    9655     661   1
   0 -15 -11    1632     373  -2
   8  15   3    1632     373   1
   9  15   3    1432     376   1
  10  15   3    1958     491   1
 -11  16   3   21060    1252   1
 -10  16   3     788     374   1
  -9  16   3   42346    1541   1
  -8  16   3    6665     642   1
  -7  16   3     272     316   1
  -6  16   3    9383     578   1
  -5  16   3   32386    1004   1
  -4  16   3    2471     449   1
  -3 -16   3    3263     379  -2
  -3  16   3    3263     379   1
  -2  16   3   23587     831   1
  -1  16   3   31430     935   1
   0  16   3   16260     738   1
  -2 -16  -2    6015     596  -2
   1  16   3    6015     596   1
   2  16   3   26531     686   1
   3  16   3   19371     545   1
  -1 -16  -6    8903    2215  -2
   4  16   3    8903    2215   1
   5  16   3     778     470   1
   6  16   3    1421     391   1
   7  16   3    2667     470   1
   0 -16 -11     720     453  -2
   8  16   3     720     453   1
   9  16   3   10509    1458   1
  10  16   3    2003     742   1
 -10  17   3   27483    1445   1
  -9  17   3   21202     801   1
  -8  17   3     913     412   1
  -7  17   3   10978    1198   1
  -6  17   3    1346     400   1
  -5  17   3   27578    1092   1
  -4  17   3    1410     326   1
  -3 -17   3   36204    1212  -2
  -3  17   3   36204    1212   1
  -2  17   3   61458    2109   1
  -1  17   3    4335     607   1
   0  17   3    9198     810   1
  -2 -17  -2   21694     775  -2
   1  17   3   21694     775   1
   2  17   3    8262     597   1
   3  17   3   19928    1123   1
  -1 -17  -6     712     267  -2
   4  17   3     712     267   1
   5  17   3    1326     320   1
   6  17   3    1599     369   1
   7  17   3   24110    1595   1
   0 -17 -11     744     313  -2
   8  17   3     744     313   1
   9  17   3    1719    1074   1
  -9  18   3   22413    1001   1
  -8  18   3    2337     347   1
  -7  18   3    6769     939   1
  -6  18   3   26608    3434   1
  -5  18   3     857     300   1
  -4  18   3    5725     495   1
  -3 -18   3   49038    1440  -2
  -3  18   3   49038    1440   1
  -2  18   3    1666     377   1
  -1  18   3    4145     664   1
   0  18   3    2625     464   1
  -2 -18  -2  120927    5578  -2
   1  18   3  120927    5578   1
   2  18   3   38503    1471   1
   3  18   3     472     256   1
  -1 -18  -6    2917     886  -2
   4  18   3    2917     886   1
   5  18   3    1546     348   1
   6  18   3    3135     445   1
   7  18   3    1002     416   1
   0 -18 -11    1162     472  -2
   8  18   3    1162     472   1
  -8  19   3    3735     520   1
  -7  19   3    5084     524   1
  -6  19   3    1057     622   1
  -5  19   3     806     709   1
  -4  19   3    1538     712   1
  -3 -19   3    3309     654  -2
  -3  19   3    3309     654   1
  -2  19   3   38323    1455   1
  -1  19   3    2954     631   1
   0  19   3   32913    1383   1
  -2 -19  -2   39971    1794  -2
   1  19   3   39971    1794   1
   2  19   3    1067     379   1
   3  19   3   11666    1083   1
  -1 -19  -6   16552    1032  -2
   4  19   3   16552    1032   1
   5  19   3    2158     440   1
   6  19   3    3882     626   1
   7  19   3    4958     779   1
   0 -19 -11    2237     664  -2
   8  19   3    2237     664   1
  -4 -20   8   21692    1124  -2
  -7  20   3   21692    1124   1
  -6  20   3    2197     490   1
  -5  20   3    1428     618   1
  -4  20   3     923     606   1
  -3 -20   3   15543    1721  -2
  -3  20   3   15543    1721   1
  -2  20   3    7821     727   1
  -1  20   3    8165     726   1
   0  20   3   12876    1023   1
  -2 -20  -2   15459    1347  -2
   1  20   3   15459    1347   1
   2  20   3   11821     854   1
   3  20   3    5999     623   1
  -1 -20  -6    4666    1587  -2
   4  20   3    4666    1587   1
   5  20   3   17547    1143   1
   6  20   3    2774     626   1
   7  20   3   37040    1835   1
  -6  21   3     610     351   1
  -5  21   3   11010    1104   1
  -4  21   3    1022     465   1
  -3 -21   3    7856     852  -2
  -3  21   3    7856     852   1
  -2  21   3    7054     893   1
  -1  21   3   28195    1124   1
   0  21   3    2358     535   1
  -2 -21  -2    4199     693  -2
   1  21   3    4199     693   1
   2  21   3    3116     514   1
   3  21   3    1815    1130   1
  -1 -21  -6     874     371  -2
   4  21   3     874     371   1
   5  21   3   28787    2592   1
  -5  22   3     950     475   1
  -4  22   3   11261    1149   1
  -3 -22   3    8848     908  -2
  -3  22   3    8848     908   1
  -2  22   3     972     380   1
  -1  22   3    1027     367   1
   0  22   3    2063     519   1
  -2 -22  -2   12400     900  -2
   1  22   3   12400     900   1
   2  22   3   13052    1046   1
   3  22   3    4814    1255   1
  -1 -22  -6   10712    1658  -2
   4  22   3   10712    1658   1
  -2  23   3    1853     741   1
  -1  23   3    2792     590   1
   0  23   3    3005    1412   1
  -2 -23  -2     834     477  -2
   1  23   3     834     477   1
 -14   0   4    1709     831   1
 -12   0   4   78927    2619   1
 -10   0   4    4201     678   1
  -8   0   4  107382    4681   1
  -6   0   4    9790     819   1
  -4   0   4   39982     506  -2
  -4   0   4   39982     506   1
  -2   0   4 1183128   10906   1
   0   0   4   81474    1347   1
   2   0   4  395713    8590   1
   4   0   4   13618     568   1
   6   0   4  252129    4181   1
   8   0   4  219430    5699   1
  10   0   4  136405    6734   1
  12   0   4   30320    1206   1
   1   0 -19    8226    1727  -2
  14   0   4    8226    1727   1
  -7  -1  18    1143     356  -2
 -15   1   4    1143     356   1
 -14   1   4    3908     485   1
 -13   1   4    4387     676   1
 -12   1   4   33481    1476   1
 -11   1   4   69584    1746   1
 -10   1   4  106497    1751   1
  -9   1   4     583     254   1
  -8   1   4   85328    4003   1
  -7   1   4   64312    1003   1
  -6   1   4   38129     683   1
  -5   1   4     162     199   1
  -4  -1   4  523920    3677  -2
  -4   1   4  523920    3677   1
  -3   1   4    2306     135   1
  -2   1   4   29971     306   1
  -1   1   4    2829     167   1
   0   1   4  150118     894   1
   1   1   4  502813    2624   1
   2   1   4    2930     154   1
  -2  -1  -5    8505     256  -2
   3   1   4    8505     256   1
   4   1   4    1442     123   1
   5   1   4  156705    1641   1
   6   1   4   24588     632   1
  -1  -1 -10   55896    1429  -2
   7   1   4   55896    1429   1
   8   1   4   17322     670   1
   9   1   4    4428     401   1
  10   1   4   15956    1122   1
  11   1   4    2499     345   1
  12   1   4    1190     329   1
  13   1   4     642     280   1
 -14   2   4    4149     663   1
 -13   2   4   24069     790   1
 -12   2   4    1260     263   1
 -11   2   4    6691     590   1
 -10   2   4    4875     742   1
  -9   2   4    3709     418   1
  -8   2   4  135661    1639   1
  -7   2   4     126     212   1
  -6   2   4  265598    1685   1
  -5   2   4   26252     501   1
  -4  -2   4     929     147  -2
  -4   2   4     929     147   1
  -3   2   4  836178    7446   1
  -2   2   4   50795     496   1
  -1   2   4   22643     507   1
   0   2   4     376     102   1
   1   2   4  190669    1142   1
   2   2   4   21396     231   1
  -2  -2  -5   14494    1090  -2
   3   2   4   14494    1090   1
   4   2   4  254760    2255   1
   5   2   4     653     134   1
   6   2   4  139025    1770   1
  -1  -2 -10  185232    3280  -2
   7   2   4  185232    3280   1
   8   2   4     759     242   1
   9   2   4   90020    1393   1
  10   2   4   36502     905   1
  11   2   4   15650     743   1
  12   2   4    1695     292   1
  13   2   4    2113     377   1
 -14   3   4     797     379   1
 -13   3   4     722     255   1
 -12   3   4    9375     951   1
 -11   3   4  119534    1747   1
 -10   3   4     778     257   1
  -9   3   4    1146     274   1
  -8   3   4   41197    1535   1
  -7   3   4  161817    4876   1
  -6   3   4  148177    1789   1
  -5   3   4   10734     512   1
  -4  -3   4   54730     721  -2
  -4   3   4   54730     721   1
  -3   3   4   19405     243   1
  -2   3   4  205696    2021   1
  -1   3   4 1742741   19682   1
  -3  -3  -1 1856816  117300  -2
   0   3   4 1856816  117300   1
   1   3   4  127145     861   1
   2   3   4  508371    6125   1
  -2  -3  -5  243732    2671  -2
   3   3   4  243732    2671   1
   4   3   4  994986    7495   1
   5   3   4   11936     456   1
   6   3   4    6520     392   1
  -1  -3 -10   29626     796  -2
   7   3   4   29626     796   1
   8   3   4    1848     260   1
   9   3   4   24622     672   1
  10   3   4    1886     205   1
  11   3   4   42130    1126   1
  12   3   4    3929     403   1
  13   3   4    1159     249   1
 -14   4   4    1713     395   1
 -13   4   4    1112     335   1
 -12   4   4    7551     513   1
 -11   4   4   14727     705   1
 -10   4   4  114844    1457   1
  -9   4   4   98518    2437   1
  -8   4   4    1818     325   1
  -7   4   4    7050    1127   1
  -6   4   4  106823    2140   1
  -5   4   4  331131    4791   1
  -4  -4   4   54638     711  -2
  -4   4   4   54638     711   1
  -3   4   4  898635    4504   1
  -2   4   4  153291    1707   1
  -1   4   4  108005    1355   1
  -3  -4  -1  461924    4799  -2
   0   4   4  461924    4799   1
   1   4   4  370676    2049   1
   2   4   4  145219    1459   1
  -2  -4  -5   37741    1049  -2
   3   4   4   37741    1049   1
   4   4   4  830659    5487   1
   5   4   4  509036    2634   1
   6   4   4   36965     800   1
   8   4   4   11003     474   1
   9   4   4  188500    1947   1
  10   4   4   11024     625   1
  11   4   4   19848     698   1
  12   4   4   15281     560   1
  13   4   4    6078     592   1
 -14   5   4   19295     733   1
 -13   5   4     900     258   1
 -12   5   4   13514     758   1
 -11   5   4    1256     344   1
 -10   5   4    1410     287   1
  -9   5   4    1230     486   1
  -8   5   4  126953    3804   1
  -7   5   4     291     166   1
  -6   5   4   19655     348   1
  -5   5   4   19729     388   1
  -4  -5   4    8633     434  -2
  -4   5   4    8633     434   1
  -3   5   4   77910     859   1
  -2   5   4  143093    1326   1
  -1   5   4   52481     513   1
  -3  -5  -1    8346     273  -2
   0   5   4    8346     273   1
   1   5   4   17287     227   1
   2   5   4  387609    3024   1
  -2  -5  -5     914     250  -2
   3   5   4     914     250   1
   4   5   4  145361    1736   1
   5   5   4     655     157   1
   6   5   4  163195    1470   1
  -1  -5 -10   20992    1138  -2
   7   5   4   20992    1138   1
   8   5   4  258173    4448   1
   9   5   4   19411     762   1
  10   5   4   10336     561   1
  11   5   4   98297    2146   1
  12   5   4     438     263   1
  13   5   4     966     491   1
 -14   6   4    1373     420   1
 -13   6   4     517     244   1
 -12   6   4    1591     336   1
 -11   6   4   10619     532   1
 -10   6   4    2414     278   1
  -9   6   4   60956    1280   1
  -8   6   4    6041     473   1
  -7   6   4    5766     640   1
  -6   6   4   23459     594   1
  -5   6   4   41420     673   1
  -4  -6   4   18532     404  -2
  -4   6   4   18532     404   1
  -3   6   4   46451     687   1
  -2   6   4   82408     874   1
  -1   6   4  254646    2480   1
  -3  -6  -1   45178    1127  -2
   0   6   4   45178    1127   1
   1   6   4   13722     349   1
   2   6   4  872848    6608   1
  -2  -6  -5    3188     369  -2
   3   6   4    3188     369   1
   4   6   4   20624     392   1
   5   6   4   17731     594   1
   6   6   4   60840    1152   1
  -1  -6 -10   19232     845  -2
   7   6   4   19232     845   1
   8   6   4   70010    1180   1
   9   6   4   45575     978   1
  10   6   4   36598     995   1
  11   6   4    1072     413   1
  12   6   4   16766     787   1
  13   6   4    1794     409   1
 -14   7   4    4419     554   1
 -13   7   4     656     309   1
 -12   7   4    6088     537   1
 -11   7   4   85850    2074   1
 -10   7   4    7945     544   1
  -9   7   4   51200    1226   1
  -8   7   4   11635    1026   1
  -7   7   4     929     314   1
  -6   7   4  231459    2031   1
  -5   7   4    2717     219   1
  -4  -7   4   79983    1163  -2
  -4   7   4   79983    1163   1
  -3   7   4    1144     125   1
  -2   7   4    8390     343   1
  -1   7   4    5099     367   1
  -3  -7  -1   17988    1498  -2
   0   7   4   17988    1498   1
   1   7   4  349492    2079   1
   2   7   4  184634    1865   1
  -2  -7  -5   95796   10830  -2
   3   7   4   95796   10830   1
   4   7   4   74399     897   1
   5   7   4   12450     447   1
   6   7   4     626     287   1
  -1  -7 -10   28435    1155  -2
   7   7   4   28435    1155   1
   8   7   4   76825    1368   1
   9   7   4    1000     204   1
  10   7   4   74810    1561   1
  11   7   4   38554    1014   1
  12   7   4    3368     506   1
  13   7   4   10881     977   1
 -14   8   4    4215     591   1
 -13   8   4     865     251   1
 -12   8   4    1010     286   1
 -11   8   4    1498     268   1
 -10   8   4    2353     354   1
  -9   8   4   48100    1020   1
  -7   8   4   13735     527   1
  -6   8   4   17201     668   1
  -5   8   4   59974     924   1
  -4  -8   4   66688     982  -2
  -4   8   4   66688     982   1
  -3   8   4   14224     465   1
  -2   8   4  201081    2119   1
  -1   8   4    1603     200   1
  -3  -8  -1  200542    1989  -2
   0   8   4  200542    1989   1
   1   8   4  233794    1961   1
   2   8   4    1609     130   1
  -2  -8  -5  135649    2122  -2
   3   8   4  135649    2122   1
   4   8   4    3403     204   1
   5   8   4   16782     514   1
   6   8   4     390     185   1
  -1  -8 -10   37186    1160  -2
   7   8   4   37186    1160   1
   8   8   4    1855     400   1
   9   8   4     817     263   1
  10   8   4   19289     753   1
  11   8   4   24782    2417   1
  12   8   4   19256    1003   1
  13   8   4   51982    2195   1
 -13   9   4    1012     254   1
 -12   9   4    1387     341   1
 -11   9   4   17119    1047   1
 -10   9   4    1056     205   1
  -9   9   4    4689     380   1
  -8   9   4     516     272   1
  -7   9   4   54872    1020   1
  -6   9   4   15475     517   1
  -5   9   4   21226     634   1
  -4  -9   4  151394    1652  -2
  -4   9   4  151394    1652   1
  -3   9   4  165658    1937   1
  -2   9   4    7291     265   1
  -1   9   4  707674    6883   1
  -3  -9  -1   99913    1394  -2
   0   9   4   99913    1394   1
   1   9   4   91166     940   1
   2   9   4    3650     211   1
  -2  -9  -5   10787    2147  -2
   3   9   4   10787    2147   1
   4   9   4   18262     606   1
   5   9   4   18640     610   1
   6   9   4    2406     199   1
  -1  -9 -10  108505    1440  -2
   7   9   4  108505    1440   1
   8   9   4     187     217   1
   9   9   4   81245    1304   1
  10   9   4   23466    2819   1
  11   9   4   22756    1252   1
  12   9   4    1675     399   1
 -13  10   4    3944     557   1
 -12  10   4    2280     356   1
 -11  10   4   21634    1023   1
 -10  10   4   31765    1025   1
  -9  10   4    4690     478   1
  -8  10   4   85767    1776   1
  -7  10   4   26908     802   1
  -6  10   4   65155    1122   1
  -5  10   4    6272     382   1
  -4 -10   4     756     194  -2
  -4  10   4     756     194   1
  -3  10   4    5720     419   1
  -2  10   4  216096    3115   1
  -1  10   4    8347     356   1
  -3 -10  -1  343419    5438  -2
   0  10   4  343419    5438   1
   1  10   4   82823    1033   1
   2  10   4  122780    1601   1
  -2 -10  -5   82807    1275  -2
   3  10   4   82807    1275   1
   4  10   4    6101     352   1
   5  10   4    7826     437   1
   6  10   4   35264    1024   1
  -1 -10 -10   80533    2274  -2
   7  10   4   80533    2274   1
   8  10   4   19260     650   1
   9  10   4    2998     344   1
  10  10   4    1651     761   1
  11  10   4    5128     446   1
  12  10   4    1981     581   1
 -13  11   4    3081     511   1
 -12  11   4    1328     308   1
 -11  11   4   15312    1885   1
 -10  11   4     622     447   1
  -9  11   4   21554     856   1
  -8  11   4   19519     753   1
  -7  11   4   35297    1634   1
  -6  11   4     645     200   1
  -5  11   4   34064     915   1
  -4 -11   4  124602    1455  -2
  -4  11   4  124602    1455   1
  -3  11   4    4460     391   1
  -2  11   4  125533    2429   1
  -1  11   4  207178    2085   1
  -3 -11  -1   13379    1400  -2
   0  11   4   13379    1400   1
   1  11   4    6519     512   1
   2  11   4  193595    1962   1
  -2 -11  -5   36553     867  -2
   3  11   4   36553     867   1
   4  11   4   20314     839   1
   5  11   4  125783    2264   1
   6  11   4    4383     544   1
  -1 -11 -10   55849    1054  -2
   7  11   4   55849    1054   1
   8  11   4   30799     908   1
   9  11   4   61372    1244   1
  10  11   4   22714     842   1
  11  11   4    8408     692   1
  12  11   4    6191     730   1
 -12  12   4    4213     566   1
 -11  12   4    6537     610   1
 -10  12   4     987     361   1
  -9  12   4    6585     475   1
  -8  12   4    9643     854   1
  -7  12   4    4823     445   1
  -6  12   4   59880    1216   1
  -5  12   4  147249    2335   1
  -4 -12   4    3220     318  -2
  -4  12   4    3220     318   1
  -3  12   4   11719     642   1
  -2  12   4     692     335   1
  -1  12   4   51781    1369   1
  -3 -12  -1   71633    1578  -2
   0  12   4   71633    1578   1
   1  12   4   86529    1692   1
   2  12   4   98343    1850   1
  -2 -12  -5   74501    1718  -2
   3  12   4   74501    1718   1
   4  12   4    6142     462   1
   5  12   4    5888     570   1
   6  12   4    3186     322   1
  -1 -12 -10   41186    1696  -2
   7  12   4   41186    1696   1
   8  12   4    6438     489   1
   9  12   4   18661    1094   1
  10  12   4    1627     361   1
  11  12   4   12987    2237   1
 -12  13   4    1186     769   1
 -11  13   4    1113     440   1
 -10  13   4     876     304   1
  -9  13   4   23180    1073   1
  -8  13   4   24214    1052   1
  -7  13   4  107802    1754   1
  -6  13   4     915     333   1
  -5  13   4    5674     715   1
  -4 -13   4     480     309  -2
  -4  13   4     480     309   1
  -3  13   4    7814     505   1
  -2  13   4  114541    1852   1
  -1  13   4  130759    1813   1
  -3 -13  -1   17803    1302  -2
   0  13   4   17803    1302   1
   1  13   4  128252    1903   1
   2  13   4   90516    1444   1
  -2 -13  -5   81625    1424  -2
   3  13   4   81625    1424   1
   4  13   4  135555    2176   1
   5  13   4   12969     804   1
   6  13   4   80597    1499   1
  -1 -13 -10   30676    1095  -2
   7  13   4   30676    1095   1
   8  13   4   44052    1303   1
   9  13   4    6756     469   1
  10  13   4   15278     779   1
  11  13   4   13721    1413   1
 -12  14   4   12223    1206   1
 -11  14   4    8385    1088   1
 -10  14   4   11004     859   1
  -9  14   4   17474     939   1
  -8  14   4    3666    1201   1
  -7  14   4   14739    1188   1
  -6  14   4    4343     529   1
  -5  14   4   31918    1137   1
  -4 -14   4   53736    1632  -2
  -4  14   4   53736    1632   1
  -3  14   4   60336    1212   1
  -2  14   4    3564     519   1
  -1  14   4    9810     635   1
  -3 -14  -1   77729    1644  -2
   0  14   4   77729    1644   1
   1  14   4   79978    1421   1
   2  14   4    5819     535   1
  -2 -14  -5   29969     792  -2
   3  14   4   29969     792   1
   4  14   4   74988    1388   1
   5  14   4   36033     964   1
   6  14   4   14169     631   1
  -1 -14 -10   41148    1533  -2
   7  14   4   41148    1533   1
   8  14   4     883     215   1
   9  14   4   13526     705   1
  10  14   4    2928     710   1
  11  14   4    3792     729   1
 -11  15   4   12872    1091   1
 -10  15   4   12231     795   1
  -9  15   4    2001     437   1
  -8  15   4   10143     647   1
  -7  15   4    2250     367   1
  -6  15   4     679     362   1
  -5  15   4    6264     573   1
  -4 -15   4    1307     508  -2
  -4  15   4    1307     508   1
  -3  15   4     212     300   1
  -2  15   4   12054     873   1
  -1  15   4    1876     369   1
   1  15   4    1400     510   1
   2  15   4  102922    1844   1
  -2 -15  -5    8317    2458  -2
   3  15   4    8317    2458   1
   4  15   4  328248    6810   1
   5  15   4   11805     962   1
   6  15   4    3186     506   1
  -1 -15 -10    7180     570  -2
   7  15   4    7180     570   1
   8  15   4    7000     761   1
   9  15   4     677     254   1
  10  15   4    8624     902   1
 -10  16   4    1068     371   1
  -9  16   4     864     396   1
  -8  16   4     978     492   1
  -7  16   4   11236     641   1
  -6  16   4   52434    1235   1
  -5  16   4   44752    1154   1
  -4 -16   4   32392    1120  -2
  -4  16   4   32392    1120   1
  -3  16   4   10596     753   1
  -2  16   4   67163    1479   1
  -1  16   4    2636     403   1
  -3 -16  -1    4478     422  -2
   0  16   4    4478     422   1
   1  16   4    3436     507   1
   2  16   4    6686     515   1
  -2 -16  -5    1759     696  -2
   3  16   4    1759     696   1
   4  16   4   76117    2345   1
   5  16   4    3901     404   1
   6  16   4    9806     712   1
  -1 -16 -10    2027     366  -2
   7  16   4    2027     366   1
   8  16   4   23665     887   1
   9  16   4    9505     941   1
 -10  17   4   10546    1023   1
  -9  17   4    1181     373   1
  -8  17   4    9181    1549   1
  -7  17   4    1399     354   1
  -6  17   4    1730     359   1
  -5  17   4    2930     406   1
  -4 -17   4     400     386  -2
  -4  17   4     400     386   1
  -3  17   4    3367     450   1
  -2  17   4    1882     361   1
  -1  17   4     660     212   1
  -3 -17  -1  107591    1746  -2
   0  17   4  107591    1746   1
   1  17   4     482     249   1
   2  17   4    1121     284   1
  -2 -17  -5   33088    1126  -2
   3  17   4   33088    1126   1
   4  17   4   10430     683   1
   5  17   4     801     429   1
   6  17   4    7197     662   1
  -1 -17 -10   13534    1117  -2
   7  17   4   13534    1117   1
   8  17   4   13416    1111   1
   9  17   4   13078    1160   1
  -9  18   4    3895     656   1
  -8  18   4    1234     304   1
  -7  18   4    1688     317   1
  -6  18   4     836     361   1
  -5  18   4   42961    1056   1
  -4 -18   4    4617     465  -2
  -4  18   4    4617     465   1
  -3  18   4    9275     672   1
  -2  18   4    1825     735   1
  -1  18   4   17280     786   1
  -3 -18  -1   38991    3767  -2
   0  18   4   38991    3767   1
   1  18   4    3100     601   1
   2  18   4    4938     684   1
  -2 -18  -5    6143    1343  -2
   3  18   4    6143    1343   1
   4  18   4     186     310   1
   5  18   4   27172    1968   1
   6  18   4    8339     900   1
  -1 -18 -10    1421     787  -2
   7  18   4    1421     787   1
   8  18   4     431     622   1
  -8  19   4    1527     360   1
  -7  19   4    1663     546   1
  -6  19   4    1365     300   1
  -5  19   4   27240    1069   1
  -4 -19   4    1698     514  -2
  -4  19   4    1698     514   1
  -3  19   4    6057     628   1
  -2  19   4    2447    1074   1
  -1  19   4   11039     702   1
  -3 -19  -1   32361    1826  -2
   0  19   4   32361    1826   1
   1  19   4    1274     614   1
   2  19   4    1426     938   1
  -2 -19  -5   26207     989  -2
   3  19   4   26207     989   1
   4  19   4    2136    1061   1
   5  19   4    6232    1477   1
   6  19   4   20427    1397   1
  -1 -19 -10   35387    1708  -2
   7  19   4   35387    1708   1
  -7  20   4    4048     543   1
  -6  20   4    1091     318   1
  -5  20   4    1063     417   1
  -4 -20   4    4634     666  -2
  -4  20   4    4634     666   1
  -3  20   4     524     527   1
  -2  20   4    6477     811   1
  -1  20   4    3682     696   1
  -3 -20  -1    9226     712  -2
   0  20   4    9226     712   1
   1  20   4   13522     737   1
   2  20   4   21040    1080   1
  -2 -20  -5   18034    3177  -2
   3  20   4   18034    3177   1
   4  20   4    1896     432   1
   5  20   4    7984    1018   1
   6  20   4     487     746   1
  -6  21   4    1330     475   1
  -5  21   4    1196     459   1
  -4 -21   4    1986     533  -2
  -4  21   4    1986     533   1
  -3  21   4    4465    1759   1
  -2  21   4    7355    1220   1
  -1  21   4   10628     989   1
  -3 -21  -1    2825    1127  -2
   0  21   4    2825    1127   1
   1  21   4   10314     829   1
   2  21   4    1291    1235   1
  -2 -21  -5    9958    1201  -2
   3  21   4    9958    1201   1
   4  21   4   17303    2270   1
   5  21   4    1282     457   1
  -4 -22   4     877     582  -2
  -4  22   4     877     582   1
  -3  22   4    4929    1788   1
  -2  22   4   14807    1706   1
  -1  22   4    4724     960   1
  -3 -22  -1   11075    1477  -2
   0  22   4   11075    1477   1
   1  22   4    8768     831   1
   2  22   4    1396     673   1
  -2 -22  -5    2444    1307  -2
   3  22   4    2444    1307   1
 -13   0   5   35163    2064   1
 -11   0   5   61696    1861   1
  -9   0   5   60771    2574   1
  -7   0   5  106568    2449   1
  -5   0   5    5549     194  -2
  -5   0   5    5549     194   1
  -3   0   5 1034722    6028   1
  -1   0   5 1370172   15389   1
   1   0   5  129556    1341   1
   3   0   5   22252     741   1
   5   0   5  139019    2219   1
   7   0   5   77483    1922   1
   9   0   5  148407    4198   1
  11   0   5    3970     562   1
   0   0 -18    5205     753  -2
  13   0   5    5205     753   1
 -14   1   5    8965    1060   1
 -13   1   5   15224    1056   1
 -12   1   5   21395    1072   1
 -11   1   5   22243     684   1
 -10   1   5   38198    1083   1
  -9   1   5   75866    1323   1
  -8   1   5    4017     381   1
  -7   1   5   15874     662   1
  -6   1   5     307     183   1
  -5  -1   5    9273     307  -2
  -5   1   5    9273     307   1
  -4   1   5  314639    2005   1
  -3   1   5   24071     294   1
  -2   1   5  503054    4236   1
  -1   1   5 1091484    9516   1
   0   1   5     554     105   1
   1   1   5   60449     498   1
  -3  -1  -4    1008     259  -2
   2   1   5    1008     259   1
   3   1   5   20023     378   1
   4   1   5     570     235   1
   5   1   5   11230     390   1
  -2  -1  -9   24257     540  -2
   6   1   5   24257     540   1
   7   1   5  360359   10002   1
   8   1   5  165150    1863   1
   9   1   5  118503    1373   1
  10   1   5   31787     781   1
  11   1   5     965     201   1
  12   1   5    8732     618   1
   0  -1 -18    1766     601  -2
  13   1   5    1766     601   1
 -14   2   5    2436     724   1
 -13   2   5    1090     245   1
 -12   2   5   11374    1020   1
 -11   2   5    2885     537   1
 -10   2   5  120129    1793   1
  -9   2   5   19610     877   1
  -8   2   5   63980    1336   1
  -7   2   5   44984     938   1
  -6   2   5     857     231   1
  -5  -2   5  157104    1712  -2
  -5   2   5  157104    1712   1
  -4   2   5    1307     168   1
  -3   2   5  771776    5651   1
  -2   2   5   37083     353   1
  -1   2   5  400617   13252   1
   0   2   5  158551    1507   1
   1   2   5  436366    2619   1
  -3  -2  -4   36256     593  -2
   2   2   5   36256     593   1
   3   2   5   24013     456   1
   4   2   5   22023     520   1
   5   2   5    7604     320   1
  -2  -2  -9  179629    3383  -2
   6   2   5  179629    3383   1
   7   2   5   29736     704   1
   8   2   5    7473     594   1
   9   2   5   78863    1321   1
  10   2   5   79152    1075   1
  11   2   5   10226     544   1
  12   2   5    1360     294   1
   0  -2 -18    1868     362  -2
  13   2   5    1868     362   1
 -14   3   5   21326     794   1
 -13   3   5   22752     787   1
 -12   3   5    1347     387   1
 -11   3   5   25819     886   1
 -10   3   5   17326     763   1
  -9   3   5   19798    1924   1
  -8   3   5     545     350   1
  -7   3   5     546     243   1
  -6   3   5  320053    3395   1
  -5  -3   5  537327    6358  -2
  -5   3   5  537327    6358   1
  -4   3   5  298347    1929   1
  -3   3   5   16214     328   1
  -2   3   5   24294     373   1
  -1   3   5  201248    3424   1
   0   3   5    7372     254   1
   1   3   5   49914     456   1
  -3  -3  -4   37773   17782  -2
   2   3   5   37773   17782   1
   3   3   5  167029    1755   1
   4   3   5   69078     808   1
   5   3   5   14004     569   1
  -2  -3  -9   13792     517  -2
   6   3   5   13792     517   1
   7   3   5   16041     555   1
   8   3   5  174130    1489   1
   9   3   5    3345     432   1
  10   3   5    1975     490   1
  11   3   5    1024     235   1
  12   3   5    9454     855   1
   0  -3 -18     955     339  -2
  13   3   5     955     339   1
 -14   4   5    3659     536   1
 -13   4   5   13797     739   1
 -12   4   5   10383     740   1
 -11   4   5  100930    1808   1
 -10   4   5    1071     268   1
  -9   4   5   49194    1166   1
  -8   4   5    1355     295   1
  -7   4   5     542     161   1
  -6   4   5  463397    3663   1
  -5  -4   5  298349    4385  -2
  -5   4   5  298349    4385   1
  -4   4   5   78495     924   1
  -3   4   5  142292    1422   1
  -2   4   5   17783     412   1
  -1   4   5  153930    1337   1
   0   4   5   55054     558   1
   1   4   5    7005     219   1
  -3  -4  -4   18015    1224  -2
   2   4   5   18015    1224   1
   3   4   5     556     150   1
   4   4   5  548151    3937   1
   5   4   5    1808     194   1
  -2  -4  -9    5627     389  -2
   6   4   5    5627     389   1
   7   4   5   13783     510   1
   8   4   5   35541     963   1
   9   4   5   53474    1039   1
  10   4   5   32922    1043   1
  11   4   5     872     214   1
  12   4   5     610     345   1
   0  -4 -18    6848     902  -2
  13   4   5    6848     902   1
 -14   5   5    1861     461   1
 -13   5   5   44055    1179   1
 -12   5   5     930     505   1
 -11   5   5     750     675   1
 -10   5   5     941     324   1
  -9   5   5   88315    1746   1
  -8   5   5    5859     495   1
  -7   5   5   28085     834   1
  -6   5   5     290     271   1
  -5  -5   5   23500     459  -2
  -5   5   5   23500     459   1
  -4   5   5  126263    1334   1
  -3   5   5  144947    1213   1
  -2   5   5   45540     643   1
  -1   5   5  279199   32943   1
   0   5   5     604     104   1
   1   5   5  396873    2299   1
  -3  -5  -4     265     254  -2
   2   5   5     265     254   1
   3   5   5   41665     859   1
   4   5   5   10488     425   1
   5   5   5   73604    1034   1
  -2  -5  -9   72223    1965  -2
   6   5   5   72223    1965   1
   7   5   5     677     133   1
   8   5   5     642     186   1
   9   5   5     852     345   1
  10   5   5    9139     949   1
  11   5   5   63448    1133   1
  12   5   5    1006     268   1
   0  -5 -18    2706     510  -2
  13   5   5    2706     510   1
 -14   6   5    1306     313   1
 -13   6   5     510     305   1
 -12   6   5   15438     803   1
 -11   6   5    3117     395   1
 -10   6   5    3676     501   1
  -9   6   5  172959    4037   1
  -8   6   5   28300    3613   1
  -7   6   5    9738     893   1
  -6   6   5  144352    1520   1
  -5  -6   5   83031     986  -2
  -5   6   5   83031     986   1
  -4   6   5   56690     756   1
  -3   6   5   10681     375   1
  -2   6   5  151660    1496   1
  -1   6   5  254425    6540   1
   0   6   5   95545    1092   1
   1   6   5  464298    2758   1
  -3  -6  -4  195374    1674  -2
   2   6   5  195374    1674   1
   3   6   5    1403     260   1
   4   6   5    7300     365   1
   5   6   5     698     299   1
  -2  -6  -9    9742     429  -2
   6   6   5    9742     429   1
   7   6   5   16960     540   1
   8   6   5    7701     507   1
   9   6   5   16236    1908   1
  10   6   5    6552     569   1
  11   6   5    2141     331   1
  12   6   5    4881     475   1
   0  -6 -18    6290     682  -2
  13   6   5    6290     682   1
 -14   7   5     860     328   1
 -13   7   5   17195    1307   1
 -12   7   5   40744    1641   1
 -11   7   5     956     318   1
 -10   7   5   27657     795   1
  -9   7   5   20539    1643   1
  -8   7   5   38286    3847   1
  -7   7   5   43864    1241   1
  -6   7   5   34685     869   1
  -5  -7   5   88306    1247  -2
  -5   7   5   88306    1247   1
  -4   7   5    9562     382   1
  -3   7   5  110104    1206   1
  -2   7   5   98010    1273   1
  -1   7   5    9500     257   1
   0   7   5     291     105   1
   1   7   5  119613    1384   1
  -3  -7  -4  296538    3661  -2
   2   7   5  296538    3661   1
   3   7   5  116867    1632   1
   4   7   5   24044     627   1
   5   7   5    2109     308   1
  -2  -7  -9   22517     691  -2
   6   7   5   22517     691   1
   7   7   5    2846     359   1
   8   7   5   47186     930   1
   9   7   5   65356    1574   1
  10   7   5   11732    2263   1
  11   7   5    2437     379   1
  12   7   5    5119     508   1
 -14   8   5    7327     689   1
 -13   8   5    2057     449   1
 -12   8   5   75821    1995   1
 -11   8   5     473     281   1
 -10   8   5    5915     492   1
  -9   8   5    9995    1374   1
  -8   8   5   28984     973   1
  -7   8   5   20123     720   1
  -6   8   5    6309     419   1
  -5  -8   5    7987     580  -2
  -5   8   5    7987     580   1
  -4   8   5   31115     584   1
  -3   8   5   30595     500   1
  -2   8   5   50426     722   1
  -4  -8   0   28232     628  -2
  -1   8   5   28232     628   1
   0   8   5  180339    1989   1
   1   8   5     850     180   1
  -3  -8  -4   70243    2080  -2
   2   8   5   70243    2080   1
   3   8   5   67012     938   1
   4   8   5    6891     499   1
   5   8   5   11883     565   1
  -2  -8  -9   72974    1543  -2
   6   8   5   72974    1543   1
   7   8   5   26079     916   1
   8   8   5    7448     534   1
   9   8   5    8047     687   1
  10   8   5    1833     323   1
  11   8   5    1043     295   1
  12   8   5    1759     273   1
 -13   9   5    2568     381   1
 -12   9   5    2173     293   1
 -11   9   5    3500     527   1
 -10   9   5   59737    1316   1
  -9   9   5    3743    1018   1
  -8   9   5    3089     490   1
  -7   9   5   70080    1396   1
  -6   9   5   30601     879   1
  -5  -9   5    8053     339  -2
  -5   9   5    8053     339   1
  -4   9   5    6143     412   1
  -3   9   5   87706    1220   1
  -2   9   5   93509    1116   1
  -4  -9   0    6390     377  -2
  -1   9   5    6390     377   1
   0   9   5    7652     288   1
   1   9   5  276479    3088   1
  -3  -9  -4   57443     949  -2
   2   9   5   57443     949   1
   3   9   5     626     158   1
   4   9   5   76638    1349   1
   5   9   5     472     212   1
   7   9   5    2556     501   1
   8   9   5   30006     891   1
   9   9   5    3418     720   1
  10   9   5   13826    1017   1
  11   9   5    1668     309   1
  12   9   5   60995    2230   1
 -13  10   5    1035     503   1
 -12  10   5   37590    1238   1
 -11  10   5   21854     991   1
 -10  10   5    1149     268   1
  -9  10   5   40746    1056   1
  -8  10   5    1115     241   1
  -7  10   5    8424     478   1
  -6  10   5   25570     854   1
  -5 -10   5   92724    1576  -2
  -5  10   5   92724    1576   1
  -4  10   5    5091     426   1
  -3  10   5    2334     177   1
  -2  10   5   23876     564   1
   0  10   5   42199     844   1
   1  10   5   25188     486   1
  -3 -10  -4    4590    1279  -2
   2  10   5    4590    1279   1
   3  10   5   36437     987   1
   4  10   5    5701     332   1
   5  10   5   43004    1002   1
  -2 -10  -9     773     270  -2
   6  10   5     773     270   1
   7  10   5    1372     309   1
   8  10   5   17111     569   1
   9  10   5   27541    1058   1
  10  10   5   15530     814   1
  11  10   5   18047     870   1
  12  10   5    1628     364   1
 -13  11   5    2086     453   1
 -12  11   5    3903     876   1
 -11  11   5   14708     661   1
 -10  11   5     442     424   1
  -9  11   5   25892     906   1
  -8  11   5     984     506   1
  -7  11   5   46243    1169   1
  -6  11   5     695     143   1
  -5 -11   5   56267     961  -2
  -5  11   5   56267     961   1
  -4  11   5   10995     515   1
  -3  11   5  119942    2120   1
  -2  11   5    4383     398   1
  -4 -11   0   18692     660  -2
  -1  11   5   18692     660   1
   0  11   5  207126    3320   1
   1  11   5    1042     217   1
  -3 -11  -4   14992     833  -2
   2  11   5   14992     833   1
   3  11   5   65229    1077   1
   4  11   5   66451    1139   1
   5  11   5   19645     549   1
  -2 -11  -9    9909     424  -2
   6  11   5    9909     424   1
   7  11   5    4644     544   1
   8  11   5   13925     688   1
   9  11   5     661     247   1
  10  11   5   19511     808   1
  11  11   5    9883     743   1
 -12  12   5    6767     725   1
 -11  12   5    1385     376   1
 -10  12   5     731     348   1
  -9  12   5   36205    1246   1
  -8  12   5    1427     250   1
  -7  12   5    1622     340   1
  -6  12   5   19875     674   1
  -5 -12   5   72272    1185  -2
  -5  12   5   72272    1185   1
  -4  12   5    5205     400   1
  -3  12   5    2267     297   1
  -2  12   5   22415    1213   1
  -4 -12   0   43057    1290  -2
  -1  12   5   43057    1290   1
   0  12   5    1392     185   1
   1  12   5   66464    1079   1
  -3 -12  -4   32361    2166  -2
   2  12   5   32361    2166   1
   3  12   5   31691     810   1
   4  12   5   20642     544   1
   5  12   5   12446     480   1
  -2 -12  -9   40906    1283  -2
   6  12   5   40906    1283   1
   7  12   5    1267     371   1
   8  12   5    5624     570   1
   9  12   5     766     327   1
  10  12   5   14359    1907   1
  11  12   5    2663     454   1
 -12  13   5    1837     348   1
 -11  13   5    2980     456   1
 -10  13   5     782     475   1
  -9  13   5    1639     356   1
  -8  13   5  125133    2557   1
  -7  13   5    3151     538   1
  -6  13   5  129894    1784   1
  -5 -13   5    5329     651  -2
  -5  13   5    5329     651   1
  -4  13   5   15463     690   1
  -3  13   5    9630     565   1
  -2  13   5    1848     425   1
  -4 -13   0   61486    1386  -2
  -1  13   5   61486    1386   1
   0  13   5    7492     607   1
   1  13   5    2254     222   1
  -3 -13  -4    5935    2244  -2
   2  13   5    5935    2244   1
   3  13   5  102310    2478   1
   4  13   5   41169     998   1
   5  13   5    8971     422   1
  -2 -13  -9   40677    1734  -2
   6  13   5   40677    1734   1
   7  13   5    1581     295   1
   8  13   5   11325     700   1
   9  13   5    5918     604   1
  10  13   5   11841    2053   1
  11  13   5   19393    1179   1
 -11  14   5     702     362   1
 -10  14   5     850     298   1
  -9  14   5   15589    1258   1
  -8  14   5    1353     365   1
  -7  14   5  104538    2686   1
  -6  14   5   99567    1451   1
  -5 -14   5   11815     658  -2
  -5  14   5   11815     658   1
  -4  14   5   77818    1526   1
  -3  14   5     906     284   1
  -2  14   5   25222     852   1
  -4 -14   0    8565    3156  -2
  -1  14   5    8565    3156   1
   0  14   5   23572     884   1
   1  14   5  109925    1877   1
  -3 -14  -4    4645    1496  -2
   2  14   5    4645    1496   1
   3  14   5   44960    1621   1
   4  14   5   10991     493   1
   5  14   5   22742     814   1
  -2 -14  -9   13943     561  -2
   6  14   5   13943     561   1
   7  14   5     927     227   1
   8  14   5   17546     916   1
   9  14   5    3134     408   1
  10  14   5   18615    1066   1
 -11  15   5    1491     486   1
 -10  15   5    6124     676   1
  -9  15   5    9152     667   1
  -8  15   5    2426     360   1
  -7  15   5   11954     680   1
  -6  15   5    3820     463   1
  -5 -15   5   40384    1179  -2
  -5  15   5   40384    1179   1
  -4  15   5   36134    1044   1
  -3  15   5  114988    1427   1
  -2  15   5   20623     978   1
  -4 -15   0   39152    1145  -2
  -1  15   5   39152    1145   1
   0  15   5     287     181   1
   1  15   5   60105    1363   1
  -3 -15  -4   44786     997  -2
   2  15   5   44786     997   1
   3  15   5    2048     206   1
   4  15   5   17230     559   1
   5  15   5    4271     459   1
  -2 -15  -9    3311     551  -2
   6  15   5    3311     551   1
   7  15   5     441     222   1
   8  15   5     726     236   1
   9  15   5    1427     357   1
  10  15   5    2874     471   1
 -10  16   5    2482     581   1
  -9  16   5    1974    1493   1
  -8  16   5    1560     321   1
  -7  16   5   34731     954   1
  -6  16   5     609     497   1
  -5 -16   5   32219    1196  -2
  -5  16   5   32219    1196   1
  -4  16   5    2909     645   1
  -3  16   5   46560    1167   1
  -2  16   5   33778    1038   1
  -4 -16   0    1755     371  -2
  -1  16   5    1755     371   1
   0  16   5    1906     600   1
   1  16   5   80258    2243   1
  -3 -16  -4   18670     740  -2
   2  16   5   18670     740   1
   3  16   5   12041     514   1
   4  16   5    1511     259   1
   5  16   5    2668     341   1
  -2 -16  -9    9905     644  -2
   6  16   5    9905     644   1
   7  16   5    6201     678   1
   8  16   5    1761     356   1
   9  16   5    1161     542   1
 -10  17   5    1745     527   1
  -9  17   5    2739     652   1
  -8  17   5    6816    1074   1
  -7  17   5     993     339   1
  -6  17   5    2385     620   1
  -5 -17   5   15736    1249  -2
  -5  17   5   15736    1249   1
  -4  17   5    5566     654   1
  -3  17   5   21163     831   1
  -2  17   5    3111     424   1
  -4 -17   0   24523    1775  -2
  -1  17   5   24523    1775   1
   0  17   5   13502     807   1
   1  17   5   14097     970   1
  -3 -17  -4    7930     696  -2
   2  17   5    7930     696   1
   3  17   5    6718     550   1
   4  17   5   42066    2820   1
   5  17   5   12063     943   1
  -2 -17  -9   10195     843  -2
   6  17   5   10195     843   1
   7  17   5    1111     269   1
   8  17   5    1202     348   1
  -9  18   5     454     344   1
  -8  18   5    5643    1858   1
  -7  18   5     884     401   1
  -6  18   5     617     286   1
  -5 -18   5   10481     747  -2
  -5  18   5   10481     747   1
  -4  18   5    3956     418   1
  -3  18   5    1015     443   1
  -2  18   5    1175     465   1
  -4 -18   0    1832     335  -2
  -1  18   5    1832     335   1
   0  18   5    5421     599   1
   1  18   5   14012    1010   1
  -3 -18  -4   29595    1291  -2
   2  18   5   29595    1291   1
   3  18   5     766     398   1
   4  18   5    2009     689   1
   5  18   5    7168     716   1
  -2 -18  -9   22863    1045  -2
   6  18   5   22863    1045   1
   7  18   5     269     407   1
   8  18   5   11403    1437   1
  -8  19   5    4756     787   1
  -7  19   5    6830     776   1
  -6  19   5     493     309   1
  -5 -19   5    1813     612  -2
  -5  19   5    1813     612   1
  -4  19   5   16986     670   1
  -3  19   5    5700     942   1
  -2  19   5   37990    1190   1
  -4 -19   0    1466     312  -2
  -1  19   5    1466     312   1
   0  19   5   31477    1382   1
   1  19   5     971     615   1
  -3 -19  -4   28641    1494  -2
   2  19   5   28641    1494   1
   3  19   5    2958     646   1
   4  19   5    1101     740   1
   5  19   5    9459    1894   1
  -2 -19  -9    8033    1518  -2
   6  19   5    8033    1518   1
   7  19   5   25957    1542   1
  -7  20   5     964     603   1
  -6  20   5    6294     890   1
  -5 -20   5   55436    1566  -2
  -5  20   5   55436    1566   1
  -4  20   5    1108     596   1
  -3  20   5   23599    1254   1
  -2  20   5   19858     827   1
  -4 -20   0    1707     365  -2
  -1  20   5    1707     365   1
   0  20   5    8884     665   1
   1  20   5    3697     489   1
  -3 -20  -4   29965    1653  -2
   2  20   5   29965    1653   1
   3  20   5    7988    1130   1
   4  20   5    6549     991   1
   5  20   5    2063     385   1
  -2 -20  -9   18170    2773  -2
   6  20   5   18170    2773   1
  -6  21   5    2008     534   1
  -5 -21   5    6206    1281  -2
  -5  21   5    6206    1281   1
  -4  21   5    2352     690   1
  -3  21   5   34557    1663   1
  -2  21   5    3453     594   1
  -4 -21   0    1303     423  -2
  -1  21   5    1303     423   1
   0  21   5    1377     416   1
   1  21   5   19194     913   1
  -3 -21  -4    3568     802  -2
   2  21   5    3568     802   1
   3  21   5   13449    1506   1
   4  21   5   10368    1400   1
  -4  22   5    3588     834   1
  -3  22   5    6673     896   1
  -2  22   5    2633     825   1
  -4 -22   0    2806     479  -2
  -1  22   5    2806     479   1
   0  22   5     590     357   1
   1  22   5   58058    2455   1
  -3 -22  -4    2279     518  -2
   2  22   5    2279     518   1
 -14   0   6    3744    1929   1
 -12   0   6   23597    2009   1
 -10   0   6   14898    1366   1
  -8   0   6  165609    2850   1
  -6   0   6  212296    2016  -2
  -6   0   6  212296    2016   1
  -4   0   6   53867     832   1
  -2   0   6 2218944   24323   1
   0   0   6  360521    3640   1
   2   0   6    1005     167   1
   4   0   6     547     168   1
   6   0   6    8604     801   1
   8   0   6    5469     941   1
  10   0   6    1078     384   1
  -1   0 -17   25941    1097  -2
  12   0   6   25941    1097   1
 -14   1   6    1099     408   1
 -13   1   6    5522     624   1
 -12   1   6   16846     930   1
 -11   1   6    3315     574   1
 -10   1   6   40295     869   1
  -9   1   6    1299     560   1
  -8   1   6   42000    1091   1
  -7   1   6   24762    1006   1
  -6  -1   6    7903     377  -2
  -6   1   6    7903     377   1
  -5   1   6  102234    1084   1
  -4   1   6  135540    1225   1
  -3   1   6 1144475    9162   1
  -2   1   6  299974    3264   1
  -1   1   6   28164     439   1
   0   1   6  755716    6083   1
  -4  -1  -3   19062    1563  -2
   1   1   6   19062    1563   1
   2   1   6    8083     293   1
   3   1   6   16001     321   1
   4   1   6   67154    1353   1
  -3  -1  -8   30267     646  -2
   5   1   6   30267     646   1
   6   1   6   90931    1445   1
   7   1   6   13196     868   1
   8   1   6    1195     286   1
   9   1   6   40999     854   1
  10   1   6   12809     511   1
  11   1   6     989     402   1
  -1  -1 -17    6175     700  -2
  12   1   6    6175     700   1
  13   1   6    2682     431   1
 -14   2   6   20328     982   1
 -13   2   6    7336     804   1
 -12   2   6     501     603   1
 -11   2   6    3258     395   1
 -10   2   6   53377    1213   1
  -9   2   6    1125     281   1
  -8   2   6    6546     472   1
  -7   2   6   65394    1023   1
  -6  -2   6  168422    1970  -2
  -6   2   6  168422    1970   1
  -5   2   6  382916    2152   1
  -4   2   6  299600    1898   1
  -3   2   6  144797    1073   1
  -2   2   6  255963    1852   1
  -1   2   6   20382     366   1
   0   2   6  218809    1591   1
  -4  -2  -3  283580   33472  -2
   1   2   6  283580   33472   1
   2   2   6   11195     239   1
   3   2   6     136      86   1
   4   2   6   21741     355   1
  -3  -2  -8   26157     610  -2
   5   2   6   26157     610   1
   6   2   6     495     196   1
   7   2   6   59010    1114   1
   8   2   6     838     244   1
   9   2   6    3091     319   1
  10   2   6    5756     388   1
  11   2   6    1275     270   1
  -1  -2 -17    3913     446  -2
  12   2   6    3913     446   1
  13   2   6     647     338   1
 -14   3   6    1327     300   1
 -13   3   6   15504     808   1
 -12   3   6     574     328   1
 -11   3   6     771     311   1
 -10   3   6   18368     746   1
  -9   3   6   16674     921   1
  -8   3   6   12627     583   1
  -7   3   6   31650     829   1
  -6  -3   6    8329     452  -2
  -6   3   6    8329     452   1
  -5   3   6   29027     451   1
  -4   3   6   41235     556   1
  -3   3   6  138080    1035   1
  -2   3   6  196926    1858   1
  -1   3   6  293823    3168   1
   0   3   6    8495     308   1
  -4  -3  -3  328324    3608  -2
   1   3   6  328324    3608   1
   2   3   6  330345    3782   1
   3   3   6   47697     850   1
   4   3   6   14186     483   1
  -3  -3  -8  112181    1508  -2
   5   3   6  112181    1508   1
   6   3   6    3448     275   1
   7   3   6   71508    1113   1
   8   3   6    8859    1476   1
   9   3   6   54304    1137   1
  10   3   6     431     347   1
  11   3   6     926     239   1
  -1  -3 -17    1161     442  -2
  12   3   6    1161     442   1
  13   3   6    4956     701   1
 -14   4   6    1625     712   1
 -13   4   6    4143     685   1
 -12   4   6   37779     875   1
 -11   4   6   96437    2119   1
 -10   4   6    2930     578   1
  -9   4   6   13849     893   1
  -8   4   6   93064    1585   1
  -7   4   6  105261    1645   1
  -6  -4   6   12787     437  -2
  -6   4   6   12787     437   1
  -5   4   6   34576     488   1
  -4   4   6    9719     355   1
  -3   4   6   20995     410   1
  -2   4   6   38735     801   1
  -1   4   6  354945    2126   1
   0   4   6  180624    1960   1
  -4  -4  -3    4609     561  -2
   1   4   6    4609     561   1
   2   4   6  257566    3134   1
   3   4   6    5646     503   1
   4   4   6   10918     507   1
  -3  -4  -8   92201    3440  -2
   5   4   6   92201    3440   1
   6   4   6   30308     860   1
   7   4   6   31915     886   1
   8   4   6     988     218   1
   9   4   6   13532    1024   1
  10   4   6   22108     737   1
  11   4   6    1228     360   1
  -1  -4 -17     654     278  -2
  12   4   6     654     278   1
  13   4   6   29979    1483   1
 -14   5   6    2405     472   1
 -13   5   6   14173     818   1
 -12   5   6    5642     495   1
 -11   5   6    2048     325   1
 -10   5   6  113922    1989   1
  -9   5   6    3384     446   1
  -8   5   6     554     191   1
  -7   5   6  104855    2122   1
  -6  -5   6  235281    4357  -2
  -6   5   6  235281    4357   1
  -5   5   6   58004     819   1
  -4   5   6   43926     688   1
  -3   5   6   13910     553   1
  -2   5   6  195388   27531   1
  -1   5   6     270     112   1
   0   5   6  371183    3084   1
  -4  -5  -3  103544    2687  -2
   1   5   6  103544    2687   1
   2   5   6  474052    2937   1
   3   5   6  185113    3422   1
   4   5   6  230530    2073   1
  -3  -5  -8  134226    1710  -2
   5   5   6  134226    1710   1
   6   5   6   57417    1139   1
   7   5   6   80004    1347   1
   8   5   6  130069    1432   1
   9   5   6   24004    1090   1
  10   5   6   26562     811   1
  11   5   6    1030     344   1
  -1  -5 -17    2895     447  -2
  12   5   6    2895     447   1
 -14   6   6    8948     882   1
 -13   6   6    2877     423   1
 -12   6   6   35364     893   1
 -11   6   6     280     386   1
 -10   6   6    5645     532   1
  -9   6   6   16789    1222   1
  -8   6   6   22209    1150   1
  -7   6   6  149733    2354   1
  -6  -6   6   86145    1550  -2
  -6   6   6   86145    1550   1
  -5   6   6   27158     543   1
  -4   6   6  284097    3206   1
  -3   6   6   16394     643   1
  -2   6   6   15886     557   1
  -1   6   6  104942    1345   1
   0   6   6     442     155   1
  -4  -6  -3   71796    2548  -2
   1   6   6   71796    2548   1
   2   6   6    3625     306   1
   3   6   6   24770     667   1
   4   6   6   39208     895   1
  -3  -6  -8   16988     572  -2
   5   6   6   16988     572   1
   6   6   6   37340    1081   1
   7   6   6    6536     574   1
   8   6   6   16334    2910   1
   9   6   6   33277     929   1
  10   6   6   12908     688   1
  11   6   6    8724     838   1
  -1  -6 -17   12599     905  -2
  12   6   6   12599     905   1
 -14   7   6    1470     308   1
 -13   7   6   40641    1133   1
 -12   7   6    4087     510   1
 -11   7   6    1884     460   1
 -10   7   6   13121     545   1
  -9   7   6   47993    1194   1
  -8   7   6    9411     581   1
  -7   7   6     535     275   1
  -6  -7   6   14032     546  -2
  -6   7   6   14032     546   1
  -5   7   6    5179     364   1
  -4   7   6  119416    1436   1
  -3   7   6     587     130   1
  -2   7   6    1587     231   1
  -1   7   6     507     100   1
   0   7   6    3892     266   1
  -4  -7  -3  194355    3034  -2
   1   7   6  194355    3034   1
   2   7   6   86525    1155   1
   3   7   6    2450     367   1
   4   7   6   38859     914   1
  -3  -7  -8   27034     834  -2
   5   7   6   27034     834   1
   6   7   6   10681     610   1
   7   7   6    6207     691   1
   8   7   6   21724     763   1
   9   7   6    2165     356   1
  10   7   6     711     283   1
  11   7   6    6397     463   1
  -1  -7 -17    9831     681  -2
  12   7   6    9831     681   1
 -13   8   6    2150     303   1
 -12   8   6   16710     843   1
 -11   8   6   17090     795   1
 -10   8   6    7954     959   1
  -9   8   6    7469     523   1
  -8   8   6   49564    1085   1
  -7   8   6   14272     504   1
  -6  -8   6     414     219  -2
  -6   8   6     414     219   1
  -5   8   6   18247     493   1
  -4   8   6   27335     547   1
  -3   8   6   11387     417   1
  -2   8   6  265523   12506   1
  -1   8   6   37856     634   1
   0   8   6     586     157   1
  -4  -8  -3   11836    1111  -2
   1   8   6   11836    1111   1
   2   8   6   14529     493   1
   3   8   6   94178    1518   1
   4   8   6     856     295   1
  -3  -8  -8   74159    2009  -2
   5   8   6   74159    2009   1
   6   8   6    4074     387   1
   7   8   6     597     459   1
   8   8   6     867     309   1
   9   8   6    2080     300   1
  10   8   6     765     596   1
  11   8   6   19014     806   1
  -1  -8 -17   10709     729  -2
  12   8   6   10709     729   1
 -13   9   6   13443    1097   1
 -12   9   6    2670     382   1
 -11   9   6   46392    1486   1
 -10   9   6   22154     903   1
  -9   9   6    1450     236   1
  -8   9   6    5934     390   1
  -7   9   6   98244    1884   1
  -6  -9   6  124320    2295  -2
  -6   9   6  124320    2295   1
  -5   9   6  117632    1834   1
  -4   9   6     389     146   1
  -3   9   6   52625    1033   1
  -2   9   6   61273    1218   1
  -1   9   6    1641     151   1
   0   9   6    3427     244   1
  -4  -9  -3   84994    3323  -2
   1   9   6   84994    3323   1
   2   9   6   10247     398   1
   3   9   6   56278    1069   1
   4   9   6    2245     286   1
  -3  -9  -8  124699    2234  -2
   5   9   6  124699    2234   1
   6   9   6   38475    1054   1
   7   9   6   18796     558   1
   8   9   6   51132    1117   1
   9   9   6    6945    1551   1
  10   9   6    2073     433   1
  11   9   6    2960     426   1
  -1  -9 -17    1309     315  -2
  12   9   6    1309     315   1
 -13  10   6    3875     629   1
 -12  10   6    5749     604   1
 -11  10   6   10313     698   1
 -10  10   6    3096     360   1
  -9  10   6     803     468   1
  -8  10   6  103734    1409   1
  -7  10   6   39985    1040   1
  -6 -10   6    2513     233  -2
  -6  10   6    2513     233   1
  -5  10   6   30347     820   1
  -4  10   6   13184     730   1
  -3  10   6     597     106   1
  -2  10   6    2148     749   1
  -1  10   6     740     171   1
   0  10   6    1110     110   1
  -4 -10  -3   10875    5310  -2
   1  10   6   10875    5310   1
   2  10   6   50180    1072   1
   3  10   6   12691     487   1
   4  10   6   12536     742   1
  -3 -10  -8    8640     690  -2
   5  10   6    8640     690   1
   6  10   6   59853    1215   1
   7  10   6   47522    1066   1
   8  10   6     894     321   1
   9  10   6    8039     513   1
  10  10   6   17492     901   1
  11  10   6    1207     446   1
 -13  11   6   26247    2986   1
 -12  11   6    2194     455   1
 -11  11   6   18288    1001   1
 -10  11   6    2337     418   1
  -9  11   6   43509    1667   1
  -8  11   6   11269     451   1
  -7  11   6    8388     694   1
  -6 -11   6   47034    1131  -2
  -6  11   6   47034    1131   1
  -5  11   6   17745     555   1
  -4  11   6    4836     267   1
  -3  11   6   22917     712   1
  -5 -11   1   24283     762  -2
  -2  11   6   24283     762   1
  -1  11   6   32141     900   1
   0  11   6   53812    1169   1
  -4 -11  -3   58793    1645  -2
   1  11   6   58793    1645   1
   2  11   6    7340     406   1
   3  11   6   51713     826   1
   4  11   6    1469     325   1
  -3 -11  -8    1567     317  -2
   5  11   6    1567     317   1
   6  11   6   12261     579   1
   7  11   6    3391     523   1
   8  11   6   38156    1603   1
   9  11   6    1551     359   1
  10  11   6     999     489   1
  11  11   6     669     315   1
 -12  12   6    1339     428   1
 -11  12   6    5860     685   1
 -10  12   6     842     416   1
  -9  12   6    6981    1722   1
  -8  12   6   48260    1104   1
  -7  12   6     318     212   1
  -6 -12   6   75728    1790  -2
  -6  12   6   75728    1790   1
  -5  12   6    2729     342   1
  -4  12   6   19546     766   1
  -3  12   6   49487    1238   1
  -5 -12   1  119726    1409  -2
  -2  12   6  119726    1409   1
  -1  12   6  151932    1859   1
   0  12   6    6335     404   1
  -4 -12  -3   27392     837  -2
   1  12   6   27392     837   1
   2  12   6   31683     804   1
   3  12   6   33895     901   1
   4  12   6   12275     609   1
  -3 -12  -8   28388     891  -2
   5  12   6   28388     891   1
   6  12   6   10700     710   1
   7  12   6    1066     244   1
   8  12   6   14717    1872   1
   9  12   6    9128    1694   1
  10  12   6    4226     600   1
  11  12   6    8256    1119   1
 -12  13   6     967     347   1
 -11  13   6     887     394   1
 -10  13   6    7108     542   1
  -9  13   6   23400    1078   1
  -8  13   6     598     353   1
  -7  13   6    1048     339   1
  -6 -13   6   15094     772  -2
  -6  13   6   15094     772   1
  -5  13   6   25634     866   1
  -4  13   6    1437     310   1
  -3  13   6  106132    2492   1
  -5 -13   1   29366     941  -2
  -2  13   6   29366     941   1
  -1  13   6   16263     566   1
   0  13   6   47090    1163   1
  -4 -13  -3   26750     767  -2
   1  13   6   26750     767   1
   2  13   6  220235    5825   1
   3  13   6   94639    1551   1
   4  13   6   84324    1620   1
  -3 -13  -8   44107    1344  -2
   5  13   6   44107    1344   1
   6  13   6   25664     949   1
   7  13   6    5659     415   1
   8  13   6    5760     580   1
   9  13   6    2448     646   1
  10  13   6   10746    1004   1
 -11  14   6   24658    1725   1
 -10  14   6    1007     308   1
  -9  14   6    2781     439   1
  -8  14   6   23286     935   1
  -7  14   6   13720     591   1
  -6 -14   6   98321    2086  -2
  -6  14   6   98321    2086   1
  -5  14   6   45450    1205   1
  -4  14   6    1129     317   1
  -3  14   6   17775     746   1
  -5 -14   1   11494    1100  -2
  -2  14   6   11494    1100   1
  -1  14   6  156561    2412   1
   0  14   6     887     334   1
  -4 -14  -3    5442    3495  -2
   1  14   6    5442    3495   1
   2  14   6   83767    1487   1
   3  14   6   22313     766   1
   4  14   6   60667    1381   1
  -3 -14  -8   10406     548  -2
   5  14   6   10406     548   1
   6  14   6   10559     726   1
   7  14   6   20267     834   1
   8  14   6   32768    1145   1
   9  14   6    2295     439   1
  10  14   6    2193     376   1
 -11  15   6    1421     381   1
 -10  15   6   10289    1151   1
  -9  15   6    2647    1111   1
  -8  15   6     497     288   1
  -7  15   6    3459     463   1
  -6 -15   6    4674     466  -2
  -6  15   6    4674     466   1
  -5  15   6     242     302   1
  -4  15   6   13476     531   1
  -3  15   6    5748     596   1
  -5 -15   1   24972    1703  -2
  -2  15   6   24972    1703   1
  -1  15   6    1198     360   1
   0  15   6   28510     925   1
  -4 -15  -3   28830    1025  -2
   1  15   6   28830    1025   1
   2  15   6  202195    4524   1
   3  15   6   18800     586   1
   4  15   6    2103     394   1
  -3 -15  -8    6897     593  -2
   5  15   6    6897     593   1
   6  15   6    4810     525   1
   7  15   6    8418     602   1
   8  15   6     981     505   1
   9  15   6    3701     591   1
 -10  16   6    2115     410   1
  -9  16   6    3799    1486   1
  -8  16   6   18349    1421   1
  -7  16   6     930     282   1
  -6 -16   6   18610    1019  -2
  -6  16   6   18610    1019   1
  -5  16   6    6134     808   1
  -4  16   6   37463    1219   1
  -3  16   6   29375    2400   1
  -5 -16   1    4141     385  -2
  -2  16   6    4141     385   1
  -1  16   6   15056     693   1
   0  16   6     873     410   1
  -4 -16  -3   42762    1188  -2
   1  16   6   42762    1188   1
   2  16   6   86862    2349   1
   3  16   6   19253     881   1
   4  16   6    6655     563   1
  -3 -16  -8    1046     313  -2
   5  16   6    1046     313   1
   6  16   6   27016     755   1
   7  16   6    1900     313   1
   8  16   6    5011     601   1
   9  16   6    1271     370   1
  -9  17   6    1401     309   1
  -8  17   6    1803     346   1
  -7  17   6     510     306   1
  -6 -17   6   23369     873  -2
  -6  17   6   23369     873   1
  -5  17   6   81244    1679   1
  -4  17   6    4469     425   1
  -3  17   6     940     444   1
  -5 -17   1    4154     493  -2
  -2  17   6    4154     493   1
  -1  17   6   49111    1228   1
   0  17   6   13784     686   1
  -4 -17  -3    1409     551  -2
   1  17   6    1409     551   1
   2  17   6   12992     742   1
   3  17   6    1456     328   1
   4  17   6    1144     577   1
  -3 -17  -8   11219     975  -2
   5  17   6   11219     975   1
   6  17   6    4943    1084   1
   7  17   6    1377     416   1
   8  17   6    4706     724   1
  -9  18   6    1678     383   1
  -8  18   6    1495     418   1
  -7  18   6    2902     424   1
  -6 -18   6     932     348  -2
  -6  18   6     932     348   1
  -5  18   6   15885     839   1
  -4  18   6    6687     613   1
  -3  18   6    4467     567   1
  -5 -18   1   67554    1961  -2
  -2  18   6   67554    1961   1
  -1  18   6   44126     950   1
   0  18   6     838     226   1
  -4 -18  -3    2074     434  -2
   1  18   6    2074     434   1
   2  18   6    1921     759   1
   3  18   6   31606    1781   1
   4  18   6    1240     440   1
  -3 -18  -8    2299     509  -2
   5  18   6    2299     509   1
   6  18   6    6134     893   1
   7  18   6   27224    1764   1
  -8  19   6   17886    1434   1
  -7  19   6    3301     442   1
  -6 -19   6     496     445  -2
  -6  19   6     496     445   1
  -5  19   6    7241     639   1
  -4  19   6   23429    1069   1
  -3  19   6   13903     748   1
  -5 -19   1    9175    1055  -2
  -2  19   6    9175    1055   1
  -1  19   6    4357     572   1
   0  19   6    1115     485   1
  -4 -19  -3   17554     894  -2
   1  19   6   17554     894   1
   2  19   6   50387    1904   1
   3  19   6    8425    1468   1
   4  19   6    1212     371   1
  -3 -19  -8   10340    2170  -2
   5  19   6   10340    2170   1
   6  19   6   11610    1414   1
  -7  20   6    7308    1254   1
  -6 -20   6    1036     384  -2
  -6  20   6    1036     384   1
  -5  20   6   24120    1683   1
  -4  20   6    1810     494   1
  -3  20   6    2897     546   1
  -5 -20   1   18669    1445  -2
  -2  20   6   18669    1445   1
  -1  20   6   31402    1602   1
   0  20   6   36629    1369   1
  -4 -20  -3   29257    1377  -2
   1  20   6   29257    1377   1
   2  20   6    1565     579   1
   3  20   6   39386    1522   1
   4  20   6   26827    1345   1
  -3 -20  -8    2571     708  -2
   5  20   6    2571     708   1
  -5  21   6     818     464   1
  -4  21   6    1463     498   1
  -3  21   6    1777     483   1
  -5 -21   1    6771     702  -2
  -2  21   6    6771     702   1
  -1  21   6    4361     575   1
   0  21   6    8877    1180   1
  -4 -21  -3    5275     762  -2
   1  21   6    5275     762   1
   2  21   6    1599     619   1
   3  21   6     587     530   1
   4  21   6     768     797   1
  -3  22   6    6387    1165   1
  -5 -22   1   18483    1517  -2
  -2  22   6   18483    1517   1
  -1  22   6    5352    1019   1
   0  22   6   25397    1349   1
  -4 -22  -3    8109    1001  -2
   1  22   6    8109    1001   1
 -13   0   7   12337     925   1
 -11   0   7   12547    1131   1
  -9   0   7    8721     889   1
  -7   0   7   74360    2111  -2
  -7   0   7   74360    2111   1
  -5   0   7    5583     461   1
  -3   0   7   22475     688   1
  -1   0   7  163398    1698   1
   1   0   7  617629    5361   1
   3   0   7   16604     582   1
   5   0   7   99394    2235   1
   7   0   7    3564     338   1
   9   0   7  116981    2212   1
  -2   0 -16   26952    1775  -2
  11   0   7   26952    1775   1
 -14   1   7     794     308   1
 -13   1   7    3613     692   1
 -12   1   7   29817    1004   1
 -11   1   7    8516     529   1
 -10   1   7    1584     284   1
  -9   1   7     926     288   1
  -8   1   7   21902     905   1
  -7  -1   7   91053    2644  -2
  -7   1   7   91053    2644   1
  -6   1   7   45812     849   1
  -5   1   7   60885     818   1
  -4   1   7  160073    1588   1
  -3   1   7  198504    1673   1
  -2   1   7  312950    2203   1
  -1   1   7  268937    2128   1
  -5  -1  -2    5366     770  -2
   0   1   7    5366     770   1
   1   1   7   10561     254   1
   2   1   7   68962     696   1
   3   1   7   12805     364   1
  -4  -1  -7    1785     141  -2
   4   1   7    1785     141   1
   5   1   7   41849     672   1
   6   1   7    1216     191   1
   7   1   7   10979     937   1
   8   1   7   51526     933   1
   9   1   7    1497     264   1
  10   1   7    6141     430   1
  -2  -1 -16   16183     888  -2
  11   1   7   16183     888   1
  12   1   7   14785     706   1
 -14   2   7    5613     655   1
 -13   2   7    6654     632   1
 -12   2   7   19969     976   1
 -11   2   7   42896    1143   1
 -10   2   7   27540    1229   1
  -9   2   7   25628    1052   1
  -8   2   7   56715    1083   1
  -7  -2   7  103194    1943  -2
  -7   2   7  103194    1943   1
  -6   2   7  176796    1714   1
  -5   2   7  165523    1571   1
  -4   2   7   23927     381   1
  -3   2   7   29412     686   1
  -2   2   7   92084    1113   1
  -1   2   7  497231    4047   1
   1   2   7   21097     364   1
   2   2   7   54593     672   1
   3   2   7   10952     325   1
  -4  -2  -7    3256     242  -2
   4   2   7    3256     242   1
   5   2   7     440     146   1
   6   2   7  154554    1605   1
   7   2   7  178079    2465   1
   8   2   7   57215    1883   1
   9   2   7   17402     532   1
  10   2   7   25816     752   1
  -2  -2 -16    3368     410  -2
  11   2   7    3368     410   1
  12   2   7    1885     386   1
 -14   3   7    5244    1168   1
 -13   3   7    5681     584   1
 -12   3   7   11599    1024   1
 -11   3   7   48661    1298   1
 -10   3   7   60178    1431   1
  -9   3   7     648     283   1
  -8   3   7    2106     226   1
  -7  -3   7   87056    1710  -2
  -7   3   7   87056    1710   1
  -6   3   7   90294    1258   1
  -5   3   7    3855     230   1
  -4   3   7   19792     428   1
  -3   3   7  438624    5605   1
  -2   3   7  537765    3154   1
  -1   3   7   31100     937   1
  -5  -3  -2   11568    1342  -2
   0   3   7   11568    1342   1
   1   3   7   34345     510   1
   2   3   7  140123    1324   1
   3   3   7   21978     633   1
  -4  -3  -7   22268     949  -2
   4   3   7   22268     949   1
   5   3   7    1276     223   1
   6   3   7  146313    1447   1
   7   3   7    1127     186   1
   9   3   7   23475     757   1
  10   3   7    2437     447   1
  -2  -3 -16    6042     518  -2
  11   3   7    6042     518   1
  12   3   7    5317     753   1
 -14   4   7   15881    1114   1
 -13   4   7    5491     591   1
 -12   4   7   18987     934   1
 -11   4   7   40372    1355   1
 -10   4   7    7899    1021   1
  -9   4   7    5302     572   1
  -8   4   7  259830    3960   1
  -7  -4   7   23245     963  -2
  -7   4   7   23245     963   1
  -6   4   7  132353    1968   1
  -5   4   7    2450     132   1
  -4   4   7    9558     465   1
  -3   4   7  113259    3432   1
  -2   4   7   12907     366   1
  -1   4   7   71645     891   1
  -5  -4  -2   39711    2703  -2
   0   4   7   39711    2703   1
   1   4   7     149      69   1
   2   4   7  218271    4186   1
   3   4   7    1453     188   1
  -4  -4  -7    1383     174  -2
   4   4   7    1383     174   1
   5   4   7   35479    1010   1
   6   4   7   14444     699   1
   7   4   7   46038    1120   1
   8   4   7    7805     462   1
   9   4   7    3799     597   1
  10   4   7   22773     759   1
  -2  -4 -16    1076     211  -2
  11   4   7    1076     211   1
  12   4   7    3506     504   1
 -14   5   7    1311     330   1
 -13   5   7    1185     334   1
 -12   5   7    1247     291   1
 -11   5   7    7419     611   1
 -10   5   7    2817    1171   1
  -9   5   7    8606     782   1
  -8   5   7   57230    1512   1
  -7  -5   7     834     196  -2
  -7   5   7     834     196   1
  -6   5   7  589658   12282   1
  -5   5   7  237571    2401   1
  -4   5   7    3759     356   1
  -3   5   7  284111    4955   1
  -2   5   7   38682     639   1
  -1   5   7   16130     503   1
  -5  -5  -2  141440    1922  -2
   0   5   7  141440    1922   1
   1   5   7  821200    6504   1
   2   5   7   21339     472   1
   3   5   7  213927    1781   1
  -4  -5  -7    1574     244  -2
   4   5   7    1574     244   1
   5   5   7    2938     295   1
   6   5   7    4586     499   1
   7   5   7    9005    1534   1
   8   5   7    2538     498   1
   9   5   7    7839     462   1
  10   5   7    1146     372   1
  -2  -5 -16    7344     751  -2
  11   5   7    7344     751   1
  12   5   7   16231    1296   1
 -14   6   7    9509     919   1
 -13   6   7   22313     990   1
 -12   6   7    2834     349   1
 -11   6   7   15467     813   1
 -10   6   7     300     286   1
  -9   6   7     938     358   1
  -8   6   7   31671     980   1
  -7  -6   7   42914    1211  -2
  -7   6   7   42914    1211   1
  -6   6   7   48474     903   1
  -5   6   7    9753     378   1
  -4   6   7  177814    3591   1
  -3   6   7    1242     301   1
  -2   6   7   48221     736   1
  -1   6   7    8237     287   1
  -5  -6  -2   34080     752  -2
   0   6   7   34080     752   1
   1   6   7    3057     226   1
   2   6   7  119776    1738   1
   3   6   7  134039    1417   1
  -4  -6  -7    5821     374  -2
   4   6   7    5821     374   1
   5   6   7   86628    1712   1
   6   6   7    9468     546   1
   7   6   7   12071     581   1
   8   6   7   77174    2078   1
   9   6   7    3729     410   1
  10   6   7    5730     502   1
  -2  -6 -16   51890    1202  -2
  11   6   7   51890    1202   1
  12   6   7     693     293   1
 -13   7   7     521     347   1
 -12   7   7    6320     585   1
 -11   7   7    6630     547   1
 -10   7   7    7132     638   1
  -9   7   7   76737    1739   1
  -8   7   7   20651     929   1
  -7  -7   7   38073    1111  -2
  -7   7   7   38073    1111   1
  -6   7   7    4804     350   1
  -5   7   7   11382     574   1
  -4   7   7   18698     757   1
  -3   7   7   14603     532   1
  -2   7   7     991     131   1
  -1   7   7   14013     424   1
  -5  -7  -2    1964     170  -2
   0   7   7    1964     170   1
   1   7   7  194250    1819   1
   2   7   7   39338     870   1
   3   7   7   39377     967   1
  -4  -7  -7   35889    1024  -2
   4   7   7   35889    1024   1
   5   7   7     473     280   1
   6   7   7  159829    2364   1
   7   7   7   29739    1333   1
   8   7   7   56436    1383   1
   9   7   7   20935     823   1
  10   7   7     541     300   1
  -2  -7 -16    4848     637  -2
  11   7   7    4848     637   1
  12   7   7    3886     445   1
 -13   8   7    9487     881   1
 -12   8   7     350     388   1
 -11   8   7    2647     321   1
 -10   8   7   61313    1323   1
  -9   8   7   14679     688   1
  -8   8   7   10643     462   1
  -7  -8   7   35183     922  -2
  -7   8   7   35183     922   1
  -6   8   7     693     212   1
  -5   8   7   24244     732   1
  -4   8   7  109234    3096   1
  -3   8   7   49138     920   1
  -2   8   7   22940     573   1
  -1   8   7   17647     582   1
  -5  -8  -2   17406    6277  -2
   0   8   7   17406    6277   1
   1   8   7   21460     475   1
   2   8   7   77221    1299   1
   3   8   7   18422     672   1
  -4  -8  -7    7337     718  -2
   4   8   7    7337     718   1
   5   8   7     532     201   1
   6   8   7   23857     702   1
   7   8   7    6611     552   1
   8   8   7   17794     969   1
   9   8   7    4134     454   1
  10   8   7    7908     657   1
  -2  -8 -16    2276     471  -2
  11   8   7    2276     471   1
 -13   9   7    1250     475   1
 -12   9   7   17731     944   1
 -11   9   7    2542     394   1
 -10   9   7   31632    1096   1
  -9   9   7    2185     331   1
  -8   9   7    5780     328   1
  -7  -9   7   32627     908  -2
  -7   9   7   32627     908   1
  -6   9   7  358203    4482   1
  -5   9   7     868     183   1
  -4   9   7    4500     304   1
  -3   9   7   15012     969   1
  -2   9   7   52687    1098   1
  -1   9   7     652     109   1
  -5  -9  -2    4511    1677  -2
   0   9   7    4511    1677   1
   1   9   7   26300     708   1
   2   9   7   86837    1476   1
   3   9   7   34792    1039   1
  -4  -9  -7    5725     432  -2
   4   9   7    5725     432   1
   5   9   7    3794     489   1
   6   9   7    7520     487   1
   7   9   7   13412     666   1
   8   9   7   24655    5318   1
   9   9   7   19639     878   1
  10   9   7    5377     693   1
  -2  -9 -16    1053     239  -2
  11   9   7    1053     239   1
 -13  10   7    8885     945   1
 -12  10   7    1550     367   1
 -11  10   7    6951     919   1
 -10  10   7   40764    1411   1
  -9  10   7    1173     443   1
  -8  10   7     748     336   1
  -7 -10   7  155019    1803  -2
  -7  10   7  155019    1803   1
  -6  10   7     393     190   1
  -5  10   7    7672     482   1
  -4  10   7    1175     175   1
  -3  10   7   49876    1114   1
  -2  10   7   16923     566   1
  -1  10   7   10293     714   1
  -5 -10  -2   23663     908  -2
   0  10   7   23663     908   1
   1  10   7   11316     574   1
   2  10   7    6107     350   1
   3  10   7   91573    1742   1
  -4 -10  -7   26818     739  -2
   4  10   7   26818     739   1
   5  10   7   40614    1124   1
   6  10   7    4984     529   1
   7  10   7    3244     452   1
   8  10   7    4987    2150   1
   9  10   7   11493     778   1
  10  10   7     787     304   1
  -2 -10 -16   10282     937  -2
  11  10   7   10282     937   1
 -12  11   7    2414     443   1
 -11  11   7    1520     291   1
 -10  11   7    9347     503   1
  -9  11   7   94568    2222   1
  -8  11   7   22016     712   1
  -7 -11   7    1307     238  -2
  -7  11   7    1307     238   1
  -6  11   7   12815     594   1
  -5  11   7    5255     432   1
  -4  11   7     426     233   1
  -3  11   7  107386    3021   1
  -2  11   7    5695     323   1
  -1  11   7   18350     686   1
  -5 -11  -2    1248     807  -2
   0  11   7    1248     807   1
   1  11   7  199614    2373   1
   2  11   7   16744     562   1
   3  11   7    2331     240   1
  -4 -11  -7     553     271  -2
   4  11   7     553     271   1
   5  11   7   18256     657   1
   6  11   7    7527     526   1
   7  11   7   11740     512   1
   8  11   7   39624     987   1
   9  11   7    8246     808   1
  10  11   7    1616     271   1
  -2 -11 -16    7967     908  -2
  11  11   7    7967     908   1
 -12  12   7   26201    1096   1
 -11  12   7    1081     444   1
 -10  12   7   10964     717   1
  -9  12   7    9560     731   1
  -8  12   7   47663    1412   1
  -7 -12   7  103696    1572  -2
  -7  12   7  103696    1572   1
  -6  12   7    2011     236   1
  -5  12   7     674     290   1
  -4  12   7    1159     270   1
  -3  12   7   50188    1193   1
  -2  12   7     443     178   1
  -1  12   7    2665     265   1
  -5 -12  -2   87119    2255  -2
   0  12   7   87119    2255   1
   1  12   7  173490    3706   1
   2  12   7    2194     497   1
   3  12   7   96511    1761   1
  -4 -12  -7   58385    1215  -2
   4  12   7   58385    1215   1
   5  12   7   39538    1570   1
   6  12   7    1402     460   1
   7  12   7   28044    1340   1
   8  12   7    4691     627   1
   9  12   7    8038     621   1
  10  12   7    3254     454   1
 -12  13   7   20021    1290   1
 -11  13   7    1030     343   1
 -10  13   7   14823    1285   1
  -9  13   7    2592     338   1
  -8  13   7    1697     326   1
  -7 -13   7   17292     638  -2
  -7  13   7   17292     638   1
  -6  13   7   57302    1458   1
  -5  13   7   18670     715   1
  -4  13   7    5237     383   1
  -3  13   7    6705     578   1
  -2  13   7   55310    1031   1
  -1  13   7   78427    1434   1
  -5 -13  -2   51456    1099  -2
   0  13   7   51456    1099   1
   1  13   7   95162    1890   1
   2  13   7   21692     665   1
   3  13   7   10543     646   1
  -4 -13  -7   43258    1329  -2
   4  13   7   43258    1329   1
   5  13   7   26634     896   1
   6  13   7    2215     410   1
   7  13   7       2     223   1
   8  13   7   34178    1002   1
   9  13   7     994     462   1
  10  13   7   58877    2340   1
 -11  14   7    1054     280   1
 -10  14   7     388     376   1
  -9  14   7    1776     320   1
  -8  14   7   61617    1745   1
  -7 -14   7   56092    1281  -2
  -7  14   7   56092    1281   1
  -6  14   7    8543     481   1
  -5  14   7    2402     483   1
  -4  14   7   31329     885   1
  -3  14   7   35479    1036   1
  -2  14   7     832     251   1
  -1  14   7   35699     966   1
  -5 -14  -2   36455    1457  -2
   0  14   7   36455    1457   1
   1  14   7   43672    1231   1
   2  14   7   79087    1198   1
   3  14   7   15122     633   1
  -4 -14  -7    9166     678  -2
   4  14   7    9166     678   1
   5  14   7    6907     571   1
   6  14   7    6352     466   1
   7  14   7     905     272   1
   8  14   7    2736     348   1
   9  14   7    3572     509   1
 -10  15   7   31123    1100   1
  -9  15   7     565     272   1
  -8  15   7     842     351   1
  -7 -15   7   13802     719  -2
  -7  15   7   13802     719   1
  -6  15   7   27274    1137   1
  -5  15   7   10283     588   1
  -4  15   7   67353    1337   1
  -3  15   7    6991     541   1
  -2  15   7   25831     871   1
  -1  15   7   35165     986   1
  -5 -15  -2   51597    1217  -2
   0  15   7   51597    1217   1
   1  15   7   23727     900   1
   2  15   7    1168     171   1
   3  15   7   12758     478   1
  -4 -15  -7   13972     604  -2
   4  15   7   13972     604   1
   5  15   7   21592     918   1
   6  15   7     777     353   1
   7  15   7    1250     279   1
   8  15   7    9998    1922   1
   9  15   7    1700     644   1
 -10  16   7    3132     529   1
  -9  16   7    1723     316   1
  -8  16   7     511     321   1
  -7 -16   7    1421     374  -2
  -7  16   7    1421     374   1
  -6  16   7    2786     366   1
  -5  16   7   12564     833   1
  -4  16   7   12146     541   1
  -6 -16   2   11076    1030  -2
  -3  16   7   11076    1030   1
  -2  16   7   17675     783   1
  -1  16   7  165665    2283   1
  -5 -16  -2   28762     884  -2
   0  16   7   28762     884   1
   1  16   7   23251     832   1
   2  16   7   10636     800   1
   3  16   7    5362     648   1
  -4 -16  -7   15741     945  -2
   4  16   7   15741     945   1
   5  16   7    4846     494   1
   6  16   7    1052     303   1
   7  16   7    3175    1659   1
   8  16   7    3203    1123   1
  -9  17   7    1132     323   1
  -8  17   7    2766     413   1
  -7 -17   7   30457    1070  -2
  -7  17   7   30457    1070   1
  -6  17   7    1265     412   1
  -5  17   7    2270     302   1
  -4  17   7   12736     598   1
  -6 -17   2   80597    1649  -2
  -3  17   7   80597    1649   1
  -2  17   7   20589     861   1
  -1  17   7    5004     446   1
  -5 -17  -2   12079     773  -2
   0  17   7   12079     773   1
   1  17   7    2849     399   1
   2  17   7   13676    1445   1
   3  17   7    1608     265   1
  -4 -17  -7   18019     771  -2
   4  17   7   18019     771   1
   5  17   7   13425    1076   1
   6  17   7    4758     826   1
   7  17   7     976     455   1
  -8  18   7   13130     920   1
  -7 -18   7    4388     579  -2
  -7  18   7    4388     579   1
  -6  18   7    1422     333   1
  -5  18   7     835     303   1
  -4  18   7   55772    2253   1
  -6 -18   2    1318     467  -2
  -3  18   7    1318     467   1
  -2  18   7    3719     490   1
  -1  18   7     920     242   1
  -5 -18  -2   49144    1132  -2
   0  18   7   49144    1132   1
   1  18   7   12593    1861   1
   2  18   7    1411     560   1
   3  18   7    7089     764   1
  -4 -18  -7   18595    1391  -2
   4  18   7   18595    1391   1
   5  18   7    1759     401   1
   6  18   7    1804     360   1
  -7 -19   7    1782     415  -2
  -7  19   7    1782     415   1
  -6  19   7   27357    1025   1
  -5  19   7    1052     651   1
  -4  19   7    1099     392   1
  -6 -19   2    3694     454  -2
  -3  19   7    3694     454   1
  -2  19   7    1718     292   1
  -1  19   7    1294     436   1
  -5 -19  -2    9250     988  -2
   0  19   7    9250     988   1
   1  19   7    7490     974   1
   2  19   7    1319     766   1
   3  19   7    2467     751   1
  -4 -19  -7    2160     729  -2
   4  19   7    2160     729   1
   5  19   7    3463     500   1
  -6  20   7    5565     826   1
  -5  20   7    2637     540   1
  -4  20   7     454     477   1
  -6 -20   2   69522    2127  -2
  -3  20   7   69522    2127   1
  -2  20   7   13001    1210   1
  -1  20   7    2672     501   1
  -5 -20  -2   17355    1964  -2
   0  20   7   17355    1964   1
   1  20   7    6954     785   1
   2  20   7    1853    1000   1
   3  20   7    1640     700   1
  -4 -20  -7    1381     467  -2
   4  20   7    1381     467   1
  -4  21   7    2941     928   1
  -6 -21   2    4450     693  -2
  -3  21   7    4450     693   1
  -2  21   7     991     371   1
  -1  21   7    1258     672   1
  -5 -21  -2    2942     719  -2
   0  21   7    2942     719   1
   1  21   7   14099    1221   1
   2  21   7     604     495   1
 -14   0   8   30347    2752   1
 -12   0   8   26339    1516   1
 -10   0   8  115855    2774   1
  -8   0   8    3502     446  -2
  -8   0   8    3502     446   1
  -6   0   8  110170    1730   1
  -4   0   8 1503507   11868   1
  -2   0   8   13947     519   1
   0   0   8 1863774   56114   1
   2   0   8   13977     509   1
   4   0   8  161606    2475   1
   6   0   8  173374    4723   1
   8   0   8   67982    1705   1
  -3   0 -15   11334    1018  -2
  10   0   8   11334    1018   1
  12   0   8    1574     497   1
 -14   1   8    5816     879   1
 -13   1   8    8635     757   1
 -12   1   8    1442     319   1
 -11   1   8    2409     398   1
 -10   1   8   51540    1168   1
  -9   1   8   21649     817   1
  -8  -1   8  136256    2331  -2
  -8   1   8  136256    2331   1
  -7   1   8   52767    1154   1
  -6   1   8   33131     780   1
  -5   1   8    1979     164   1
  -4   1   8    1463     629   1
  -3   1   8  343964    2608   1
  -2   1   8   15974     559   1
  -1   1   8  711061    8809   1
   0   1   8   27573     534   1
   1   1   8   30269     397   1
   2   1   8   36600     546   1
  -5  -1  -6    8277     313  -2
   3   1   8    8277     313   1
   4   1   8    2049     200   1
   5   1   8   16826     535   1
   6   1   8   49794    1012   1
   7   1   8    3493    1147   1
   8   1   8   77350     790   1
   9   1   8    1824     281   1
  -3  -1 -15    6135     958  -2
  10   1   8    6135     958   1
  11   1   8   14042    1588   1
  12   1   8    6802     623   1
 -14   2   8    4909     566   1
 -13   2   8    6972     665   1
 -12   2   8    6848    1768   1
 -11   2   8    3969     652   1
 -10   2   8    8242     658   1
  -9   2   8     791     361   1
  -8  -2   8  138778    1672  -2
  -8   2   8  138778    1672   1
  -7   2   8   91576    1441   1
  -6   2   8   11326     562   1
  -5   2   8   15822     463   1
  -4   2   8    7018     424   1
  -3   2   8  652008    5506   1
  -2   2   8   16773     521   1
  -1   2   8 1843947   19646   1
   0   2   8   51245     797   1
   1   2   8    7493     372   1
   2   2   8   28163     388   1
  -5  -2  -6   82242     966  -2
   3   2   8   82242     966   1
   4   2   8    6429     377   1
   5   2   8   32777     891   1
   6   2   8   26836     616   1
   7   2   8  109549    2848   1
   8   2   8   16591     650   1
   9   2   8   32037     941   1
  -3  -2 -15    2900     431  -2
  10   2   8    2900     431   1
  11   2   8    4544     570   1
  12   2   8    5367     609   1
 -14   3   8    1605     311   1
 -13   3   8   12927    1346   1
 -12   3   8    3756     882   1
 -11   3   8   24374     765   1
 -10   3   8    7052     580   1
  -9   3   8   45927    1000   1
  -8  -3   8     638     191  -2
  -8   3   8     638     191   1
  -7   3   8   69614    1135   1
  -6   3   8   27257     670   1
  -5   3   8  154988    5514   1
  -4   3   8   56187    1023   1
  -3   3   8   16193     531   1
  -2   3   8   12410     453   1
  -1   3   8   43523     975   1
   0   3   8   44458     805   1
   1   3   8  127621    1504   1
   2   3   8   64463     854   1
  -5  -3  -6   51282     944  -2
   3   3   8   51282     944   1
   4   3   8   15223     777   1
   5   3   8    9103     675   1
   6   3   8   21375     766   1
   7   3   8  139954    3430   1
   8   3   8     937     406   1
   9   3   8   18403     608   1
  -3  -3 -15   10862     620  -2
  10   3   8   10862     620   1
  11   3   8    2862     526   1
  12   3   8    6917     864   1
 -14   4   8   11204    1983   1
 -13   4   8    3187     499   1
 -12   4   8    9851     755   1
 -11   4   8   12863     886   1
 -10   4   8   12657     638   1
  -9   4   8  149731    1775   1
  -8  -4   8   11624     825  -2
  -8   4   8   11624     825   1
  -7   4   8   22644     828   1
  -6   4   8    6650     327   1
  -5   4   8   70462     952   1
  -4   4   8  378283    6195   1
  -3   4   8   50647     853   1
  -2   4   8   76828    1711   1
  -1   4   8   40139     777   1
   0   4   8   30309     542   1
   1   4   8  277250    2427   1
   2   4   8  116193    1557   1
  -5  -4  -6  273442    3224  -2
   3   4   8  273442    3224   1
   4   4   8  208363    2580   1
   5   4   8   42548    1276   1
   6   4   8     805     238   1
   7   4   8    4927     993   1
   8   4   8   46375     966   1
   9   4   8    1260     256   1
  -3  -4 -15    4325     474  -2
  10   4   8    4325     474   1
  11   4   8   10672     748   1
  12   4   8     796     312   1
 -14   5   8    1170     682   1
 -13   5   8     554     324   1
 -12   5   8   60428    1794   1
 -11   5   8   21514     894   1
 -10   5   8    1821     287   1
  -9   5   8   99285    1730   1
  -8  -5   8  191890    2876  -2
  -8   5   8  191890    2876   1
  -7   5   8   39209     967   1
  -6   5   8    3432     268   1
  -5   5   8     753     210   1
  -4   5   8  110346    1535   1
  -3   5   8   25701     637   1
  -2   5   8   36426     747   1
  -1   5   8   28773    1783   1
   0   5   8   28368     639   1
   1   5   8    2287     227   1
   2   5   8   24766     611   1
  -5  -5  -6   91607    1641  -2
   3   5   8   91607    1641   1
   4   5   8    5024     340   1
   5   5   8   37117    1037   1
   6   5   8   94093    1802   1
   7   5   8    4446     720   1
   8   5   8    3781     459   1
   9   5   8   11006     609   1
  -3  -5 -15   14727    1026  -2
  10   5   8   14727    1026   1
  11   5   8   12556     926   1
  12   5   8    4006     511   1
 -13   6   8    2676     386   1
 -12   6   8    8717     842   1
 -11   6   8    6633     761   1
 -10   6   8   58690    1360   1
  -9   6   8   71480    1683   1
  -8  -6   8  159567    4152  -2
  -8   6   8  159567    4152   1
  -7   6   8  114214    1256   1
  -6   6   8  126611    2389   1
  -5   6   8  233622    2899   1
  -4   6   8   11273     568   1
  -3   6   8  136661    1420   1
  -2   6   8   11028     469   1
  -6  -6  -1  645956   10132  -2
  -1   6   8  645956   10132   1
   0   6   8  166360    2225   1
   1   6   8  204907    1505   1
   2   6   8    9613     742   1
  -5  -6  -6    4925     444  -2
   3   6   8    4925     444   1
   4   6   8  127666    1673   1
   5   6   8   12329     608   1
   6   6   8     660     258   1
   7   6   8   33962     916   1
   8   6   8     870     319   1
   9   6   8   18229     793   1
  -3  -6 -15    1364     305  -2
  10   6   8    1364     305   1
  11   6   8    1574     292   1
 -13   7   8    8982    1049   1
 -12   7   8   24811     966   1
 -11   7   8    6245     547   1
 -10   7   8    1244     279   1
  -9   7   8   19219     667   1
  -8  -7   8   35376    1052  -2
  -8   7   8   35376    1052   1
  -7   7   8   18455     548   1
  -6   7   8    8353     743   1
  -5   7   8   14159     875   1
  -4   7   8   31851     967   1
  -3   7   8   56817    1269   1
  -2   7   8    8093     409   1
  -6  -7  -1  272942    3797  -2
  -1   7   8  272942    3797   1
   0   7   8   68723     974   1
   1   7   8     632     142   1
   2   7   8   10342     574   1
  -5  -7  -6   19918    1157  -2
   3   7   8   19918    1157   1
   4   7   8    4173     322   1
   5   7   8    2947     342   1
   6   7   8   25846     758   1
   7   7   8   53328    1757   1
   8   7   8   40517    1223   1
   9   7   8   37109     967   1
  -3  -7 -15    3078     348  -2
  10   7   8    3078     348   1
  11   7   8     801     267   1
 -13   8   8    1181     245   1
 -12   8   8     942     401   1
 -11   8   8     722     312   1
 -10   8   8   26795     888   1
  -9   8   8     248     296   1
  -8  -8   8    8266     539  -2
  -8   8   8    8266     539   1
  -7   8   8   88417    1467   1
  -6   8   8     942     277   1
  -5   8   8   64680    1228   1
  -4   8   8    5680    1338   1
  -3   8   8   61359    1014   1
  -2   8   8    4818     323   1
  -6  -8  -1    1882     431  -2
  -1   8   8    1882     431   1
   0   8   8    9810     528   1
   1   8   8  331918    5007   1
   2   8   8   13433     779   1
  -5  -8  -6  148065    2039  -2
   3   8   8  148065    2039   1
   4   8   8   13753     686   1
   5   8   8    1717     280   1
   6   8   8   13265    1241   1
   7   8   8    1877     341   1
   8   8   8    4837     438   1
   9   8   8   16308     610   1
  -3  -8 -15    1218     309  -2
  10   8   8    1218     309   1
  11   8   8   13668    1063   1
 -13   9   8   15449    1183   1
 -12   9   8    5460     578   1
 -11   9   8    3922     592   1
 -10   9   8   22586     877   1
  -9   9   8    4609     589   1
  -8  -9   8   27175     836  -2
  -8   9   8   27175     836   1
  -7   9   8    2076     325   1
  -6   9   8    3354     393   1
  -5   9   8    3827     584   1
  -4   9   8    4713    3637   1
  -3   9   8   11762     557   1
  -2   9   8  113130    1729   1
  -6  -9  -1  174005    3747  -2
  -1   9   8  174005    3747   1
   0   9   8   15951     864   1
   1   9   8   41512    1004   1
   2   9   8    1750     283   1
  -5  -9  -6   37324    2639  -2
   3   9   8   37324    2639   1
   4   9   8   12363     569   1
   5   9   8    8464     449   1
   6   9   8   46609    1169   1
   7   9   8   23691    1018   1
   8   9   8    1990     336   1
   9   9   8    7072     564   1
  -3  -9 -15    1808     246  -2
  10   9   8    1808     246   1
  11   9   8     577     378   1
 -12  10   8    4445    3150   1
 -11  10   8    2181     418   1
 -10  10   8   40206     893   1
  -9  10   8   53228    1457   1
  -8 -10   8   14913     431  -2
  -8  10   8   14913     431   1
  -7  10   8    5087     292   1
  -6  10   8   12809     545   1
  -5  10   8     930     220   1
  -4  10   8    6575    1524   1
  -3  10   8    5262     405   1
  -2  10   8  100770    2208   1
  -6 -10  -1  143185    4216  -2
  -1  10   8  143185    4216   1
   0  10   8  248882    4966   1
   1  10   8    3935     409   1
   2  10   8     324     215   1
  -5 -10  -6    3277     494  -2
   3  10   8    3277     494   1
   4  10   8  144463    2039   1
   5  10   8   50577    1180   1
   6  10   8    1849     617   1
   7  10   8    6378     483   1
   8  10   8    1256     467   1
   9  10   8     686     281   1
  -3 -10 -15    9501     997  -2
  10  10   8    9501     997   1
 -12  11   8   13776    1640   1
 -11  11   8    1175     413   1
 -10  11   8    1052     340   1
  -9  11   8    7773     490   1
  -8 -11   8     606     423  -2
  -8  11   8     606     423   1
  -7  11   8   34388     824   1
  -6  11   8  102908    1585   1
  -5  11   8   37369    1577   1
  -4  11   8    8126    4372   1
  -3  11   8   25841     591   1
  -2  11   8   12069     818   1
  -6 -11  -1  112789    2350  -2
  -1  11   8  112789    2350   1
   0  11   8   14896    1123   1
   1  11   8   68019    1228   1
   2  11   8   36487     912   1
  -5 -11  -6    4647     511  -2
   3  11   8    4647     511   1
   4  11   8   31667     904   1
   5  11   8   47457    1079   1
   6  11   8    7698     767   1
   7  11   8   66853    1394   1
   8  11   8    1106     302   1
   9  11   8    1076     309   1
  -3 -11 -15   18581    1529  -2
  10  11   8   18581    1529   1
 -12  12   8   12622    1126   1
 -11  12   8    1782     547   1
 -10  12   8    1144     412   1
  -9  12   8    1737     322   1
  -8 -12   8   35335    1274  -2
  -8  12   8   35335    1274   1
  -7  12   8    2847     365   1
  -6  12   8    1322     197   1
  -5  12   8   72467    1509   1
  -4  12   8    4096     396   1
  -3  12   8   43987    1102   1
  -2  12   8    3584     376   1
  -6 -12  -1   10173    1702  -2
  -1  12   8   10173    1702   1
   0  12   8   11588     727   1
   1  12   8   39159    1239   1
   2  12   8     746     141   1
  -5 -12  -6   49243    1067  -2
   3  12   8   49243    1067   1
   4  12   8   10159     607   1
   5  12   8    1430     298   1
   6  12   8   20715    2538   1
   7  12   8    4475     478   1
   8  12   8   22983     984   1
   9  12   8     722     229   1
  -3 -12 -15    1629     285  -2
  10  12   8    1629     285   1
 -11  13   8     715     341   1
 -10  13   8   11887     803   1
  -9  13   8   46652    1452   1
  -8 -13   8   67834    1525  -2
  -8  13   8   67834    1525   1
  -7  13   8     868     280   1
  -6  13   8    3286     365   1
  -5  13   8    8223     731   1
  -4  13   8   25354     817   1
  -3  13   8     807     283   1
  -2  13   8    8258     263   1
   0  13   8    5767     529   1
   1  13   8  124160    1523   1
   2  13   8    1509     503   1
  -5 -13  -6   28375     919  -2
   3  13   8   28375     919   1
   4  13   8   55497    1249   1
   5  13   8   15969     769   1
   6  13   8    1515     279   1
   7  13   8    3077     463   1
   8  13   8    1277     322   1
   9  13   8    2392     439   1
 -11  14   8   37054    1807   1
 -10  14   8    4116     491   1
  -9  14   8    9046     709   1
  -8 -14   8   34459    1226  -2
  -8  14   8   34459    1226   1
  -7  14   8   35017    1156   1
  -6  14   8    8982     585   1
  -5  14   8   10652     518   1
  -4  14   8    1157     410   1
  -3  14   8   42150     885   1
  -2  14   8   10963     748   1
  -6 -14  -1   81051    1164  -2
  -1  14   8   81051    1164   1
   0  14   8    1827     349   1
   1  14   8   44896    1294   1
   2  14   8    7030     592   1
  -5 -14  -6   21661     787  -2
   3  14   8   21661     787   1
   4  14   8     879     219   1
   5  14   8   18108     922   1
   6  14   8     707     236   1
   7  14   8    1103     438   1
   8  14   8   10867     703   1
   9  14   8    4524     502   1
 -10  15   8    1343     310   1
  -9  15   8   19082     938   1
  -8 -15   8   10781     739  -2
  -8  15   8   10781     739   1
  -7  15   8    1504     347   1
  -6  15   8   43742    1706   1
  -5  15   8    6651     459   1
  -4  15   8   19359     888   1
  -3  15   8    6106     520   1
  -2  15   8    2745     423   1
  -6 -15  -1   42159    1792  -2
  -1  15   8   42159    1792   1
   0  15   8  119745    1937   1
   1  15   8    6221    1375   1
   2  15   8    4682     496   1
  -5 -15  -6   14182     700  -2
   3  15   8   14182     700   1
   4  15   8    9683     601   1
   5  15   8   13988     709   1
   6  15   8    1186     539   1
   7  15   8    7956    1548   1
   8  15   8    1100     249   1
  -9  16   8   10573     883   1
  -8 -16   8   67720    2149  -2
  -8  16   8   67720    2149   1
  -7  16   8    1141     405   1
  -6  16   8   17152     737   1
  -5  16   8    5298     442   1
  -4  16   8    1494     626   1
  -3  16   8    5260     455   1
  -2  16   8    1845     356   1
  -6 -16  -1   22843    1387  -2
  -1  16   8   22843    1387   1
   0  16   8    3915     359   1
   1  16   8     849     639   1
   2  16   8    5092     909   1
  -5 -16  -6    1242     516  -2
   3  16   8    1242     516   1
   4  16   8     634     442   1
   5  16   8    1669     304   1
   6  16   8    5295    1320   1
   7  16   8     504     327   1
  -9  17   8    5197     795   1
  -8 -17   8   23351    1003  -2
  -8  17   8   23351    1003   1
  -7  17   8     943     307   1
  -6  17   8    1216     360   1
  -5  17   8    1009     414   1
  -4  17   8   12371     670   1
  -3  17   8   20750    1122   1
  -2  17   8    5264     379   1
  -6 -17  -1    3071     422  -2
  -1  17   8    3071     422   1
   0  17   8   10986     752   1
   1  17   8    3143     586   1
   2  17   8    8167     982   1
  -5 -17  -6   19217     795  -2
   3  17   8   19217     795   1
   4  17   8     823     306   1
   5  17   8     387     472   1
   6  17   8     773     458   1
   7  17   8    1077     920   1
  -8 -18   8    2645     486  -2
  -8  18   8    2645     486   1
  -7  18   8    1016     448   1
  -6  18   8    3058     446   1
  -5  18   8    4573     557   1
  -4  18   8   13144     906   1
  -3  18   8    5977     621   1
  -2  18   8    6143     582   1
  -6 -18  -1   28602    1044  -2
  -1  18   8   28602    1044   1
   0  18   8   20904     784   1
   1  18   8     613     558   1
   2  18   8   13863    1187   1
  -5 -18  -6    3763     753  -2
   3  18   8    3763     753   1
   4  18   8    3329    1201   1
   5  18   8   21003    2045   1
   6  18   8    4436     807   1
  -7  19   8   23651    1393   1
  -6  19   8   10210    1136   1
  -5  19   8    5630     609   1
  -4  19   8    1057     304   1
  -3  19   8    2302     365   1
  -2  19   8    3019     451   1
  -6 -19  -1   43629    1431  -2
  -1  19   8   43629    1431   1
   0  19   8    9855     838   1
   1  19   8    6480     835   1
   2  19   8     893     476   1
  -5 -19  -6    4095     827  -2
   3  19   8    4095     827   1
   4  19   8    2431     601   1
   5  19   8    3487    1052   1
  -5  20   8    5278    1038   1
  -7 -20   3    4929     933  -2
  -4  20   8    4929     933   1
  -3  20   8    2475     506   1
  -2  20   8    7623     858   1
  -6 -20  -1    9894     936  -2
  -1  20   8    9894     936   1
   0  20   8    1563     469   1
   1  20   8   39479    1733   1
   2  20   8    5846    1157   1
  -5 -20  -6    1930     708  -2
   3  20   8    1930     708   1
  -3  21   8    1218     848   1
  -2  21   8   17219    1459   1
  -6 -21  -1    3359     731  -2
  -1  21   8    3359     731   1
   0  21   8    1314     732   1
   1  21   8   11894    2065   1
 -13   0   9   69545    2600   1
 -11   0   9   16040    1014   1
  -9   0   9   77147    2178  -2
  -9   0   9   77147    2178   1
  -7   0   9   54869    2013   1
  -5   0   9  155882    2116   1
  -3   0   9  252561    5362   1
  -1   0   9    2447     375   1
   1   0   9    1001     145   1
   3   0   9   40872    1363   1
   5   0   9   64122    2564   1
   7   0   9  219824    3617   1
  -4   0 -14   42539    3253  -2
   9   0   9   42539    3253   1
  11   0   9   17264     786   1
 -14   1   9    1880     354   1
 -13   1   9   16631    1095   1
 -12   1   9    6769     753   1
 -11   1   9   11675     634   1
 -10   1   9   23702     809   1
  -9  -1   9   10815     696  -2
  -9   1   9   10815     696   1
  -8   1   9   98420    2317   1
  -7   1   9   10308     581   1
  -6   1   9   19473     592   1
  -5   1   9  207874    1860   1
  -4   1   9    2251     149   1
  -3   1   9    1845     134   1
  -2   1   9  230060    3630   1
  -1   1   9   52915     856   1
   0   1   9   12716     385   1
   1   1   9   40450     643   1
  -6  -1  -5   12777     466  -2
   2   1   9   12777     466   1
   3   1   9     968     154   1
   4   1   9    6435     376   1
   5   1   9   85798    1578   1
   6   1   9   12645     958   1
   7   1   9    1286     233   1
   8   1   9    7011     515   1
  -4  -1 -14    4543     446  -2
   9   1   9    4543     446   1
  10   1   9    1519     297   1
  11   1   9    1720     390   1
 -14   2   9    7297    1219   1
 -13   2   9    1073     263   1
 -12   2   9    1917     334   1
 -11   2   9     793     269   1
 -10   2   9  127213    2018   1
  -9  -2   9   14538     614  -2
  -9   2   9   14538     614   1
  -8   2   9    8866     545   1
  -7   2   9   15613     561   1
  -6   2   9    2866     235   1
  -5   2   9   70502    1629   1
  -4   2   9     497     130   1
  -3   2   9   52615    1234   1
  -2   2   9   46798     959   1
  -1   2   9   13195     411   1
   0   2   9   45633     705   1
   1   2   9    1857     170   1
  -6  -2  -5  405014    5417  -2
   2   2   9  405014    5417   1
   3   2   9    3250     230   1
   4   2   9   57447     947   1
   5   2   9   43515     972   1
   6   2   9   31540    1791   1
   7   2   9   12276     532   1
   8   2   9   16145     565   1
  -4  -2 -14   16115     852  -2
   9   2   9   16115     852   1
  10   2   9    1677     284   1
  11   2   9    6541     670   1
 -14   3   9    1389     272   1
 -13   3   9    5001     575   1
 -12   3   9   50549    1591   1
 -11   3   9    7533     825   1
 -10   3   9   14909     634   1
  -9  -3   9   28178     873  -2
  -9   3   9   28178     873   1
  -8   3   9  184803    3263   1
  -7   3   9   13695     581   1
  -6   3   9    1950     248   1
  -5   3   9  126359    1361   1
  -4   3   9   67470     860   1
  -3   3   9   60826    1213   1
  -2   3   9  761397   12135   1
  -1   3   9   46492    1255   1
   0   3   9   21527     616   1
   1   3   9  106620    1281   1
  -6  -3  -5   32938     587  -2
   2   3   9   32938     587   1
   3   3   9   10726     458   1
   4   3   9    6364     461   1
   5   3   9    1035     299   1
   6   3   9   10592    3487   1
   7   3   9    8665     405   1
   8   3   9    7786     395   1
  -4  -3 -14    6412     414  -2
   9   3   9    6412     414   1
  10   3   9    9659    1007   1
  11   3   9    1510     293   1
 -14   4   9    1483     388   1
 -13   4   9    2120     801   1
 -12   4   9    1499     313   1
 -11   4   9   83243    1654   1
 -10   4   9   13604     540   1
  -9  -4   9   79478    1413  -2
  -9   4   9   79478    1413   1
  -8   4   9   26467     843   1
  -7   4   9  181917    1595   1
  -6   4   9   34932     963   1
  -5   4   9    7105     352   1
  -4   4   9    9350     390   1
  -3   4   9   65852    1103   1
  -2   4   9   45604    1423   1
  -1   4   9   72704     980   1
   0   4   9   11764     418   1
   1   4   9  446756    4785   1
  -6  -4  -5   12824     447  -2
   2   4   9   12824     447   1
   3   4   9  349182    3642   1
   4   4   9   70824    1347   1
   5   4   9   30248     816   1
   6   4   9   27931     814   1
   7   4   9  131363    1479   1
   8   4   9   45660    1216   1
  -4  -4 -14    2160     339  -2
   9   4   9    2160     339   1
  10   4   9    3582     385   1
  11   4   9    3645     588   1
 -13   5   9    1034     344   1
 -12   5   9     417     575   1
 -11   5   9     975     297   1
 -10   5   9    2285     354   1
  -9  -5   9   16239     827  -2
  -9   5   9   16239     827   1
  -8   5   9   47832     969   1
  -7   5   9    2057     367   1
  -6   5   9    2943     335   1
  -5   5   9  216416    2870   1
  -4   5   9  179900    1949   1
  -3   5   9    5196     414   1
  -2   5   9   20844     947   1
  -1   5   9  750333   10478   1
   0   5   9    5238     238   1
   1   5   9   68151    1257   1
  -6  -5  -5  137073    1620  -2
   2   5   9  137073    1620   1
   3   5   9   58955    1080   1
   4   5   9    1931     333   1
   5   5   9   30726     885   1
   6   5   9    2478     540   1
   7   5   9    8184     422   1
   8   5   9    1043     423   1
  -4  -5 -14   12484     871  -2
   9   5   9   12484     871   1
  10   5   9    5348     865   1
  11   5   9     945     290   1
 -13   6   9    2098     420   1
 -12   6   9    6583     565   1
 -11   6   9   10143     789   1
 -10   6   9   23057     755   1
  -9  -6   9   16295     844  -2
  -9   6   9   16295     844   1
  -8   6   9  137534    1646   1
  -7   6   9   39094     918   1
  -6   6   9   69608    1425   1
  -5   6   9   10127     420   1
  -4   6   9     328     105   1
  -3   6   9   13346     586   1
  -2   6   9   19100    1729   1
  -1   6   9   15244     952   1
   0   6   9   23229     608   1
   1   6   9  252424    2481   1
  -6  -6  -5    4574     325  -2
   2   6   9    4574     325   1
   3   6   9   35353     943   1
   4   6   9    9474     534   1
   5   6   9   29796    1002   1
   6   6   9   70581    1473   1
   7   6   9   15858     977   1
   8   6   9    5563     517   1
  -4  -6 -14    2653     505  -2
   9   6   9    2653     505   1
  10   6   9    1036     275   1
  11   6   9    1561     334   1
 -13   7   9    1027     298   1
 -12   7   9   32458    1118   1
 -11   7   9    5443     796   1
 -10   7   9    9883     943   1
  -9  -7   9    1655     345  -2
  -9   7   9    1655     345   1
  -8   7   9    4253     517   1
  -7   7   9    3241     359   1
  -6   7   9  306057    6047   1
  -5   7   9   26839     856   1
  -4   7   9   85785    1606   1
  -3   7   9     951     326   1
  -2   7   9  191414    7402   1
  -1   7   9  369067    8172   1
   0   7   9    3093     255   1
   1   7   9   16023     682   1
  -6  -7  -5   36629    1002  -2
   2   7   9   36629    1002   1
   3   7   9    2800     348   1
   4   7   9    1225     298   1
   5   7   9   28723     841   1
   6   7   9   58473    1838   1
   7   7   9    4275     444   1
   8   7   9   48241    1133   1
  -4  -7 -14    5109     483  -2
   9   7   9    5109     483   1
  10   7   9    3189     421   1
  11   7   9     452     262   1
 -13   8   9    3906     589   1
 -12   8   9    2810     364   1
 -11   8   9    4135     769   1
 -10   8   9   24541     961   1
  -9  -8   9   25076    1670  -2
  -9   8   9   25076    1670   1
  -8   8   9   18967     572   1
  -7   8   9   17848     608   1
  -6   8   9   23440    1210   1
  -5   8   9  168651    2178   1
  -4   8   9  138011    1559   1
  -3   8   9     656     180   1
  -2   8   9   41942    1777   1
  -1   8   9     632     223   1
   0   8   9   29830     751   1
   1   8   9    3203     220   1
  -6  -8  -5  101808    2107  -2
   2   8   9  101808    2107   1
   3   8   9   32010     961   1
   4   8   9    6878     560   1
   5   8   9   55211    1174   1
   6   8   9   44252    1474   1
   7   8   9    1180     293   1
   8   8   9   10184     573   1
  -4  -8 -14    3131     414  -2
   9   8   9    3131     414   1
  10   8   9   10252     594   1
 -12   9   9     537     250   1
 -11   9   9    1735     377   1
 -10   9   9    1006     287   1
  -9  -9   9   27153    1040  -2
  -9   9   9   27153    1040   1
  -8   9   9   62852    1292   1
  -7   9   9   23201     526   1
  -6   9   9     839     235   1
  -5   9   9     613     195   1
  -4   9   9  474565    5612   1
  -3   9   9    9975     598   1
  -2   9   9  162363    3769   1
  -1   9   9   85126    1894   1
   0   9   9     769     255   1
   1   9   9   25256     464   1
  -6  -9  -5  317593    3787  -2
   2   9   9  317593    3787   1
   3   9   9   12096     738   1
   4   9   9     923     273   1
   5   9   9   31937    1149   1
   6   9   9   62919    1509   1
   7   9   9    1569     285   1
   8   9   9    2527     490   1
  -4  -9 -14    1258     287  -2
   9   9   9    1258     287   1
  10   9   9    6458     699   1
 -12  10   9    5892     713   1
 -11  10   9    1094     285   1
 -10  10   9   25506     784   1
  -9 -10   9    9453     646  -2
  -9  10   9    9453     646   1
  -8  10   9   27632    1049   1
  -7  10   9   67136    1348   1
  -6  10   9    3092     238   1
  -5  10   9  124471    1625   1
  -4  10   9    7451     513   1
  -3  10   9   40997     994   1
  -7 -10   0   25265    1204  -2
  -2  10   9   25265    1204   1
  -1  10   9   55448    1680   1
   0  10   9   75966    1795   1
   1  10   9    6588     461   1
  -6 -10  -5    2537     314  -2
   2  10   9    2537     314   1
   3  10   9   82958    1749   1
   4  10   9    8307     587   1
   5  10   9   41269    1635   1
   6  10   9   11971     747   1
   7  10   9    1119     224   1
   8  10   9     810     303   1
  -4 -10 -14    1618     355  -2
   9  10   9    1618     355   1
  10  10   9    2490     355   1
 -12  11   9   16591    1313   1
 -11  11   9   16886     827   1
 -10  11   9    5928     515   1
  -9 -11   9    1997     388  -2
  -9  11   9    1997     388   1
  -8  11   9   13247     677   1
  -7  11   9   10855     396   1
  -6  11   9   26700    1251   1
  -5  11   9    5513    1620   1
  -4  11   9   57638    1861   1
  -3  11   9   72031    1595   1
  -7 -11   0  197725    6957  -2
  -2  11   9  197725    6957   1
  -1  11   9  585122    8682   1
   0  11   9    7365     628   1
   1  11   9   61474    1064   1
  -6 -11  -5    8930     556  -2
   2  11   9    8930     556   1
   3  11   9   26383    1257   1
   4  11   9    1015     270   1
   5  11   9   16205     980   1
   6  11   9   50606    1148   1
   7  11   9    3011     410   1
   8  11   9    1622     320   1
  -4 -11 -14   16356     664  -2
   9  11   9   16356     664   1
 -11  12   9    3718     479   1
 -10  12   9   38522    1454   1
  -9 -12   9    4612     477  -2
  -9  12   9    4612     477   1
  -8  12   9    2030     376   1
  -7  12   9     699     297   1
  -6  12   9     886     223   1
  -5  12   9    2729     720   1
  -4  12   9    2704     375   1
  -3  12   9  166137    2081   1
  -7 -12   0   29897    1876  -2
  -2  12   9   29897    1876   1
  -1  12   9    5561     517   1
   0  12   9     535     180   1
   1  12   9   17335     553   1
  -6 -12  -5   55587    1418  -2
   2  12   9   55587    1418   1
   3  12   9  114068    1608   1
   4  12   9   39306    1234   1
   5  12   9     904     234   1
   6  12   9   21979     987   1
   7  12   9    1125     201   1
   8  12   9   18533     908   1
  -4 -12 -14    3156     367  -2
   9  12   9    3156     367   1
 -11  13   9    1935     494   1
 -10  13   9    1599     409   1
  -9 -13   9   35008    1438  -2
  -9  13   9   35008    1438   1
  -8  13   9    9691     638   1
  -7  13   9    4193     414   1
  -6  13   9   21777     660   1
  -5  13   9   44522    1055   1
  -4  13   9     862     273   1
  -3  13   9    4690     525   1
  -7 -13   0    4397     431  -2
  -2  13   9    4397     431   1
  -1  13   9   96293    1386   1
   0  13   9    1475     234   1
   1  13   9     650     220   1
  -6 -13  -5  118349    1715  -2
   2  13   9  118349    1715   1
   3  13   9   63486    1256   1
   4  13   9   17559     869   1
   5  13   9     630     402   1
   6  13   9   48686    1346   1
   7  13   9    1303     251   1
   8  13   9    4940     513   1
  -4 -13 -14    4022     474  -2
   9  13   9    4022     474   1
 -10  14   9    1523     498   1
  -9 -14   9    2156     401  -2
  -9  14   9    2156     401   1
  -8  14   9   13979     606   1
  -7  14   9    3796     502   1
  -6  14   9   69649    1471   1
  -5  14   9   10507     578   1
  -4  14   9    3700     426   1
  -3  14   9    3154     705   1
  -7 -14   0   34026    1011  -2
  -2  14   9   34026    1011   1
  -1  14   9   70719    1436   1
   0  14   9   40074    1149   1
   1  14   9   22073    1161   1
  -6 -14  -5   39991    1159  -2
   2  14   9   39991    1159   1
   3  14   9   68907    1452   1
   4  14   9   39454    1244   1
   5  14   9   23996     960   1
   6  14   9    1232     305   1
   7  14   9    5836     591   1
   8  14   9   12775     988   1
 -10  15   9     834     516   1
  -9 -15   9     554     527  -2
  -9  15   9     554     527   1
  -8  15   9   13043    1162   1
  -7  15   9    5397     472   1
  -6  15   9    8941     518   1
  -5  15   9    7436     545   1
  -4  15   9   14534     729   1
  -3  15   9    4711     607   1
  -7 -15   0  161462    2846  -2
  -2  15   9  161462    2846   1
  -1  15   9   11561     685   1
   0  15   9   85524    1988   1
   1  15   9     755     395   1
  -6 -15  -5    6286     726  -2
   2  15   9    6286     726   1
   3  15   9  100482    2149   1
   4  15   9    1126     317   1
   5  15   9   10717     720   1
   6  15   9    6404     684   1
   7  15   9    1508     345   1
  -9 -16   9   11210    1144  -2
  -9  16   9   11210    1144   1
  -8  16   9   14040     808   1
  -7  16   9     705     366   1
  -6  16   9    1075     416   1
  -5  16   9     974     263   1
  -4  16   9   33412    1454   1
  -3  16   9   82391    1642   1
  -7 -16   0    2711     409  -2
  -2  16   9    2711     409   1
  -1  16   9    2665     435   1
   0  16   9   11285     767   1
   1  16   9    1674     365   1
  -6 -16  -5   34433    2091  -2
   2  16   9   34433    2091   1
   3  16   9    2998     648   1
   4  16   9    5221     761   1
   5  16   9    3209     852   1
   6  16   9    5732     807   1
   7  16   9    6415     977   1
  -8  17   9    5454     724   1
  -7  17   9    2983     457   1
  -6  17   9   15680     781   1
  -5  17   9   20677     912   1
  -4  17   9   12795    1208   1
  -3  17   9   20709     843   1
  -7 -17   0   42495    1667  -2
  -2  17   9   42495    1667   1
  -1  17   9   21806     725   1
   0  17   9    1107     271   1
   1  17   9    3364     613   1
  -6 -17  -5   24535    1784  -2
   2  17   9   24535    1784   1
   3  17   9   33336    1122   1
   4  17   9    1085     529   1
   5  17   9    5015    1071   1
   6  17   9   37496    1891   1
  -7  18   9    7598     921   1
  -6  18   9   44190    1367   1
  -5  18   9    1429     567   1
  -4  18   9    1129     373   1
  -3  18   9   12910     624   1
  -7 -18   0    6210     648  -2
  -2  18   9    6210     648   1
  -1  18   9    1020     697   1
   0  18   9   39181    1543   1
   1  18   9    7248     757   1
  -6 -18  -5   17044    2120  -2
   2  18   9   17044    2120   1
   3  18   9   10673    1143   1
   4  18   9    1576     653   1
   5  18   9    6079    1073   1
  -6  19   9    3371     613   1
  -5  19   9    3223     499   1
  -4  19   9   10584     946   1
  -3  19   9     692     243   1
  -7 -19   0   16259     778  -2
  -2  19   9   16259     778   1
  -1  19   9    1399     617   1
   0  19   9   10476    1157   1
   1  19   9    9768    1158   1
  -6 -19  -5   13628    1992  -2
   2  19   9   13628    1992   1
   3  19   9   12850    1375   1
   4  19   9    5049     818   1
  -4  20   9    1066     391   1
  -3  20   9   21072    2377   1
  -7 -20   0    3974     691  -2
  -2  20   9    3974     691   1
  -1  20   9    1060     554   1
   0  20   9   15022    1332   1
   1  20   9   12897    1625   1
  -6 -20  -5   17254    1710  -2
   2  20   9   17254    1710   1
 -12   0  10   27010    2790   1
 -10   0  10  281134    8546  -2
 -10   0  10  281134    8546   1
  -8   0  10  104116    3549   1
  -6   0  10   20687    3907   1
  -4   0  10   11212     625   1
  -2   0  10   79151    1727   1
   0   0  10  242468    3784   1
   2   0  10  222732    4317   1
   4   0  10   45023    1281   1
   6   0  10   38499    1699   1
  -5   0 -13    1025     822  -2
   8   0  10    1025     822   1
  10   0  10    1151     393   1
 -13   1  10   10231     921   1
 -12   1  10     876     443   1
 -11   1  10    4392     483   1
 -10  -1  10  118636    2216  -2
 -10   1  10  118636    2216   1
  -9   1  10   58670    1414   1
  -8   1  10   12598     470   1
  -7   1  10    9155     464   1
  -6   1  10   76902    1389   1
  -5   1  10    5395     326   1
  -4   1  10   34217     741   1
  -3   1  10   59515    1408   1
  -2   1  10    5242     494   1
  -1   1  10   40495     835   1
   0   1  10    7445     294   1
  -7  -1  -4  103936    1524  -2
   1   1  10  103936    1524   1
   2   1  10    1694     176   1
   3   1  10    3135     183   1
   4   1  10   27460     761   1
   5   1  10   12932     481   1
   6   1  10  409029    9521   1
   7   1  10   94394    1433   1
  -5  -1 -13    1714     355  -2
   8   1  10    1714     355   1
   9   1  10   46774    2782   1
  10   1  10    6415     654   1
  11   1  10    3235     465   1
 -13   2  10    3864     486   1
 -12   2  10    3800     511   1
 -11   2  10    7142     753   1
 -10  -2  10    1095     455  -2
 -10   2  10    1095     455   1
  -9   2  10   93432    1204   1
  -8   2  10    3310     387   1
  -7   2  10  160109    1782   1
  -6   2  10   47449     971   1
  -5   2  10   20878     635   1
  -4   2  10    5764     390   1
  -3   2  10    5848     509   1
  -2   2  10   20754     523   1
  -1   2  10   54821    1013   1
   0   2  10    1347     178   1
  -7  -2  -4   88951    1333  -2
   1   2  10   88951    1333   1
   2   2  10  128369    1745   1
   3   2  10    6231     347   1
   4   2  10   76867    1970   1
   5   2  10   87158    1441   1
   6   2  10  126681    1819   1
   7   2  10    1642     287   1
  -5  -2 -13    6921     806  -2
   8   2  10    6921     806   1
   9   2  10   34169    1212   1
  10   2  10     638     275   1
  11   2  10   12454    1473   1
 -13   3  10     366     317   1
 -12   3  10    5526     479   1
 -11   3  10   10021     642   1
 -10  -3  10    9894     494  -2
 -10   3  10    9894     494   1
  -9   3  10  102790    1418   1
  -8   3  10   27605     764   1
  -7   3  10     383     131   1
  -6   3  10   52757     919   1
  -5   3  10     854     175   1
  -4   3  10  104161    1718   1
  -3   3  10  159115    2183   1
  -2   3  10   48300     859   1
  -1   3  10   14277     612   1
   0   3  10     470     190   1
  -7  -3  -4   11358     560  -2
   1   3  10   11358     560   1
   2   3  10    6748     306   1
   3   3  10   49526    1040   1
   4   3  10  379120    2986   1
   5   3  10   68426    1145   1
   6   3  10    6360     492   1
   7   3  10    5786     531   1
  -5  -3 -13   28456     857  -2
   8   3  10   28456     857   1
   9   3  10   68236    1917   1
  10   3  10    1101     306   1
  11   3  10    1457     295   1
 -13   4  10    1210     353   1
 -12   4  10    5381     551   1
 -11   4  10    7644     608   1
 -10  -4  10     777     479  -2
 -10   4  10     777     479   1
  -9   4  10    1618     350   1
  -8   4  10   13470     702   1
  -7   4  10    2829     270   1
  -6   4  10   13751    1301   1
  -5   4  10   20863     643   1
  -4   4  10   95683    1548   1
  -3   4  10   43011    1531   1
  -2   4  10  294417    3775   1
  -1   4  10     567     124   1
   0   4  10   37105     800   1
  -7  -4  -4  233616    2462  -2
   1   4  10  233616    2462   1
   2   4  10   72018    1020   1
   3   4  10   15782     709   1
   4   4  10    9677     462   1
   5   4  10   15031     990   1
   6   4  10   54996    1104   1
   7   4  10   41548    1155   1
  -5  -4 -13    1078     338  -2
   8   4  10    1078     338   1
   9   4  10    8725     704   1
  10   4  10    5419     544   1
  11   4  10   12182    1149   1
 -13   5  10    2970     420   1
 -12   5  10     794     363   1
 -11   5  10   64157    1906   1
 -10  -5  10   62177    1392  -2
 -10   5  10   62177    1392   1
  -9   5  10    8609     534   1
  -8   5  10     679     214   1
  -7   5  10   15865     594   1
  -6   5  10  128581    1929   1
  -5   5  10   15115     504   1
  -4   5  10  101241    2073   1
  -3   5  10    6666     624   1
  -2   5  10  136299    1643   1
  -1   5  10   33128     808   1
   0   5  10   20879     616   1
  -7  -5  -4   66272    1065  -2
   1   5  10   66272    1065   1
   2   5  10  103255    1178   1
   3   5  10    3474     257   1
   4   5  10    8706     457   1
   5   5  10   53802    1083   1
   6   5  10  138426    1686   1
   7   5  10   35061    1019   1
  -5  -5 -13   10282     667  -2
   8   5  10   10282     667   1
   9   5  10     514     337   1
  10   5  10    8361    1003   1
 -13   6  10   11664    1168   1
 -12   6  10    1547     317   1
 -11   6  10    1514     353   1
 -10  -6  10    1686     543  -2
 -10   6  10    1686     543   1
  -9   6  10    1356     283   1
  -8   6  10     691     251   1
  -7   6  10   32015     950   1
  -6   6  10  251069    3100   1
  -5   6  10    9908     509   1
  -4   6  10    2958     372   1
  -3   6  10  110734    1733   1
  -2   6  10   38210    1110   1
  -1   6  10  110301    1579   1
   0   6  10   37083    1361   1
  -7  -6  -4   64529     971  -2
   1   6  10   64529     971   1
   2   6  10    8006     488   1
   3   6  10    2059     392   1
   4   6  10   25489    1014   1
   5   6  10   25115    1767   1
   6   6  10   26486     816   1
   7   6  10   17070     681   1
  -5  -6 -13   44107    1057  -2
   8   6  10   44107    1057   1
   9   6  10   36195     940   1
  10   6  10    3054    1123   1
 -13   7  10    1025     255   1
 -12   7  10    1148     329   1
 -11   7  10    2048     260   1
 -10  -7  10    1092     411  -2
 -10   7  10    1092     411   1
  -9   7  10   18442     832   1
  -8   7  10  138250    1916   1
  -7   7  10  148894    1946   1
  -6   7  10   64188    1184   1
  -5   7  10  195981    2603   1
  -4   7  10  108819    1402   1
  -3   7  10   18412    1506   1
  -2   7  10   51182    1808   1
  -1   7  10   27914     834   1
   0   7  10     538     178   1
  -7  -7  -4   60715    1264  -2
   1   7  10   60715    1264   1
   2   7  10  211289    3473   1
   3   7  10  106770    2153   1
   4   7  10    3815     389   1
   5   7  10   33136     892   1
   6   7  10   10522     592   1
   7   7  10   15024     677   1
  -5  -7 -13    4831     607  -2
   8   7  10    4831     607   1
   9   7  10   32986    1250   1
  10   7  10   10072     910   1
 -12   8  10    1759     364   1
 -11   8  10    9191     646   1
 -10  -8  10   13760     901  -2
 -10   8  10   13760     901   1
  -9   8  10   16413     814   1
  -8   8  10   39386    1061   1
  -7   8  10    1741     233   1
  -6   8  10   22289     684   1
  -5   8  10     443     187   1
  -4   8  10   15151     609   1
  -3   8  10  251004   10534   1
  -2   8  10  414707    8027   1
  -1   8  10   88869    1479   1
   0   8  10    3137     327   1
  -7  -8  -4   42854     903  -2
   1   8  10   42854     903   1
   2   8  10    5932     534   1
   3   8  10    3406     328   1
   4   8  10   88681    1840   1
   5   8  10   69275    1185   1
   6   8  10    1736     289   1
   7   8  10    6875     697   1
  -5  -8 -13   13933     778  -2
   8   8  10   13933     778   1
   9   8  10   16047     753   1
  10   8  10     988     308   1
 -12   9  10    1590     377   1
 -11   9  10    3564     426   1
 -10  -9  10    1651     304  -2
 -10   9  10    1651     304   1
  -9   9  10    1431     269   1
  -8   9  10   15242     500   1
  -7   9  10    7186     516   1
  -6   9  10   15326     577   1
  -5   9  10  200379    2301   1
  -4   9  10   51766    1132   1
  -3   9  10  363400   13042   1
  -2   9  10   20270     645   1
  -1   9  10    3801     260   1
   0   9  10  117733    2180   1
  -7  -9  -4   28991     909  -2
   1   9  10   28991     909   1
   2   9  10   10143     720   1
   3   9  10   34693    1021   1
   4   9  10    1935     297   1
   5   9  10   61171    1339   1
   6   9  10    1585     474   1
   7   9  10   11494     649   1
  -5  -9 -13    4315     516  -2
   8   9  10    4315     516   1
   9   9  10     761     309   1
 -12  10  10    3429    1486   1
 -11  10  10     938     302   1
 -10 -10  10     806     201  -2
 -10  10  10     806     201   1
  -9  10  10     893     226   1
  -8  10  10    5483     450   1
  -7  10  10   46914     949   1
  -6  10  10   50318    1113   1
  -5  10  10   11571     456   1
  -4  10  10   71405    1304   1
  -3  10  10  159963    3770   1
  -2  10  10  160003    2603   1
  -1  10  10   98562    1607   1
   0  10  10    9314     660   1
  -7 -10  -4  182672    2484  -2
   1  10  10  182672    2484   1
   2  10  10   32023     959   1
   3  10  10   43023     949   1
   4  10  10   13968    1174   1
   5  10  10    9830     921   1
   6  10  10   15116     945   1
   7  10  10    1341     308   1
  -5 -10 -13   16801    1395  -2
   8  10  10   16801    1395   1
   9  10  10    1958     783   1
 -11  11  10     733     377   1
 -10 -11  10    1020     322  -2
 -10  11  10    1020     322   1
  -9  11  10    1272     416   1
  -8  11  10   81712    1567   1
  -7  11  10   50076    3498   1
  -6  11  10   10597     708   1
  -5  11  10    7446     398   1
  -4  11  10   17724     686   1
  -3  11  10  155001    7063   1
  -2  11  10   17178     592   1
  -1  11  10    6759     324   1
   0  11  10    1074     222   1
  -7 -11  -4   76416    1659  -2
   1  11  10   76416    1659   1
   2  11  10   22583     704   1
   3  11  10   14785     676   1
   4  11  10   28806     960   1
   5  11  10   10950    2897   1
   6  11  10   17015    1146   1
   7  11  10   14847     977   1
  -5 -11 -13    2768     478  -2
   8  11  10    2768     478   1
   9  11  10   27538    1198   1
 -11  12  10    2949     567   1
 -10 -12  10    6707    1143  -2
 -10  12  10    6707    1143   1
  -9  12  10     713     348   1
  -8  12  10   18544     929   1
  -7  12  10   29002    1135   1
  -6  12  10   29429    1265   1
  -5  12  10     831     226   1
  -4  12  10    1848     210   1
  -3  12  10    4061    1476   1
  -2  12  10   47745    1078   1
  -1  12  10   17052     570   1
   0  12  10   27611     750   1
  -7 -12  -4  129445    3444  -2
   1  12  10  129445    3444   1
   2  12  10   41828    1098   1
   3  12  10   11161     605   1
   4  12  10   30976    1214   1
   5  12  10    4007     766   1
   6  12  10    4032     454   1
   7  12  10    3277     374   1
  -5 -12 -13   10156    1309  -2
   8  12  10   10156    1309   1
 -10 -13  10    7384     926  -2
 -10  13  10    7384     926   1
  -9  13  10    9830    1032   1
  -8  13  10     944     358   1
  -7  13  10   29220    1483   1
  -6  13  10    5265     649   1
  -5  13  10   27566    1092   1
  -4  13  10     739     268   1
  -3  13  10   11019     685   1
  -2  13  10    1200     189   1
  -1  13  10   12548     716   1
   0  13  10   66659    1261   1
  -7 -13  -4   17805    1107  -2
   1  13  10   17805    1107   1
   2  13  10     953     242   1
   3  13  10    2957     409   1
   4  13  10    7907     618   1
   5  13  10    8449    2544   1
   6  13  10    4344     632   1
   7  13  10    3258     364   1
  -5 -13 -13    3137     482  -2
   8  13  10    3137     482   1
 -10 -14  10   18474    1636  -2
 -10  14  10   18474    1636   1
  -9  14  10    1485     453   1
  -8  14  10    1438     467   1
  -7  14  10     502     281   1
  -6  14  10    4497     808   1
  -5  14  10    4631     533   1
  -4  14  10   22374     941   1
  -8 -14   1   36864    1348  -2
  -3  14  10   36864    1348   1
  -2  14  10   67094    1427   1
  -1  14  10   24181    1290   1
   0  14  10    9284     827   1
  -7 -14  -4  128438    2798  -2
   1  14  10  128438    2798   1
   2  14  10    2129     499   1
   3  14  10   11093     828   1
   4  14  10   10843     946   1
   5  14  10    1145     257   1
   6  14  10    6785     665   1
   7  14  10    8572     752   1
  -9  15  10     902     366   1
  -8  15  10   16994     900   1
  -7  15  10    9027     719   1
  -6  15  10    4368     564   1
  -5  15  10   34487    1345   1
  -4  15  10   10470     721   1
  -8 -15   1    7981    1047  -2
  -3  15  10    7981    1047   1
  -2  15  10    5697     501   1
  -1  15  10   35816    3077   1
   0  15  10    7401     891   1
  -7 -15  -4   12818    1209  -2
   1  15  10   12818    1209   1
   2  15  10   19631    1120   1
   3  15  10   18523    1223   1
   4  15  10    1814     577   1
   5  15  10    6998    1005   1
   6  15  10    4863     596   1
   7  15  10     418     320   1
  -8  16  10    5326     762   1
  -7  16  10   25296     981   1
  -6  16  10   24523     846   1
  -5  16  10   16477     981   1
  -4  16  10    8209     665   1
  -8 -16   1   24605    1116  -2
  -3  16  10   24605    1116   1
  -2  16  10   13133     771   1
  -1  16  10    1647     526   1
   0  16  10   97615    4300   1
  -7 -16  -4    2118     532  -2
   1  16  10    2118     532   1
   2  16  10    1506     465   1
   3  16  10    3743     821   1
   4  16  10   57846    2025   1
   5  16  10   13825    2041   1
   6  16  10    1222     325   1
  -7  17  10    4354     808   1
  -6  17  10   15993     907   1
  -5  17  10    4557     621   1
  -4  17  10   28088    1255   1
  -8 -17   1    1172     451  -2
  -3  17  10    1172     451   1
  -2  17  10    1812     617   1
  -1  17  10    3460     800   1
   0  17  10   13299    1905   1
  -7 -17  -4    3244     769  -2
   1  17  10    3244     769   1
   2  17  10    1263     875   1
   3  17  10     956     301   1
   4  17  10   22043    1287   1
   5  17  10   15552    2134   1
  -6  18  10    2778     504   1
  -5  18  10    3616     518   1
  -4  18  10    6204    1008   1
  -8 -18   1    8806     920  -2
  -3  18  10    8806     920   1
  -2  18  10     108     364   1
  -1  18  10   13488     983   1
   0  18  10   16474     915   1
  -7 -18  -4    2348     636  -2
   1  18  10    2348     636   1
   2  18  10    1960     592   1
   3  18  10   49967    3066   1
   4  18  10   12657    1409   1
  -5  19  10     683     483   1
  -4  19  10     585     775   1
  -8 -19   1    5533     763  -2
  -3  19  10    5533     763   1
  -2  19  10   18397    1347   1
  -1  19  10   39964    3084   1
   0  19  10    1515    1039   1
  -7 -19  -4   14052    1370  -2
   1  19  10   14052    1370   1
   2  19  10    5017     889   1
  -1  20  10     488     588   1
 -13   0  11   21717    1976   1
 -11   0  11   36259    1450  -2
 -11   0  11   36259    1450   1
  -9   0  11   42024    1339   1
  -7   0  11   34285    1108   1
  -5   0  11   81333    1636   1
  -3   0  11     491     130   1
  -1   0  11   58399    1204   1
   1   0  11    1508     380   1
   3   0  11    1912     268   1
   5   0  11   10356     571   1
  -6   0 -12  341957   13148  -2
   7   0  11  341957   13148   1
   9   0  11    7019     652   1
 -13   1  11    1228     232   1
 -12   1  11     609     265   1
 -11  -1  11   15291     813  -2
 -11   1  11   15291     813   1
 -10   1  11     640     211   1
  -9   1  11   56171    1260   1
  -8   1  11   22857     808   1
  -7   1  11   28733     864   1
  -6   1  11     464     137   1
  -5   1  11   25005     365   1
  -4   1  11  118379    1770   1
  -3   1  11     993     185   1
  -2   1  11     704     135   1
  -1   1  11   52043     947   1
  -8  -1  -3   28013     640  -2
   0   1  11   28013     640   1
   1   1  11   48794     960   1
   2   1  11     369     179   1
   3   1  11  429645    4814   1
   4   1  11   25348    1039   1
   5   1  11  157356    1764   1
   6   1  11   16110     495   1
  -6  -1 -12   61122    1371  -2
   7   1  11   61122    1371   1
   8   1  11    7294     456   1
   9   1  11     876     296   1
  10   1  11   12330    1150   1
 -13   2  11    4609     731   1
 -12   2  11   59047    1459   1
 -11  -2  11    2187     494  -2
 -11   2  11    2187     494   1
 -10   2  11    7467     686   1
  -9   2  11    4881     425   1
  -8   2  11  222662    3514   1
  -7   2  11   34691     782   1
  -6   2  11   23199     627   1
  -5   2  11    3801     217   1
  -4   2  11    1915     279   1
  -3   2  11   42686    1187   1
  -2   2  11   31993     839   1
  -1   2  11    8577     431   1
  -8  -2  -3   63951    1985  -2
   0   2  11   63951    1985   1
   1   2  11     642     132   1
   2   2  11     447     235   1
   3   2  11    3299     350   1
   4   2  11  255096    2394   1
   5   2  11   18972     798   1
   6   2  11   14828     828   1
  -6  -2 -12   41394    1011  -2
   7   2  11   41394    1011   1
   8   2  11    8425     929   1
   9   2  11   19958     882   1
  10   2  11    4295     510   1
 -13   3  11    1095     270   1
 -12   3  11    2592     403   1
 -11  -3  11   11447     697  -2
 -11   3  11   11447     697   1
 -10   3  11   25945    1062   1
  -9   3  11    4923     423   1
  -8   3  11   19481    3193   1
  -7   3  11   16885     435   1
  -6   3  11     665     150   1
  -5   3  11   10984     403   1
  -4   3  11   31082    1530   1
  -3   3  11  105396    1317   1
  -2   3  11   55315     950   1
  -1   3  11    8590     545   1
  -8  -3  -3  103952    1764  -2
   0   3  11  103952    1764   1
   1   3  11   12015     621   1
   2   3  11   10137     428   1
   3   3  11  236406    3116   1
   4   3  11  247623    3864   1
   5   3  11   11810     805   1
   6   3  11    1719     282   1
  -6  -3 -12   85973    1442  -2
   7   3  11   85973    1442   1
   8   3  11   47779    1334   1
   9   3  11    5603     750   1
  10   3  11    2477     372   1
 -13   4  11    2624     623   1
 -12   4  11    8624     828   1
 -11  -4  11   15959     790  -2
 -11   4  11   15959     790   1
 -10   4  11    5379     761   1
  -9   4  11   77307    1486   1
  -8   4  11   22613     710   1
  -7   4  11    4666     381   1
  -6   4  11   13707     507   1
  -5   4  11  198114    2207   1
  -4   4  11  123702    1300   1
  -3   4  11   16933     878   1
  -2   4  11    2003     237   1
  -1   4  11    6847     418   1
  -8  -4  -3   58893     994  -2
   0   4  11   58893     994   1
   1   4  11  131128    1843   1
   2   4  11   39618     808   1
   3   4  11    1713     361   1
   4   4  11   17032    1153   1
   5   4  11   62375    1337   1
   6   4  11    8848     455   1
  -6  -4 -12   62928    1117  -2
   7   4  11   62928    1117   1
   8   4  11   14815     835   1
   9   4  11   16726     792   1
  10   4  11    2288     492   1
 -13   5  11    2493     843   1
 -12   5  11   18183     876   1
 -11  -5  11    2521     426  -2
 -11   5  11    2521     426   1
 -10   5  11   26771    1098   1
  -9   5  11    4069     348   1
  -8   5  11   49244    1038   1
  -7   5  11   36435    1301   1
  -6   5  11   33866     881   1
  -5   5  11   90609    1251   1
  -4   5  11   46413    1635   1
  -3   5  11  102680    5521   1
  -2   5  11   15040     541   1
  -1   5  11  155285    1815   1
  -8  -5  -3   31941     874  -2
   0   5  11   31941     874   1
   1   5  11  417542    8187   1
   2   5  11   52038     816   1
   3   5  11  136450    2119   1
   4   5  11   16847     857   1
   5   5  11    1565     266   1
   6   5  11    2019     347   1
  -6  -5 -12   40433     845  -2
   7   5  11   40433     845   1
   8   5  11    3931     535   1
   9   5  11    7814     929   1
  10   5  11   20737    1583   1
 -12   6  11   15416     966   1
 -11  -6  11    2584     905  -2
 -11   6  11    2584     905   1
 -10   6  11   24608    1212   1
  -9   6  11    6809     744   1
  -8   6  11   34575    1018   1
  -7   6  11    3910     385   1
  -6   6  11  147108    1804   1
  -5   6  11  152665    1839   1
  -4   6  11   91170    1485   1
  -3   6  11     470     179   1
  -2   6  11   11033     560   1
  -1   6  11  300565    2609   1
  -8  -6  -3   69124    1240  -2
   0   6  11   69124    1240   1
   1   6  11   19244    1343   1
   2   6  11   99802    1921   1
   3   6  11   21876     655   1
   4   6  11    2789    2434   1
   5   6  11   22475     726   1
   6   6  11    8307     569   1
  -6  -6 -12    1354     232  -2
   7   6  11    1354     232   1
   8   6  11    1378     261   1
   9   6  11     986     306   1
  10   6  11    1593     498   1
 -12   7  11   21782     997   1
 -11  -7  11    7907     680  -2
 -11   7  11    7907     680   1
 -10   7  11   30710    1348   1
  -9   7  11    1403     266   1
  -8   7  11   14240     463   1
  -7   7  11   33149     933   1
  -6   7  11    6506     361   1
  -5   7  11  116593    2699   1
  -4   7  11  105036    1863   1
  -3   7  11   28920    1182   1
  -2   7  11    6488     595   1
  -1   7  11     881     225   1
  -8  -7  -3   94365    1605  -2
   0   7  11   94365    1605   1
   1   7  11   44329     979   1
   2   7  11   12251     513   1
   3   7  11  111475    3614   1
   4   7  11   60712    1468   1
   5   7  11    1834     284   1
   6   7  11   11147     562   1
  -6  -7 -12    2745     371  -2
   7   7  11    2745     371   1
   8   7  11   29180     998   1
   9   7  11    1086     253   1
 -12   8  11    7654     848   1
 -11  -8  11   18426    1302  -2
 -11   8  11   18426    1302   1
 -10   8  11   16373     765   1
  -9   8  11    1246     372   1
  -8   8  11   31696    2799   1
  -7   8  11   26839     825   1
  -6   8  11   77011    1146   1
  -5   8  11   25184     830   1
  -4   8  11  209645    4688   1
  -3   8  11  359432    6655   1
  -2   8  11   19595     812   1
  -1   8  11   38646    1021   1
  -8  -8  -3  133853    3001  -2
   0   8  11  133853    3001   1
   1   8  11    2338     284   1
   2   8  11    4982     364   1
   3   8  11    8022     446   1
   4   8  11    1506     319   1
   5   8  11    1849     339   1
   6   8  11   11046     732   1
  -6  -8 -12    3004     546  -2
   7   8  11    3004     546   1
   8   8  11    4658     638   1
   9   8  11    3329     397   1
 -12   9  11    1100     555   1
 -11  -9  11    3780     500  -2
 -11   9  11    3780     500   1
 -10   9  11    4680     451   1
  -9   9  11    3132     422   1
  -8   9  11   31184     948   1
  -7   9  11   18981     587   1
  -6   9  11   89508    1209   1
  -5   9  11   24739     840   1
  -4   9  11   98491    2106   1
  -3   9  11    4075     802   1
  -2   9  11  134982    1808   1
  -1   9  11   18520     557   1
  -8  -9  -3  338556    4805  -2
   0   9  11  338556    4805   1
   1   9  11  157253    3005   1
   2   9  11   73218    1727   1
   3   9  11    1158     252   1
   4   9  11   66840    1588   1
   5   9  11   20911     803   1
   6   9  11    4187     456   1
  -6  -9 -12    2033     591  -2
   7   9  11    2033     591   1
   8   9  11    3339     600   1
   9   9  11    1251     441   1
 -11 -10  11    7014     819  -2
 -11  10  11    7014     819   1
 -10  10  11     564     450   1
  -9  10  11   21620    1288   1
  -8  10  11    2288     331   1
  -7  10  11    1678     336   1
  -6  10  11    2704     347   1
  -5  10  11   25417     918   1
  -4  10  11   91510    1926   1
  -3  10  11   61407    1594   1
  -2  10  11  385150    5568   1
  -1  10  11    4837     439   1
  -8 -10  -3    3732     499  -2
   0  10  11    3732     499   1
   1  10  11  101110    1418   1
   2  10  11   15798     530   1
   3  10  11   10630    1019   1
   4  10  11     831     268   1
   5  10  11    9037     628   1
   6  10  11    1562     353   1
  -6 -10 -12   13521     916  -2
   7  10  11   13521     916   1
   8  10  11    1246     233   1
 -11 -11  11    1208     550  -2
 -11  11  11    1208     550   1
 -10  11  11    7632     867   1
  -9  11  11    1535     333   1
  -8  11  11    5240     683   1
  -7  11  11    3262     464   1
  -6  11  11   14932     504   1
  -5  11  11   29916     967   1
  -4  11  11   46095    1230   1
  -3  11  11   89661    1436   1
  -2  11  11     719     571   1
  -1  11  11   11656     561   1
  -8 -11  -3   36668    1231  -2
   0  11  11   36668    1231   1
   1  11  11    2510     383   1
   2  11  11    2463     402   1
   3  11  11    7366     527   1
   4  11  11   18285    1717   1
   5  11  11    6566     533   1
   6  11  11    9628     721   1
  -6 -11 -12    8812     829  -2
   7  11  11    8812     829   1
   8  11  11    8707     936   1
 -10  12  11    1320     397   1
  -9  12  11    5566     842   1
  -8  12  11    7653     710   1
  -7  12  11    6145     534   1
  -6  12  11    1909     382   1
  -5  12  11    2954     409   1
  -4  12  11   51440    1461   1
  -3  12  11   65419    5026   1
  -2  12  11   54813    1496   1
  -1  12  11   44508    1312   1
  -8 -12  -3   22172     971  -2
   0  12  11   22172     971   1
   1  12  11   35155    1181   1
   2  12  11    4517     443   1
   3  12  11     226     274   1
   4  12  11    1426     437   1
   5  12  11   11678     903   1
   6  12  11    1397     322   1
  -6 -12 -12    4793     905  -2
   7  12  11    4793     905   1
   8  12  11    8316     827   1
 -10  13  11    1810     457   1
  -9  13  11   15954    1023   1
  -8  13  11   14077    1060   1
  -7  13  11    3272     490   1
  -6  13  11     725     283   1
  -5  13  11   22573    1525   1
  -4  13  11   31989    1573   1
  -3  13  11   66381    1604   1
  -2  13  11   11374    1125   1
  -1  13  11   40885    1794   1
  -8 -13  -3   22265     643  -2
   0  13  11   22265     643   1
   1  13  11   10307     747   1
   2  13  11   22732    1075   1
   3  13  11    1226     285   1
   4  13  11    1117     328   1
   5  13  11   26862    1109   1
   6  13  11    1305     288   1
  -6 -13 -12     951     524  -2
   7  13  11     951     524   1
  -9  14  11    1909     362   1
  -8  14  11     902     212   1
  -7  14  11    3043     477   1
  -6  14  11    8541     713   1
  -5  14  11    1788     373   1
  -4  14  11    2530     425   1
  -3  14  11   33020     895   1
  -2  14  11    1884     340   1
  -1  14  11   13567    1312   1
  -8 -14  -3   59501    2553  -2
   0  14  11   59501    2553   1
   1  14  11   17145    1254   1
   2  14  11   16705    1091   1
   3  14  11    2371     398   1
   4  14  11     891     285   1
   5  14  11    9802    1077   1
   6  14  11    2265     298   1
  -8  15  11    3085     650   1
  -7  15  11   17248     880   1
  -6  15  11     806     290   1
  -5  15  11   51818    1858   1
  -4  15  11   27361    1120   1
  -3  15  11    3367     674   1
  -2  15  11    8948    1329   1
  -1  15  11   19048    1021   1
  -8 -15  -3    5598     910  -2
   0  15  11    5598     910   1
   1  15  11    2545     781   1
   2  15  11   31089    1376   1
   3  15  11   12013    1322   1
   4  15  11   32857    1175   1
   5  15  11   27068    1036   1
   6  15  11     737     300   1
  -8  16  11    2743     649   1
  -7  16  11    5478     889   1
  -6  16  11   17249     885   1
  -5  16  11    7915     894   1
  -4  16  11   21203    1549   1
  -3  16  11    1100     408   1
  -2  16  11    2616     540   1
  -1  16  11    1727     345   1
  -8 -16  -3     498     593  -2
   0  16  11     498     593   1
   1  16  11    6660     817   1
   2  16  11   19857    1323   1
   3  16  11   45168    1349   1
   4  16  11    1702     462   1
   5  16  11    2976     612   1
  -7  17  11   19508    2610   1
  -6  17  11    1621     444   1
  -5  17  11    1800     488   1
  -4  17  11   23597    1193   1
  -3  17  11     860     345   1
  -2  17  11    1304     417   1
  -1  17  11    2573     455   1
  -8 -17  -3    2561     586  -2
   0  17  11    2561     586   1
   1  17  11    1220     463   1
   2  17  11    1933     568   1
   3  17  11   39742    2052   1
   4  17  11    2322     451   1
  -5  18  11    4609     933   1
  -4  18  11   15530    1826   1
  -3  18  11    2091     407   1
  -2  18  11    9141     879   1
  -1  18  11    1422     362   1
  -8 -18  -3    1611     509  -2
   0  18  11    1611     509   1
   1  18  11   10731    1240   1
   2  18  11   29449    1808   1
  -3  19  11    2882     572   1
  -2  19  11    3340     791   1
  -1  19  11    4307    1112   1
  -8 -19  -3    4742    1281  -2
   0  19  11    4742    1281   1
 -12   0  12    1947     374  -2
 -12   0  12    1947     374   1
 -10   0  12    3941     681   1
  -8   0  12    2425     821   1
  -6   0  12   24612     832   1
  -4   0  12   43737    1328   1
  -2   0  12    9129     976   1
   0   0  12   16556     895   1
   2   0  12  465236    8552   1
   4   0  12  108051    3922   1
  -7   0 -11  179848   11224  -2
   6   0  12  179848   11224   1
   8   0  12     569     279   1
 -13   1  12    3570     657   1
 -12  -1  12   30573    1058  -2
 -12   1  12   30573    1058   1
 -11   1  12   21242     942   1
 -10   1  12   62455    1192   1
  -9   1  12   13544     851   1
  -8   1  12    1697     378   1
  -7   1  12     427     205   1
  -6   1  12     421     110   1
  -5   1  12    2886     421   1
  -4   1  12   37671     913   1
  -3   1  12   31383     848   1
  -2   1  12    1170     174   1
  -9  -1  -2   61042    1554  -2
  -1   1  12   61042    1554   1
   0   1  12     460     211   1
   1   1  12   54879    1049   1
   2   1  12     678     127   1
   3   1  12   73279    1292   1
   4   1  12     573     181   1
   5   1  12    4523     349   1
  -7  -1 -11   40400    1797  -2
   6   1  12   40400    1797   1
   7   1  12    2407     384   1
   8   1  12   12806     967   1
   9   1  12    1346     561   1
 -13   2  12    1317     321   1
 -12  -2  12    3867     484  -2
 -12   2  12    3867     484   1
 -11   2  12   28276    1228   1
 -10   2  12    6665     697   1
  -9   2  12    1436     268   1
  -8   2  12   41183    1023   1
  -7   2  12    2947     292   1
  -6   2  12     273     126   1
  -5   2  12   33124     910   1
  -4   2  12     334     222   1
  -3   2  12    3778     387   1
  -2   2  12     588     135   1
  -9  -2  -2   32980    1479  -2
  -1   2  12   32980    1479   1
   0   2  12   24061     661   1
   1   2  12    8286     599   1
   2   2  12      -2     228   1
   3   2  12  143954    1517   1
   4   2  12    5642     431   1
   5   2  12  170427    2162   1
  -7  -2 -11   33872    1313  -2
   6   2  12   33872    1313   1
   7   2  12   19350     795   1
   8   2  12   15316     687   1
   9   2  12   11080     897   1
 -12  -3  12     689     215  -2
 -12   3  12     689     215   1
 -11   3  12   52047    1423   1
 -10   3  12    1017     375   1
  -9   3  12    3023     462   1
  -8   3  12   81195    1599   1
  -7   3  12   45989     922   1
  -6   3  12   47256     902   1
  -5   3  12    8979     535   1
  -4   3  12    7356     806   1
  -3   3  12    7724     830   1
  -2   3  12    8632     461   1
  -9  -3  -2   28741     828  -2
  -1   3  12   28741     828   1
   0   3  12     611     144   1
   1   3  12  119150    1676   1
   2   3  12   61119    1182   1
   3   3  12  195660    2098   1
   4   3  12     921     393   1
   5   3  12   67656    1413   1
  -7  -3 -11   45969    1132  -2
   6   3  12   45969    1132   1
   7   3  12   22394    1104   1
   8   3  12    4255     448   1
   9   3  12   12962     743   1
 -12  -4  12     656     339  -2
 -12   4  12     656     339   1
 -11   4  12    8861     930   1
 -10   4  12    3066     751   1
  -9   4  12    1467     402   1
  -8   4  12   37143    1269   1
  -7   4  12    5462     572   1
  -6   4  12      30     152   1
  -5   4  12   20708     542   1
  -4   4  12   37274    1632   1
  -3   4  12    3029     405   1
  -2   4  12   85333    1355   1
  -9  -4  -2   62534    1153  -2
  -1   4  12   62534    1153   1
   0   4  12  128983    2025   1
   1   4  12   52933     965   1
   2   4  12    1707     178   1
   3   4  12    1142     354   1
   4   4  12    1905     314   1
   5   4  12  111903    1873   1
  -7  -4 -11   20256     763  -2
   6   4  12   20256     763   1
   7   4  12    5559     536   1
   8   4  12   57113    1394   1
   9   4  12   47703    1431   1
 -12  -5  12    4407     616  -2
 -12   5  12    4407     616   1
 -11   5  12    9003    1528   1
 -10   5  12   24976    1781   1
  -9   5  12    1505     380   1
  -8   5  12    4551     560   1
  -7   5  12   17098     523   1
  -6   5  12   12686     521   1
  -5   5  12   19022     590   1
  -4   5  12   49192    1324   1
  -3   5  12   26049     804   1
  -2   5  12   15740     601   1
  -9  -5  -2   41593     973  -2
  -1   5  12   41593     973   1
   0   5  12   70234    1681   1
   1   5  12   17839     968   1
   2   5  12   17113    1084   1
   3   5  12    7120     369   1
   4   5  12   18900    1118   1
   5   5  12    9870     469   1
  -7  -5 -11   10592    1027  -2
   6   5  12   10592    1027   1
   7   5  12    1419     260   1
   8   5  12   10489    1153   1
   9   5  12    7385     836   1
 -12  -6  12    1114     371  -2
 -12   6  12    1114     371   1
 -11   6  12    9449     885   1
 -10   6  12    9048     717   1
  -9   6  12    4182     622   1
  -8   6  12    4487    1327   1
  -7   6  12    6367     734   1
  -6   6  12   15344     525   1
  -5   6  12    7932     470   1
  -4   6  12     573     196   1
  -3   6  12     975     374   1
  -2   6  12   60161    1489   1
  -9  -6  -2   43808    1129  -2
  -1   6  12   43808    1129   1
   0   6  12  125830    1813   1
   1   6  12    6515     636   1
   2   6  12  313737    3449   1
   3   6  12   27358    2208   1
   4   6  12   10640     699   1
   5   6  12   46470    1467   1
  -7  -6 -11    1339     284  -2
   6   6  12    1339     284   1
   7   6  12     789     282   1
   8   6  12   27506    1277   1
   9   6  12    5046     792   1
 -12  -7  12    1165     371  -2
 -12   7  12    1165     371   1
 -11   7  12    1353     298   1
 -10   7  12   19604    1800   1
  -9   7  12    1477     461   1
  -8   7  12    2387     414   1
  -7   7  12   62685    1487   1
  -6   7  12   65955    1147   1
  -5   7  12    6646     911   1
  -4   7  12   35417    1094   1
  -3   7  12   28702    1044   1
  -2   7  12    8026     448   1
  -9  -7  -2   23243     932  -2
  -1   7  12   23243     932   1
   0   7  12  304325    3702   1
   1   7  12     838     226   1
   2   7  12  133422    1754   1
   3   7  12   55966    1316   1
   4   7  12    1356     321   1
   5   7  12    4173     513   1
  -7  -7 -11    4546     407  -2
   6   7  12    4546     407   1
   7   7  12    3957     471   1
   8   7  12    6721     681   1
   9   7  12    4916     652   1
 -11   8  12    1136     327   1
 -10   8  12    1249     410   1
  -9   8  12   13036    1036   1
  -8   8  12    1224     319   1
  -7   8  12    1248     247   1
  -6   8  12   12449     409   1
  -5   8  12   26813     827   1
  -4   8  12   13794     526   1
  -3   8  12   13130     771   1
  -2   8  12    1770     291   1
  -9  -8  -2  141887    1671  -2
  -1   8  12  141887    1671   1
   0   8  12    2766     312   1
   1   8  12   60044    1449   1
   2   8  12   12157     637   1
   3   8  12   51497    2215   1
   4   8  12    2449     418   1
   5   8  12    7253     580   1
  -7  -8 -11    7208     548  -2
   6   8  12    7208     548   1
   7   8  12    8713     947   1
   8   8  12    1307     329   1
 -11   9  12    1526     447   1
 -10   9  12   17261    1052   1
  -9   9  12    8233     513   1
  -8   9  12    4413     422   1
  -7   9  12   39562    1095   1
  -6   9  12   20058     574   1
  -5   9  12   14300    1150   1
  -4   9  12    5965     677   1
  -3   9  12  302492    4086   1
  -2   9  12  126143    3058   1
  -9  -9  -2  635576    5254  -2
  -1   9  12  635576    5254   1
   0   9  12    7460     535   1
   1   9  12    3630     459   1
   2   9  12     852     275   1
   3   9  12  100895    2040   1
   4   9  12    3066     581   1
   5   9  12   23334    1113   1
  -7  -9 -11    2652     410  -2
   6   9  12    2652     410   1
   7   9  12   12334     727   1
   8   9  12    2559     357   1
 -11  10  12     957     637   1
 -10  10  12    1478     261   1
  -9  10  12    8646    1092   1
  -8  10  12    1701     550   1
  -7  10  12    6754     531   1
  -6  10  12   12507     743   1
  -5  10  12   11176     467   1
  -4  10  12   47365    1141   1
  -3  10  12  157779    2382   1
  -2  10  12   67008    1151   1
  -9 -10  -2   23090     785  -2
  -1  10  12   23090     785   1
   0  10  12   31763    1447   1
   1  10  12   29642    1126   1
   2  10  12     611     243   1
   3  10  12   28035    1003   1
   4  10  12   19355    1102   1
   5  10  12    1346     393   1
  -7 -10 -11   29976    1118  -2
   6  10  12   29976    1118   1
   7  10  12    4203     447   1
   8  10  12    1439     339   1
 -10  11  12   17255    1376   1
  -9  11  12    4764     955   1
  -8  11  12    1407     262   1
  -7  11  12     299     196   1
  -6  11  12   50440    1232   1
  -5  11  12   85599    1697   1
  -4  11  12   16192     678   1
  -3  11  12    3571     402   1
  -2  11  12    3888     571   1
  -9 -11  -2   13829     759  -2
  -1  11  12   13829     759   1
   0  11  12  128744    2982   1
   1  11  12    6229     570   1
   2  11  12   46246    2421   1
   3  11  12    5010    2532   1
   4  11  12    6380     650   1
   5  11  12    1231     493   1
  -7 -11 -11    4700     616  -2
   6  11  12    4700     616   1
   7  11  12    4682    1027   1
 -10  12  12     761     448   1
  -9  12  12   26136    2161   1
  -8  12  12    5955     663   1
  -7  12  12    3163     359   1
  -6  12  12   23672    1271   1
  -5  12  12   37985    1241   1
  -4  12  12     957     333   1
  -3  12  12    9069     572   1
  -2  12  12    1208     408   1
  -9 -12  -2   51376    1386  -2
  -1  12  12   51376    1386   1
   0  12  12   18017     785   1
   1  12  12    1325     284   1
   2  12  12   70783    1469   1
   3  12  12   11371     743   1
   4  12  12    2849     495   1
   5  12  12   17831    1134   1
  -7 -12 -11   18311     814  -2
   6  12  12   18311     814   1
   7  12  12    3056     432   1
  -9  13  12    1026     452   1
  -8  13  12    1398     485   1
  -7  13  12    2569     401   1
  -6  13  12   21942    1115   1
  -5  13  12   40039    1398   1
  -4  13  12   30431    1147   1
  -3  13  12    1656     335   1
  -2  13  12   40719    1549   1
  -9 -13  -2   35406    1208  -2
  -1  13  12   35406    1208   1
   0  13  12   12033    1599   1
   1  13  12   33010     926   1
   2  13  12    9217     906   1
   3  13  12   33598    1594   1
   4  13  12   31229    1158   1
   5  13  12   11173     908   1
  -7 -13 -11    1969     901  -2
   6  13  12    1969     901   1
  -8  14  12    1130     279   1
  -7  14  12    4837     628   1
  -6  14  12   18077    1503   1
  -5  14  12   16670    1097   1
  -4  14  12   23409    2186   1
  -3  14  12    7337     658   1
  -2  14  12    1576     387   1
  -9 -14  -2    6672     997  -2
  -1  14  12    6672     997   1
   0  14  12     847     499   1
   1  14  12    1016     708   1
   2  14  12    9347    1588   1
   3  14  12    1508     340   1
   4  14  12    4491     586   1
   5  14  12   18304    1514   1
  -8  15  12    1140     336   1
  -7  15  12    2965     382   1
  -6  15  12    1825     424   1
  -5  15  12   44905    1431   1
  -4  15  12    1165     403   1
  -3  15  12    9400    1385   1
  -2  15  12    7958     671   1
  -9 -15  -2     720     857  -2
  -1  15  12     720     857   1
   0  15  12   45603    2401   1
   1  15  12   10714    1297   1
   2  15  12    3034     831   1
   3  15  12   25869    1154   1
   4  15  12     611     713   1
   5  15  12    8796    1079   1
  -7  16  12    8679    1116   1
  -6  16  12    9355     869   1
  -5  16  12    1683     448   1
  -4  16  12    1182     410   1
  -3  16  12    2207     463   1
  -2  16  12    8417     827   1
  -9 -16  -2    4954     718  -2
  -1  16  12    4954     718   1
   0  16  12   15176    1454   1
   1  16  12     479     507   1
   2  16  12   23194    1051   1
   3  16  12   22371    1494   1
   4  16  12    7375    1176   1
  -5  17  12    8996    2306   1
  -4  17  12    1035     591   1
  -3  17  12   36371    1955   1
  -2  17  12    2960    1174   1
  -9 -17  -2    1349     446  -2
  -1  17  12    1349     446   1
   0  17  12    1092     593   1
   1  17  12    3325     743   1
   2  17  12    1304     818   1
  -3  18  12    1904     399   1
  -2  18  12   18386    2208   1
  -9 -18  -2   10027    1258  -2
  -1  18  12   10027    1258   1
   0  18  12    3933     947   1
 -11   0  13   10531    1289   1
  -9   0  13   19287    1519   1
  -7   0  13    2950     550   1
  -5   0  13    4493     460   1
  -3   0  13    2720     428   1
  -1   0  13     403     361   1
   1   0  13  342887    6860   1
   3   0  13    2651     451   1
  -8   0 -10    2495     637  -2
   5   0  13    2495     637   1
   7   0  13   29482    1966   1
  -7   0 -15  107315    5585  -2
   9   0  13  107315    5585   1
 -12   1  13     312     384   1
 -11   1  13     149     346   1
 -10   1  13   32133    1322   1
  -9   1  13    2766     417   1
  -8   1  13   53167    1408   1
  -7   1  13    4410     526   1
  -6   1  13   21411    1918   1
  -5   1  13    7556     360   1
  -4   1  13   15388     461   1
  -3   1  13   10470     955   1
 -10  -1  -1    5084     454  -2
  -2   1  13    5084     454   1
  -1   1  13   18695     662   1
   0   1  13   35976    1093   1
   1   1  13   32044    2249   1
   2   1  13   38721    1302   1
   3   1  13     447     171   1
   4   1  13   20229     604   1
  -8  -1 -10    5664     604  -2
   5   1  13    5664     604   1
   6   1  13   44576    1055   1
   7   1  13   62750     882   1
   8   1  13    6392     671   1
  -7  -1 -15   18576    1226  -2
   9   1  13   18576    1226   1
 -12   2  13   12798    1637   1
 -11   2  13    1910     472   1
 -10   2  13   11496     879   1
  -9   2  13   15683     892   1
  -8   2  13    3665     488   1
  -7   2  13     961     332   1
  -6   2  13    2348     310   1
  -5   2  13    7617     465   1
  -4   2  13    2954     332   1
  -3   2  13    1177     164   1
 -10  -2  -1   17038     524  -2
  -2   2  13   17038     524   1
  -1   2  13   13530     742   1
   0   2  13    2071     415   1
   1   2  13   16928    1236   1
   2   2  13    3426     360   1
   3   2  13    3041     441   1
   4   2  13    3624     467   1
  -8  -2 -10   14401     934  -2
   5   2  13   14401     934   1
   6   2  13   42914    1518   1
   7   2  13    2299     532   1
   8   2  13    1196     441   1
  -7  -2 -15    4425     532  -2
   9   2  13    4425     532   1
 -12   3  13    1423     420   1
 -11   3  13    3658     664   1
 -10   3  13    1300     283   1
  -9   3  13   13989    1022   1
  -8   3  13     655     269   1
  -7   3  13    2419     322   1
  -6   3  13   56143    1477   1
  -5   3  13   10614     510   1
  -4   3  13    9854     493   1
  -3   3  13    8546     376   1
 -10  -3  -1   47644    1211  -2
  -2   3  13   47644    1211   1
  -1   3  13   38478     910   1
   0   3  13   17114     706   1
   1   3  13   52621     968   1
   2   3  13   17796    2915   1
   3   3  13  117971    1663   1
   4   3  13   73277    1890   1
  -8  -3 -10   17575     887  -2
   5   3  13   17575     887   1
   6   3  13   13276     857   1
   7   3  13   24649     882   1
   8   3  13    1104     470   1
  -7  -3 -15   19833    1545  -2
   9   3  13   19833    1545   1
 -12   4  13    6628    1100   1
 -11   4  13     765     402   1
 -10   4  13    6333     600   1
  -9   4  13     690     513   1
  -8   4  13   10370     933   1
  -7   4  13     949     383   1
  -6   4  13    2812     712   1
  -5   4  13   16435     682   1
  -4   4  13     871     177   1
  -3   4  13    3102     258   1
 -10  -4  -1    4448     525  -2
  -2   4  13    4448     525   1
  -1   4  13    4618     317   1
   0   4  13   71040    1288   1
   1   4  13    2395     294   1
   2   4  13   18584     867   1
   3   4  13   59354    1320   1
   4   4  13   55812    1572   1
  -8  -4 -10    1075     269  -2
   5   4  13    1075     269   1
   6   4  13    9347     793   1
   7   4  13   14435    1055   1
   8   4  13    1406     337   1
 -12   5  13     220     553   1
 -11   5  13    8761     827   1
 -10   5  13     692     228   1
  -9   5  13   19786    4067   1
  -8   5  13    7634     725   1
  -7   5  13   14385     737   1
  -6   5  13    1633     253   1
  -5   5  13    8656     536   1
  -4   5  13   19999     578   1
  -3   5  13   19163     617   1
 -10  -5  -1   50921     987  -2
  -2   5  13   50921     987   1
  -1   5  13     388     251   1
   0   5  13  125685    1411   1
   1   5  13  112476    1608   1
   2   5  13   69323    1134   1
   3   5  13    5212     438   1
   4   5  13   12895     703   1
  -8  -5 -10   31718    1166  -2
   5   5  13   31718    1166   1
   6   5  13    1420     578   1
   7   5  13   62442    1888   1
   8   5  13   32382    1160   1
 -11   6  13   23245    3080   1
 -10   6  13     709     293   1
  -9   6  13   14349    2568   1
  -8   6  13    1758     359   1
  -7   6  13    5264     487   1
  -6   6  13    3590     478   1
  -5   6  13   15421     513   1
  -4   6  13    2751     353   1
  -3   6  13   43564    1036   1
 -10  -6  -1    1573     264  -2
  -2   6  13    1573     264   1
  -1   6  13   20233     771   1
   0   6  13   20649     640   1
   1   6  13   63187    1778   1
   2   6  13   27679    1320   1
   3   6  13    2099     402   1
   4   6  13    6888     493   1
  -8  -6 -10   37449    1051  -2
   5   6  13   37449    1051   1
   6   6  13   11573     695   1
   7   6  13    8253     797   1
   8   6  13    1703     525   1
 -11   7  13    5548     834   1
 -10   7  13    4688     690   1
  -8   7  13   36398     911   1
  -7   7  13   24261    1096   1
  -6   7  13   25695    1815   1
  -5   7  13    2134     369   1
  -4   7  13   51093    1185   1
  -3   7  13   32509    1115   1
 -10  -7  -1   51714    1234  -2
  -2   7  13   51714    1234   1
  -1   7  13   25316     790   1
   0   7  13   61849    1359   1
   1   7  13    5309     411   1
   2   7  13    6632     503   1
   3   7  13    1280     338   1
   4   7  13   24058     881   1
  -8  -7 -10    8230     625  -2
   5   7  13    8230     625   1
   6   7  13    1242     294   1
   7   7  13    2151     401   1
   8   7  13   13545    1086   1
 -11   8  13    1076     372   1
 -10   8  13    1967     442   1
  -9   8  13    1561     650   1
  -8   8  13   12347     895   1
  -7   8  13    5927     589   1
  -6   8  13     778     271   1
  -5   8  13   26642    1079   1
  -4   8  13    7774     370   1
  -3   8  13   10301     867   1
 -10  -8  -1  103264    1804  -2
  -2   8  13  103264    1804   1
  -1   8  13    8124     300   1
   0   8  13   72548    1129   1
   1   8  13   10339     526   1
   2   8  13    3812     368   1
   3   8  13    1284     270   1
   4   8  13   13218    1014   1
  -8  -8 -10    8021     593  -2
   5   8  13    8021     593   1
   6   8  13    3595     533   1
   7   8  13    1463     383   1
 -10   9  13   12855    1620   1
  -9   9  13    2029     399   1
  -8   9  13    1127     232   1
  -7   9  13    1187     302   1
  -6   9  13   24174    1085   1
  -5   9  13    3101     447   1
  -4   9  13   16448     553   1
  -3   9  13   16741     560   1
 -10  -9  -1   13504     618  -2
  -2   9  13   13504     618   1
  -1   9  13    8360     628   1
   0   9  13  172453    3306   1
   1   9  13    5633     862   1
   2   9  13   27124    1638   1
   3   9  13    1806     339   1
   4   9  13    7487     500   1
  -8  -9 -10   15804     732  -2
   5   9  13   15804     732   1
   6   9  13    1243     261   1
   7   9  13   10502     911   1
 -10  10  13     829     759   1
  -9  10  13   31379    2318   1
  -8  10  13    1872     385   1
  -7  10  13    3305     502   1
  -6  10  13    9159    1581   1
  -5  10  13   15445     583   1
  -4  10  13    6423     437   1
  -3  10  13    3751     434   1
 -10 -10  -1   46017    1675  -2
  -2  10  13   46017    1675   1
  -1  10  13     693     259   1
   0  10  13    2139     529   1
   1  10  13    5057     622   1
   2  10  13    3530     434   1
   3  10  13   41215    1620   1
   4  10  13    3302     751   1
  -8 -10 -10    5215     616  -2
   5  10  13    5215     616   1
   6  10  13    2782     378   1
   7  10  13    7540     802   1
 -10  11  13    3804     595   1
  -9  11  13    1172     565   1
  -8  11  13     951     236   1
  -7  11  13   15223    1620   1
  -6  11  13   31227    1249   1
  -5  11  13   10742     595   1
  -4  11  13    1085     304   1
  -3  11  13    4016     464   1
 -10 -11  -1   15794    1148  -2
  -2  11  13   15794    1148   1
  -1  11  13    1251     607   1
   0  11  13    7479     608   1
   1  11  13     996     354   1
   2  11  13    1069     340   1
   3  11  13   48905    1560   1
   4  11  13     472     347   1
  -8 -11 -10   10788     782  -2
   5  11  13   10788     782   1
   6  11  13    1680     636   1
  -9  12  13    3373     779   1
  -8  12  13    4912     678   1
  -7  12  13    6952     745   1
  -6  12  13    7135     798   1
  -5  12  13   19130    1213   1
  -4  12  13    5929     700   1
  -3  12  13   14862     885   1
 -10 -12  -1    7440     980  -2
  -2  12  13    7440     980   1
  -1  12  13    4051     519   1
   0  12  13   24551     958   1
   1  12  13    2623     441   1
   2  12  13   41828    1293   1
   3  12  13    7293     672   1
   4  12  13    6979     755   1
  -8 -12 -10   40790    1439  -2
   5  12  13   40790    1439   1
   6  12  13    8142    1048   1
  -8  13  13    6011     746   1
  -7  13  13     944     225   1
  -6  13  13    1054     375   1
  -5  13  13    2119     604   1
  -4  13  13    3460     618   1
  -3  13  13     690     429   1
 -10 -13  -1    9232     687  -2
  -2  13  13    9232     687   1
  -1  13  13    1002     419   1
   0  13  13     623     470   1
   1  13  13    2498     361   1
   2  13  13    8962     886   1
   3  13  13    6827     621   1
   4  13  13    9242     940   1
  -8 -13 -10    5692     700  -2
   5  13  13    5692     700   1
  -7  14  13    1324     274   1
  -6  14  13   16820    1530   1
  -5  14  13    1650     345   1
  -4  14  13    4163     716   1
  -3  14  13     928     612   1
 -10 -14  -1    7834     601  -2
  -2  14  13    7834     601   1
  -1  14  13   12882    1279   1
   0  14  13    3557     723   1
   1  14  13    1920     505   1
   2  14  13    5480     769   1
   3  14  13   22801    1274   1
   4  14  13   12404    1239   1
  -6  15  13    8678    1051   1
  -5  15  13    7607     805   1
  -4  15  13   25554    1074   1
  -3  15  13   13842     835   1
 -10 -15  -1    3697     635  -2
  -2  15  13    3697     635   1
  -1  15  13    1101     539   1
   0  15  13    1391     643   1
   1  15  13   49388    1752   1
   2  15  13    2904     609   1
   3  15  13    6616     964   1
  -5  16  13   25738    1395   1
  -4  16  13    2124     530   1
  -3  16  13   12440    1107   1
 -10 -16  -1    3467     419  -2
  -2  16  13    3467     419   1
  -1  16  13    3876     554   1
   0  16  13    3207     691   1
   1  16  13     919     650   1
   2  16  13     991     615   1
  -3  17  13   25466    1597   1
 -10 -17  -1    5597     878  -2
  -2  17  13    5597     878   1
  -1  17  13     765     418   1
 -10   0  14   38863    1819   1
  -8   0  14    2426     582   1
  -6   0  14   19824     753   1
  -4   0  14  165913    3590   1
  -2   0  14    7363     657   1
   0   0  14   48247    7456   1
   2   0  14     470     368   1
  -9   0  -9   63493    2470  -2
   4   0  14   63493    2470   1
   6   0  14   36097    5088   1
  -8   0 -14   34392    3534  -2
   8   0  14   34392    3534   1
 -11   1  14    1625     355   1
  -9   1  14     304     315   1
  -8   1  14     947     510   1
  -7   1  14   48904    1246   1
  -6   1  14   41995    1234   1
  -5   1  14   32473     910   1
  -4   1  14   10564     537   1
 -11  -1   0    9538     546  -2
  -3   1  14    9538     546   1
  -2   1  14    2858     353   1
  -1   1  14   30975     852   1
   0   1  14   26682     735   1
   1   1  14   46379    1433   1
   2   1  14   10331     305   1
   3   1  14     654     416   1
  -9  -1  -9    3600     560  -2
   4   1  14    3600     560   1
   5   1  14   81410    2665   1
   6   1  14    1226     545   1
   7   1  14   23415    1144   1
  -8  -1 -14    1092     499  -2
   8   1  14    1092     499   1
 -11   2  14    4406     650   1
 -10   2  14    1160     551   1
  -9   2  14   32375    1356   1
  -8   2  14    2009     354   1
  -7   2  14   21181     826   1
  -6   2  14    1371     263   1
  -5   2  14   17685     829   1
  -4   2  14    5628     529   1
 -11  -2   0    1206     353  -2
  -3   2  14    1206     353   1
  -2   2  14   14713     612   1
  -1   2  14   20465     675   1
   0   2  14   27328    1318   1
   1   2  14   18524    1775   1
   2   2  14   34891    1135   1
   3   2  14     641     206   1
  -9  -2  -9   11081     786  -2
   4   2  14   11081     786   1
   5   2  14    7158     658   1
   6   2  14    3561     518   1
   7   2  14   33120    1852   1
  -8  -2 -14    1226     415  -2
   8   2  14    1226     415   1
 -11   3  14    3017     620   1
 -10   3  14    6135     982   1
  -9   3  14   22709     777   1
  -8   3  14   58718    1526   1
  -7   3  14    3008     389   1
  -6   3  14   11506     458   1
  -5   3  14    3381     361   1
  -4   3  14   78717    1511   1
 -11  -3   0   12263    1048  -2
  -3   3  14   12263    1048   1
  -2   3  14    9333     445   1
  -1   3  14    9028     623   1
   0   3  14     599     234   1
   1   3  14    8998     526   1
   2   3  14   80046    1503   1
   3   3  14    1426     317   1
  -9  -3  -9    6327     481  -2
   4   3  14    6327     481   1
   5   3  14    3607     627   1
   6   3  14   28752    1325   1
   7   3  14   36199    1981   1
  -8  -3 -14    1259     507  -2
   8   3  14    1259     507   1
 -11   4  14   23738    1238   1
 -10   4  14   15105    1326   1
  -9   4  14    1954     381   1
  -8   4  14    1409     401   1
  -7   4  14     665     889   1
  -6   4  14    5284     493   1
  -5   4  14   17679     456   1
  -4   4  14   56925    1504   1
 -11  -4   0    9166     646  -2
  -3   4  14    9166     646   1
  -2   4  14   11217     461   1
  -1   4  14    2854     295   1
   0   4  14    6160     476   1
   1   4  14    5572    1823   1
   2   4  14   19601     677   1
   3   4  14   49363    1211   1
  -9  -4  -9    2047     374  -2
   4   4  14    2047     374   1
   5   4  14    3855    1000   1
   6   4  14   52391    2075   1
   7   4  14   13470    1116   1
 -11   5  14    4753     804   1
 -10   5  14    3212     651   1
  -9   5  14    4938     609   1
  -8   5  14   10250    1233   1
  -7   5  14    1132     375   1
  -6   5  14     869     221   1
  -5   5  14     945     205   1
  -4   5  14    2448     451   1
 -11  -5   0    6493     453  -2
  -3   5  14    6493     453   1
  -2   5  14   40316     980   1
  -1   5  14    8825     449   1
   0   5  14    1994     297   1
   1   5  14   18124     820   1
   2   5  14    1044     236   1
   3   5  14    1794     542   1
  -9  -5  -9   46121    1013  -2
   4   5  14   46121    1013   1
   5   5  14    1611     368   1
   6   5  14   54645    1524   1
   7   5  14    2156     490   1
 -11   6  14    1166     481   1
 -10   6  14    6368    1559   1
  -9   6  14    2120     470   1
  -8   6  14   35392    1358   1
  -7   6  14   23799    1232   1
  -6   6  14     694     275   1
  -5   6  14   16659     671   1
  -4   6  14    5246     481   1
 -11  -6   0   15266     765  -2
  -3   6  14   15266     765   1
  -2   6  14   24650     690   1
  -1   6  14   30112     952   1
   0   6  14   21163     845   1
   1   6  14    6203     498   1
   2   6  14   36052    1376   1
   3   6  14   10386     651   1
  -9  -6  -9    3424     390  -2
   4   6  14    3424     390   1
   5   6  14    7432     529   1
   6   6  14   11111     865   1
   7   6  14    1321     409   1
 -10   7  14    1837    1073   1
  -9   7  14    1321     470   1
  -8   7  14     999     327   1
  -7   7  14   17363    2463   1
  -6   7  14    2789     429   1
  -5   7  14     889     253   1
  -4   7  14     645     375   1
 -11  -7   0    9275     720  -2
  -3   7  14    9275     720   1
  -2   7  14   13434     597   1
  -1   7  14    1306     290   1
   0   7  14   43545    3252   1
   1   7  14   40461    1434   1
   2   7  14    1012     290   1
   3   7  14    8174     529   1
  -9  -7  -9    9111     570  -2
   4   7  14    9111     570   1
   5   7  14    2444     401   1
   6   7  14    3164     426   1
   7   7  14    9977    1200   1
 -10   8  14    6192     825   1
  -9   8  14    1206     519   1
  -8   8  14    4265     901   1
  -7   8  14   41842    1510   1
  -6   8  14    1289     338   1
  -5   8  14  107907    3222   1
  -4   8  14   14772     632   1
 -11  -8   0   10801     595  -2
  -3   8  14   10801     595   1
  -2   8  14    1268     227   1
  -1   8  14     408     318   1
   0   8  14   10669     603   1
   1   8  14     711     258   1
   2   8  14   22414    1066   1
   3   8  14   65661    1817   1
  -9  -8  -9    2527     320  -2
   4   8  14    2527     320   1
   5   8  14    1695     360   1
   6   8  14     853     346   1
 -10   9  14    1584     661   1
  -9   9  14    8017    1064   1
  -8   9  14    1657     386   1
  -7   9  14    8662     739   1
  -6   9  14    4612     436   1
  -5   9  14    8901     433   1
  -4   9  14   18679     670   1
 -11  -9   0    1427     236  -2
  -3   9  14    1427     236   1
  -2   9  14    7960     580   1
  -1   9  14   22508     868   1
   0   9  14   41365    1685   1
   1   9  14    2425     723   1
   2   9  14   14894     760   1
   3   9  14    3981     492   1
  -9  -9  -9     896     286  -2
   4   9  14     896     286   1
   5   9  14    9777    1153   1
   6   9  14   11204     966   1
  -9  10  14    6308     745   1
  -8  10  14    4800     730   1
  -7  10  14   30542    2717   1
  -6  10  14    4526     601   1
  -5  10  14   10862     706   1
  -4  10  14     659     252   1
 -11 -10   0   15050     657  -2
  -3  10  14   15050     657   1
  -2  10  14   12228     782   1
  -1  10  14     981     302   1
   0  10  14   18470     722   1
   1  10  14   20697     868   1
   2  10  14   24461     954   1
   3  10  14   20229    1130   1
  -9 -10  -9    1225     285  -2
   4  10  14    1225     285   1
   5  10  14   39098    1188   1
   6  10  14    6321     657   1
  -9  11  14     971     354   1
  -8  11  14    3922     560   1
  -7  11  14    6309     750   1
  -6  11  14    1511     458   1
  -5  11  14    2759     465   1
  -4  11  14    6024     485   1
 -11 -11   0    1207     358  -2
  -3  11  14    1207     358   1
  -2  11  14   22411    1082   1
  -1  11  14    7923     746   1
   0  11  14    5385     633   1
   1  11  14    4591    1277   1
   2  11  14   12586     863   1
   3  11  14    1055     712   1
  -9 -11  -9    8036     784  -2
   4  11  14    8036     784   1
   5  11  14   15111    1462   1
  -8  12  14     374     388   1
  -7  12  14    4625    1000   1
  -6  12  14   11624     879   1
  -5  12  14     853     275   1
  -4  12  14     913     232   1
 -11 -12   0    5734     588  -2
  -3  12  14    5734     588   1
  -2  12  14     667     510   1
  -1  12  14   16423    1055   1
   0  12  14    2061     406   1
   1  12  14   16316     985   1
   2  12  14    2002     408   1
   3  12  14    8228     847   1
  -9 -12  -9    5693     718  -2
   4  12  14    5693     718   1
  -7  13  14    3751     637   1
  -6  13  14     902     317   1
  -5  13  14   18818     841   1
  -4  13  14   16687     971   1
 -11 -13   0     728     360  -2
  -3  13  14     728     360   1
  -2  13  14    4985     767   1
  -1  13  14    1299    1200   1
   0  13  14    3017     605   1
   1  13  14   27267    1293   1
   2  13  14    1555     357   1
   3  13  14    1901     472   1
  -9 -13  -9   13740    1282  -2
   4  13  14   13740    1282   1
  -6  14  14    6891    1078   1
  -5  14  14     880     464   1
  -4  14  14    6050     719   1
 -11 -14   0   19009     883  -2
  -3  14  14   19009     883   1
  -2  14  14    1463     399   1
  -1  14  14    -105     443   1
   0  14  14   17868    1446   1
   1  14  14    5245     999   1
   2  14  14     780     309   1
   3  14  14    3942     609   1
  -5  15  14    1506     448   1
  -4  15  14   15483    1376   1
 -11 -15   0    4874     707  -2
  -3  15  14    4874     707   1
  -2  15  14   11892    1009   1
  -1  15  14    1670     618   1
   0  15  14    1681     859   1
   1  15  14    6458    1035   1
 -11   0  15    6136    1815   1
  -9   0  15    4225     989   1
  -7   0  15   49196    5148   1
  -5   0  15    1027     381   1
  -3   0  15   22392    1455   1
  -1   0  15   29523    2064   1
   1   0  15   12571     790   1
 -10   0  -8   11641    1209  -2
   3   0  15   11641    1209   1
   5   0  15    6392    1270   1
  -9   0 -13  127845   11226  -2
   7   0  15  127845   11226   1
 -11   1  15    1755     427   1
 -10   1  15    2027     448   1
  -9   1  15   22155    1114   1
  -8   1  15    3747     596   1
  -7   1  15    1539     506   1
  -6   1  15    3690     385   1
  -5   1  15    1848     450   1
 -12  -1   1   48637    1508  -2
  -4   1  15   48637    1508   1
  -3   1  15   11226     730   1
  -2   1  15   16957     602   1
  -1   1  15    1396     233   1
   0   1  15     779     215   1
   1   1  15     345     379   1
   2   1  15   11292    1018   1
 -10  -1  -8    1280     303  -2
   3   1  15    1280     303   1
   4   1  15    1091     386   1
   5   1  15   27309    2026   1
   6   1  15    1702     390   1
  -9  -1 -13    8664    1529  -2
   7   1  15    8664    1529   1
 -10   2  15    2487     586   1
  -9   2  15    1268     604   1
  -8   2  15    7958     860   1
  -7   2  15   24290     858   1
  -6   2  15    4664     497   1
  -5   2  15    3912     410   1
 -12  -2   1   21954     885  -2
  -4   2  15   21954     885   1
  -3   2  15   72488    2280   1
  -2   2  15   15817     683   1
  -1   2  15  128208    2337   1
   0   2  15    4649     738   1
   1   2  15   49784    2687   1
   2   2  15   12227     702   1
 -10  -2  -8    2037     587  -2
   3   2  15    2037     587   1
   4   2  15   32353    1680   1
   5   2  15      22     484   1
   6   2  15    2315     479   1
  -9  -2 -13    1582     570  -2
   7   2  15    1582     570   1
 -10   3  15    1610     440   1
  -9   3  15    1093     277   1
  -8   3  15    3650     891   1
  -7   3  15    7675     894   1
  -6   3  15   20000     755   1
  -5   3  15   21176     801   1
 -12  -3   1    1781     325  -2
  -4   3  15    1781     325   1
  -3   3  15    5185     734   1
  -2   3  15    5347     509   1
  -1   3  15   30481    1092   1
   0   3  15   34108    1205   1
   1   3  15    9455     644   1
   2   3  15   32196     894   1
 -10  -3  -8    2981     495  -2
   3   3  15    2981     495   1
   4   3  15    1974     449   1
   5   3  15   24089    1382   1
   6   3  15     910     402   1
  -9  -3 -13   20448    1448  -2
   7   3  15   20448    1448   1
 -10   4  15    1876     455   1
  -9   4  15    2737     529   1
  -8   4  15    8912     791   1
  -7   4  15   17076     822   1
  -6   4  15   12700     755   1
  -5   4  15     908     245   1
 -12  -4   1    8359     986  -2
  -4   4  15    8359     986   1
  -3   4  15     997     255   1
  -2   4  15    1320     233   1
  -1   4  15   35314    1075   1
   0   4  15   18263     889   1
   1   4  15   33961    1521   1
   2   4  15   15497    1557   1
 -10  -4  -8   11638     784  -2
   3   4  15   11638     784   1
   4   4  15    2077     527   1
   5   4  15    2519     522   1
   6   4  15    3991     769   1
 -10   5  15    3768     493   1
  -9   5  15   22578    1325   1
  -8   5  15    4557    2012   1
  -7   5  15   13051     853   1
  -6   5  15    5138     610   1
  -5   5  15   12751     696   1
 -12  -5   1    5964     545  -2
  -4   5  15    5964     545   1
  -3   5  15   15942     949   1
  -2   5  15    4301     478   1
  -1   5  15     889     272   1
   0   5  15   72386    2080   1
   1   5  15    5095     518   1
   2   5  15    5418     484   1
 -10  -5  -8    3709     977  -2
   3   5  15    3709     977   1
   4   5  15    1961     433   1
   5   5  15   29236    1150   1
   6   5  15     853     551   1
 -10   6  15    1894     688   1
  -9   6  15    6876     981   1
  -8   6  15    1426     381   1
  -7   6  15   57074    1556   1
  -6   6  15    1080     359   1
  -5   6  15    1759     261   1
 -12  -6   1   12445     647  -2
  -4   6  15   12445     647   1
  -3   6  15    3493     406   1
  -2   6  15    9574    1010   1
  -1   6  15    1101     271   1
   0   6  15     911     224   1
   1   6  15     790     319   1
   2   6  15    3295     378   1
 -10  -6  -8    6587     541  -2
   3   6  15    6587     541   1
   4   6  15    7287     863   1
   5   6  15    3782     917   1
   6   6  15    5094     825   1
  -9   7  15     740     399   1
  -8   7  15   22239    2887   1
  -7   7  15    6331     683   1
  -6   7  15    9942     774   1
  -5   7  15    1852     479   1
 -12  -7   1   10989     566  -2
  -4   7  15   10989     566   1
  -3   7  15     494     329   1
  -2   7  15   74451    1678   1
  -1   7  15   10168     753   1
   0   7  15    5233     643   1
   1   7  15   28632    1141   1
   2   7  15    5780     682   1
 -10  -7  -8    1820     302  -2
   3   7  15    1820     302   1
   4   7  15    3135     467   1
   5   7  15   17776    1601   1
   6   7  15     195     446   1
  -9   8  15   16775    1709   1
  -8   8  15    4936     683   1
  -7   8  15   16192    1079   1
  -6   8  15    3366     578   1
  -5   8  15     850     287   1
 -12  -8   1   33991    1074  -2
  -4   8  15   33991    1074   1
  -3   8  15    6299     648   1
  -2   8  15    6649     689   1
  -1   8  15   18688    1727   1
   0   8  15   77607    2211   1
   1   8  15   39165    1143   1
   2   8  15    1394     286   1
 -10  -8  -8     968     417  -2
   3   8  15     968     417   1
   4   8  15     880     246   1
   5   8  15     505     284   1
  -9   9  15    1322     576   1
  -8   9  15   13247    1539   1
  -7   9  15    9800    1112   1
  -6   9  15   28201    1644   1
  -5   9  15   13283     756   1
 -12  -9   1    1457     358  -2
  -4   9  15    1457     358   1
  -3   9  15    1427     346   1
  -2   9  15   49851    1642   1
  -1   9  15    5926     603   1
   0   9  15   12818    1569   1
   1   9  15     804     213   1
   2   9  15    5411     544   1
 -10  -9  -8    5991     610  -2
   3   9  15    5991     610   1
   4   9  15   11194    1317   1
   5   9  15    1031     991   1
  -8  10  15   11823    1393   1
  -7  10  15   20183     972   1
  -6  10  15    1214     507   1
  -5  10  15     778     240   1
 -12 -10   1    5869     516  -2
  -4  10  15    5869     516   1
  -3  10  15    4872     496   1
  -2  10  15    1615     496   1
  -1  10  15    1198     354   1
   0  10  15    2322     358   1
   1  10  15    1183     293   1
   2  10  15     765     235   1
 -10 -10  -8   17643     778  -2
   3  10  15   17643     778   1
   4  10  15    2189     271   1
  -7  11  15   11749    1851   1
  -6  11  15   14244     999   1
  -5  11  15    6031     623   1
 -12 -11   1     249     250  -2
  -4  11  15     249     250   1
  -3  11  15    7478     640   1
  -2  11  15    5780     781   1
  -1  11  15    1077     260   1
   0  11  15    2075     393   1
   1  11  15   21527    1041   1
   2  11  15    1351     303   1
 -10 -11  -8    5274     594  -2
   3  11  15    5274     594   1
   4  11  15   12578     990   1
  -7  12  15    3213     837   1
  -6  12  15    2217     383   1
  -5  12  15     959     522   1
 -12 -12   1    1273     379  -2
  -4  12  15    1273     379   1
  -3  12  15    2482     785   1
  -2  12  15    1224     350   1
  -1  12  15   29144    1572   1
   0  12  15   25685    1648   1
   1  12  15    2936     570   1
   2  12  15    9606     820   1
 -10 -12  -8    4143     504  -2
   3  12  15    4143     504   1
  -5  13  15     689     808   1
 -12 -13   1    5259     651  -2
  -4  13  15    5259     651   1
  -3  13  15    2314     614   1
  -2  13  15    4617     564   1
  -1  13  15    5267    1001   1
   0  13  15    6955    2283   1
   1  13  15    3614     575   1
   2  13  15   24253    1442   1
 -12 -14   1   20982    2519  -2
  -4  14  15   20982    2519   1
  -3  14  15    8049     926   1
  -2  14  15    1752     401   1
  -1  14  15     825     837   1
   0  14  15   10903    1374   1
 -10   0  16   63196    4038   1
  -8   0  16    6902    1352   1
  -6   0  16   37356    2537   1
  -4   0  16    5968     726   1
  -2   0  16   23363    5850   1
   0   0  16    7212    1208   1
 -11   0  -7    9731    2944  -2
   2   0  16    9731    2944   1
   4   0  16   13888    1467   1
 -10   1  16    4471     869   1
  -9   1  16    1451     525   1
  -8   1  16   23339     976   1
  -7   1  16     427     324   1
  -6   1  16    6046     610   1
 -13  -1   2   10362     710  -2
  -5   1  16   10362     710   1
  -4   1  16   10240     575   1
  -3   1  16    1501     366   1
  -2   1  16    1541     264   1
  -1   1  16    6287     570   1
   0   1  16    1092     452   1
   1   1  16    3379     587   1
 -11  -1  -7   27225    1520  -2
   2   1  16   27225    1520   1
   3   1  16    1007     329   1
   4   1  16    2603     537   1
   5   1  16    2832     591   1
 -10   2  16     311     606   1
  -9   2  16    1455     416   1
  -8   2  16    2929     725   1
  -7   2  16   14195     823   1
  -6   2  16     818     174   1
 -13  -2   2     695     317  -2
  -5   2  16     695     317   1
  -4   2  16     547     186   1
  -3   2  16     871     189   1
  -2   2  16     704     243   1
  -1   2  16    4280     820   1
   0   2  16    3592     486   1
   1   2  16    1104     281   1
 -11  -2  -7    4223     727  -2
   2   2  16    4223     727   1
   3   2  16    1692     320   1
   4   2  16   12012    1627   1
   5   2  16    2017     442   1
  -9   3  16   21216     996   1
  -8   3  16     953     552   1
  -7   3  16     772     662   1
  -6   3  16    4375     502   1
 -13  -3   2   16025     918  -2
  -5   3  16   16025     918   1
  -4   3  16    1575     344   1
  -3   3  16   15946    1327   1
  -2   3  16    9801     755   1
  -1   3  16   10697     750   1
   0   3  16    4807     549   1
   1   3  16    1587     454   1
 -11  -3  -7    5011     562  -2
   2   3  16    5011     562   1
   3   3  16   11218     886   1
   4   3  16    1613     599   1
   5   3  16     804     402   1
  -9   4  16   25757    1122   1
  -8   4  16     867     396   1
  -7   4  16    8453     883   1
  -6   4  16     366     228   1
 -13  -4   2   13855     605  -2
  -5   4  16   13855     605   1
  -4   4  16   60434    1909   1
  -3   4  16   26477    1130   1
  -2   4  16    1273     286   1
  -1   4  16   86051    2311   1
   0   4  16   10256     678   1
   1   4  16    5132     515   1
 -11  -4  -7     643     230  -2
   2   4  16     643     230   1
   3   4  16   15983    1222   1
   4   4  16   28926    1278   1
   5   4  16   11498    1215   1
  -9   5  16     796     399   1
  -8   5  16    1872     345   1
  -7   5  16     955     346   1
  -6   5  16   30213    1062   1
 -13  -5   2    2830     394  -2
  -5   5  16    2830     394   1
  -4   5  16    7071     616   1
  -3   5  16     601     248   1
  -2   5  16   48408    3129   1
  -1   5  16    5853     624   1
   0   5  16    6268     507   1
   1   5  16    1003     458   1
 -11  -5  -7   21843    1309  -2
   2   5  16   21843    1309   1
   3   5  16    1563     448   1
   4   5  16     568     400   1
   5   5  16    1330     350   1
  -9   6  16    3215     800   1
  -8   6  16    1321     437   1
  -7   6  16   22073     936   1
  -6   6  16     808     399   1
 -13  -6   2    1368     313  -2
  -5   6  16    1368     313   1
  -4   6  16   12023     723   1
  -3   6  16    7480     765   1
  -2   6  16    8883     768   1
  -1   6  16    4682     681   1
   0   6  16   14826     748   1
   1   6  16   10382     671   1
 -11  -6  -7   31824    1271  -2
   2   6  16   31824    1271   1
   3   6  16    1054     444   1
   4   6  16     805     370   1
   5   6  16    2031     413   1
  -8   7  16    1123     753   1
  -7   7  16   28474    1239   1
  -6   7  16    2703     681   1
 -13  -7   2     856     283  -2
  -5   7  16     856     283   1
  -4   7  16    1065     388   1
  -3   7  16    5132     674   1
  -2   7  16   38585    1168   1
  -1   7  16     117     276   1
   0   7  16    2326     402   1
   1   7  16    4091     563   1
 -11  -7  -7    7174     594  -2
   2   7  16    7174     594   1
   3   7  16    3275     501   1
   4   7  16   11513    1451   1
  -8   8  16    1514     564   1
  -7   8  16   25585    2913   1
  -6   8  16    1036     294   1
 -13  -8   2    4700     888  -2
  -5   8  16    4700     888   1
  -4   8  16    1006     300   1
  -3   8  16    4026     656   1
  -2   8  16    5062    1021   1
  -1   8  16    1152     297   1
   0   8  16    1031     265   1
   1   8  16    1065     289   1
 -11  -8  -7    2129     397  -2
   2   8  16    2129     397   1
   3   8  16    2915     390   1
   4   8  16    2025     384   1
  -7   9  16    1495     489   1
  -6   9  16    1080     308   1
 -13  -9   2   16448     791  -2
  -5   9  16   16448     791   1
  -4   9  16    6143     702   1
  -3   9  16    1369     453   1
  -2   9  16   11868    1112   1
  -1   9  16    1560     509   1
   0   9  16    4689     649   1
   1   9  16   13314     905   1
 -11  -9  -7     900     405  -2
   2   9  16     900     405   1
   3   9  16    2183     441   1
  -7  10  16   16767    1391   1
  -6  10  16    2202     392   1
 -13 -10   2    2003     541  -2
  -5  10  16    2003     541   1
  -4  10  16    5467     757   1
  -3  10  16    4179     643   1
  -2  10  16    1970     789   1
  -1  10  16   49799    2214   1
   0  10  16   89145    1958   1
   1  10  16    1180     464   1
 -11 -10  -7    6758     710  -2
   2  10  16    6758     710   1
  -6  11  16     635     546   1
 -13 -11   2    1878     415  -2
  -5  11  16    1878     415   1
  -4  11  16     416     555   1
  -3  11  16    1831     426   1
  -2  11  16   48114    2094   1
  -1  11  16     806     309   1
   0  11  16   10297    1076   1
   1  11  16    2159     807   1
 -11 -11  -7    2325     614  -2
   2  11  16    2325     614   1
  -4  12  16    3447     755   1
  -3  12  16    8713    1055   1
  -2  12  16    3559    1267   1
  -1  12  16    1185    1024   1
   0  12  16    1286     459   1
  -7   0  17   21554    3350   1
  -5   0  17   20392    1003   1
  -3   0  17    1359     525   1
  -1   0  17    1930     495   1
 -12   0  -6   14116    4016  -2
   1   0  17   14116    4016   1
   3   0  17   25669    1779   1
  -8   1  17    3703     673   1
  -7   1  17    2027     411   1
 -14  -1   3   10112     902  -2
  -6   1  17   10112     902   1
  -5   1  17    6812     695   1
  -4   1  17    2823     434   1
  -3   1  17    1086     219   1
  -2   1  17    7946     646   1
  -1   1  17    4209     504   1
   0   1  17   49836    1829   1
 -12  -1  -6    4169     568  -2
   1   1  17    4169     568   1
   2   1  17    1780     476   1
   3   1  17    6824    1141   1
   4   1  17    1479     445   1
  -8   2  17    9465    1518   1
  -7   2  17    1361     445   1
 -14  -2   3     809     337  -2
  -6   2  17     809     337   1
  -5   2  17    1523     277   1
  -4   2  17   16678     932   1
  -3   2  17    3705     451   1
  -2   2  17    2862     471   1
  -1   2  17    9368     926   1
   0   2  17   17843    1284   1
 -12  -2  -6     935     638  -2
   1   2  17     935     638   1
   2   2  17   18849     975   1
   3   2  17   24125    1340   1
   4   2  17    3192     611   1
  -8   3  17    5147     892   1
  -7   3  17     840     392   1
 -14  -3   3    4096    1080  -2
  -6   3  17    4096    1080   1
  -5   3  17     792     349   1
  -4   3  17    2159     349   1
  -3   3  17     536     537   1
  -2   3  17   22007    1850   1
  -1   3  17    3298     422   1
   0   3  17   28719    1284   1
 -12  -3  -6    1126     426  -2
   1   3  17    1126     426   1
   2   3  17     766     330   1
   3   3  17    2066     437   1
   4   3  17     138     434   1
  -8   4  17    2075     556   1
  -7   4  17     357     283   1
 -14  -4   3    2719     507  -2
  -6   4  17    2719     507   1
  -5   4  17    9519     752   1
  -4   4  17    4457     619   1
  -3   4  17   27861    1649   1
  -2   4  17   29226    1069   1
  -1   4  17     539     285   1
   0   4  17    2679     628   1
 -12  -4  -6    1463     438  -2
   1   4  17    1463     438   1
   2   4  17    1596     496   1
   3   4  17    1311     520   1
  -8   5  17   10209    1695   1
  -7   5  17   15815    1188   1
 -14  -5   3   13164     985  -2
  -6   5  17   13164     985   1
  -5   5  17   13603    1112   1
  -4   5  17    1117     327   1
  -3   5  17   17992    1090   1
  -2   5  17   39279    3582   1
  -1   5  17   27128     908   1
   0   5  17    9490     733   1
 -12  -5  -6    1020     305  -2
   1   5  17    1020     305   1
   2   5  17   13240    1140   1
   3   5  17     797     376   1
  -7   6  17    7747    1273   1
 -14  -6   3   14576    1108  -2
  -6   6  17   14576    1108   1
  -5   6  17    2970     431   1
  -4   6  17   18167     893   1
  -3   6  17    2652     587   1
  -2   6  17     954     273   1
  -1   6  17   16324     904   1
   0   6  17    1657     354   1
 -12  -6  -6   42038    1168  -2
   1   6  17   42038    1168   1
   2   6  17    4907     655   1
   3   6  17    3857     566   1
  -7   7  17     601     517   1
 -14  -7   3   18265    1956  -2
  -6   7  17   18265    1956   1
  -5   7  17   16194    1343   1
  -4   7  17   55815    1453   1
  -3   7  17    1432     522   1
  -2   7  17    2279     807   1
  -1   7  17    3744     611   1
   0   7  17    1005     287   1
 -12  -7  -6    7508     871  -2
   1   7  17    7508     871   1
   2   7  17    9764    1290   1
 -14  -8   3    1508     351  -2
  -6   8  17    1508     351   1
  -5   8  17    4386     866   1
  -4   8  17    4206     482   1
  -3   8  17    1514     450   1
  -2   8  17   29818    1093   1
  -1   8  17   21568     844   1
   0   8  17    4472     490   1
 -12  -8  -6    1965     437  -2
   1   8  17    1965     437   1
   2   8  17    1754     377   1
  -5   9  17    1830     518   1
  -4   9  17   13329    1970   1
  -3   9  17    1437     419   1
  -2   9  17   20038    1793   1
  -1   9  17     375     531   1
   0   9  17    3730     589   1
 -12  -9  -6    2457     427  -2
   1   9  17    2457     427   1
  -4  10  17   10478    1558   1
  -3  10  17     853     302   1
  -2  10  17    1120     393   1
  -1  10  17     843     244   1
   0  10  17    3565     680   1
  -6   0  18     824     435   1
  -4   0  18   25879    4373   1
  -2   0  18  117529    4987   1
 -13   0  -5    2403     717  -2
   0   0  18    2403     717   1
   2   0  18   47174    3300   1
 -15  -1   4    2154    1132  -2
  -7   1  18    2154    1132   1
  -6   1  18    2820     588   1
  -5   1  18    2062     506   1
  -4   1  18    3737     469   1
  -3   1  18    1240     280   1
  -2   1  18    5201    1577   1
  -1   1  18    2080     386   1
 -13  -1  -5    2916     635  -2
   0   1  18    2916     635   1
   1   1  18    4981     687   1
   2   1  18   13734    1310   1
  -6   2  18    1725     430   1
  -5   2  18    6746    1440   1
  -4   2  18    1819     407   1
  -3   2  18   20175    1059   1
  -2   2  18   18715    2085   1
  -1   2  18    1126     323   1
 -13  -2  -5    6085     720  -2
   0   2  18    6085     720   1
   1   2  18   21640    1315   1
   2   2  18    2822     528   1
  -6   3  18    1739     423   1
  -5   3  18   11352    1930   1
  -4   3  18    2314     689   1
  -3   3  18   21654     975   1
  -2   3  18    3371     479   1
  -1   3  18    1159     340   1
 -13  -3  -5    1308     421  -2
   0   3  18    1308     421   1
   1   3  18    1608     444   1
   2   3  18     859     333   1
  -6   4  18    6585     959   1
  -5   4  18     728     367   1
  -4   4  18     821     598   1
  -3   4  18   47967    2331   1
  -2   4  18   18205    1226   1
  -1   4  18    2544     441   1
 -13  -4  -5    9008    1285  -2
   0   4  18    9008    1285   1
   1   4  18   25297    1453   1
  -5   5  18    1757     394   1
  -4   5  18   27757    1236   1
  -3   5  18   16792    1663   1
  -2   5  18   16356    1372   1
  -1   5  18   11158    1025   1
 -13  -5  -5    6378     815  -2
   0   5  18    6378     815   1
   1   5  18   33150    1669   1
  -5   6  18    9393    1319   1
  -4   6  18     399     359   1
  -3   6  18    7809    1509   1
  -2   6  18    3969     787   1
  -1   6  18    2189     342   1
 -13  -6  -5   12358    1065  -2
   0   6  18   12358    1065   1
  -4   7  18     661     468   1
  -3   7  18    3920    1227   1
  -2   7  18   33074    1844   1
  -1   7  18   40749    1743   1
  -3   0  19    -584     584   1
  -3   1  19    4264    1830   1
  -2   1  19     907     481   1
;
_shelx_hkl_checksum              88266
_shelx_shelxl_version_number     2014/7
_olex2_submission_special_instructions 'No special instructions were received'
loop_
_space_group_symop_operation_xyz
'x, y, z'
'-x+1/2, y+1/2, -z+1/2'
'-x, -y, -z'
'x-1/2, -y-1/2, z-1/2'
loop_
_atom_site_label
_atom_site_type_symbol
_atom_site_fract_x
_atom_site_fract_y
_atom_site_fract_z
_atom_site_U_iso_or_equiv
_atom_site_adp_type
_atom_site_occupancy
_atom_site_site_symmetry_order
_atom_site_calc_flag
_atom_site_refinement_flags_posn
S1 S 0.10909(7) 0.84453(4) 0.31548(5) 0.0325(2) Uani 1 1 d .
O1 O 0.2877(2) 0.61057(11) 0.51028(14) 0.0332(5) Uani 1 1 d .
O2 O 0.4133(2) 0.37657(12) 0.55985(17) 0.0379(5) Uani 1 1 d .
O3 O 0.27375(19) 0.49310(11) 0.78647(14) 0.0311(5) Uani 1 1 d .
O4 O 0.2287(2) 0.72453(12) 0.93694(14) 0.0335(5) Uani 1 1 d .
O5 O 0.47975(18) 0.91639(11) 0.97710(14) 0.0308(4) Uani 1 1 d .
O6 O 0.35880(18) 0.83553(11) 0.69077(13) 0.0266(4) Uani 1 1 d .
O7 O 0.07447(18) 0.82873(12) 0.41875(14) 0.0318(5) Uani 1 1 d .
O8 O 0.1110(3) 0.77317(16) 0.27337(18) 0.0685(10) Uani 1 1 d .
O9 O 0.0131(2) 0.88969(13) 0.27524(16) 0.0405(5) Uani 1 1 d .
O10 O 0.2191(2) 0.8818(2) 0.3344(2) 0.0673(10) Uani 1 1 d .
N1 N 0.3475(2) 0.49507(14) 0.53023(18) 0.0315(5) Uani 1 1 d .
N2 N 0.3484(2) 0.43546(13) 0.67541(19) 0.0315(5) Uani 1 1 d .
N3 N 0.2717(2) 0.55751(13) 0.65078(16) 0.0262(5) Uani 1 1 d .
N4 N 0.2899(2) 0.77327(12) 0.80798(16) 0.0251(5) Uani 1 1 d .
N5 N 0.3533(2) 0.81836(13) 0.96113(16) 0.0274(5) Uani 1 1 d .
N6 N 0.4237(2) 0.87460(13) 0.83367(16) 0.0251(5) Uani 1 1 d .
C1 C 0.3024(2) 0.55290(15) 0.56802(19) 0.0268(6) Uani 1 1 d .
C2 C 0.3679(2) 0.43802(16) 0.5881(2) 0.0293(6) Uani 1 1 d .
C3 C 0.2987(2) 0.49641(15) 0.7003(2) 0.0267(6) Uani 1 1 d .
C4 C 0.4160(3) 0.3693(2) 0.4616(3) 0.0452(8) Uani 1 1 d .
H4A H 0.3377 0.3709 0.4281 0.068 Uiso 1 1 calc GR
H4B H 0.4516 0.3231 0.4500 0.068 Uiso 1 1 calc GR
H4C H 0.4607 0.4090 0.4416 0.068 Uiso 1 1 calc GR
C5 C 0.2020(3) 0.54936(15) 0.81403(19) 0.0273(6) Uani 1 1 d .
C6 C 0.0840(3) 0.53580(17) 0.8053(2) 0.0328(6) Uani 1 1 d .
H6 H 0.0523 0.4922 0.7786 0.039 Uiso 1 1 calc R
C7 C 0.0133(3) 0.58834(19) 0.8371(2) 0.0357(7) Uani 1 1 d .
H7 H -0.0670 0.5805 0.8309 0.043 Uiso 1 1 calc R
C8 C 0.0622(3) 0.65289(17) 0.8782(2) 0.0314(6) Uani 1 1 d .
H8 H 0.0153 0.6882 0.9002 0.038 Uiso 1 1 calc R
C9 C 0.1810(3) 0.66337(15) 0.88570(19) 0.0276(6) Uani 1 1 d .
C10 C 0.2543(3) 0.61247(16) 0.85374(19) 0.0274(6) Uani 1 1 d .
H10 H 0.3344 0.6205 0.8588 0.033 Uiso 1 1 calc R
C11 C 0.2937(2) 0.77343(15) 0.89895(19) 0.0260(5) Uani 1 1 d .
C12 C 0.4167(2) 0.86745(14) 0.92323(19) 0.0252(5) Uani 1 1 d .
C13 C 0.3570(2) 0.82605(14) 0.78094(19) 0.0235(5) Uani 1 1 d .
C14 C 0.4787(3) 0.91157(19) 1.0757(2) 0.0367(7) Uani 1 1 d .
H14A H 0.3994 0.9117 1.0869 0.055 Uiso 1 1 calc GR
H14B H 0.5197 0.9531 1.1062 0.055 Uiso 1 1 calc GR
H14C H 0.5165 0.8667 1.0993 0.055 Uiso 1 1 calc GR
C15 C 0.2925(2) 0.79148(15) 0.62257(18) 0.0238(5) Uani 1 1 d .
C16 C 0.2138(2) 0.82965(15) 0.55827(19) 0.0260(5) Uani 1 1 d .
H16 H 0.2002 0.8797 0.5657 0.031 Uiso 1 1 calc R
C17 C 0.1559(2) 0.79139(16) 0.48276(19) 0.0264(5) Uani 1 1 d .
C18 C 0.1775(2) 0.71693(16) 0.47092(19) 0.0266(6) Uani 1 1 d .
H18 H 0.1385 0.6912 0.4202 0.032 Uiso 1 1 calc R
C19 C 0.2587(3) 0.68193(15) 0.53647(19) 0.0263(6) Uani 1 1 d .
C20 C 0.3181(2) 0.71738(15) 0.61383(18) 0.0253(5) Uani 1 1 d .
H20 H 0.3721 0.6929 0.6573 0.030 Uiso 1 1 calc R
N7 N 0.8022(2) 0.88866(14) 0.68112(17) 0.0316(5) Uani 1 1 d .
C21 C 0.8316(4) 0.8094(2) 0.6612(3) 0.0563(11) Uani 1 1 d .
H21A H 0.8372 0.8051 0.5961 0.068 Uiso 1 1 calc R
H21B H 0.7677 0.7781 0.6729 0.068 Uiso 1 1 calc R
C22 C 0.9443(7) 0.7810(3) 0.7176(4) 0.121(3) Uani 1 1 d .
H22A H 1.0091 0.8092 0.7031 0.182 Uiso 1 1 calc GR
H22B H 0.9546 0.7300 0.7030 0.182 Uiso 1 1 calc GR
H22C H 0.9405 0.7857 0.7822 0.182 Uiso 1 1 calc GR
C23 C 0.6988(3) 0.91341(19) 0.6117(2) 0.0336(6) Uani 1 1 d .
H23A H 0.6858 0.9655 0.6211 0.040 Uiso 1 1 calc R
H23B H 0.7180 0.9076 0.5501 0.040 Uiso 1 1 calc R
C24 C 0.5866(4) 0.8724(3) 0.6164(3) 0.0655(13) Uani 1 1 d .
H24A H 0.5246 0.8932 0.5725 0.098 Uiso 1 1 calc GR
H24B H 0.5676 0.8766 0.6775 0.098 Uiso 1 1 calc GR
H24C H 0.5963 0.8213 0.6021 0.098 Uiso 1 1 calc GR
C25 C 0.7750(4) 0.8933(2) 0.7790(2) 0.0469(9) Uani 1 1 d .
H25A H 0.7208 0.8541 0.7875 0.056 Uiso 1 1 calc R
H25B H 0.8467 0.8846 0.8220 0.056 Uiso 1 1 calc R
C26 C 0.7235(4) 0.9657(2) 0.8038(2) 0.0472(9) Uani 1 1 d .
H26A H 0.6513 0.9745 0.7629 0.071 Uiso 1 1 calc GR
H26B H 0.7774 1.0049 0.7978 0.071 Uiso 1 1 calc GR
H26C H 0.7091 0.9636 0.8664 0.071 Uiso 1 1 calc GR
C27 C 0.9037(3) 0.9393(2) 0.6740(3) 0.0483(9) Uani 1 1 d .
H27A H 0.9702 0.9234 0.7185 0.058 Uiso 1 1 calc R
H27B H 0.8831 0.9887 0.6915 0.058 Uiso 1 1 calc R
C28 C 0.9408(4) 0.9434(3) 0.5796(4) 0.0761(16) Uani 1 1 d .
H28A H 0.8772 0.9619 0.5353 0.114 Uiso 1 1 calc GR
H28B H 0.9619 0.8950 0.5614 0.114 Uiso 1 1 calc GR
H28C H 1.0068 0.9758 0.5824 0.114 Uiso 1 1 calc GR
loop_
_atom_site_aniso_label
_atom_site_aniso_U_11
_atom_site_aniso_U_22
_atom_site_aniso_U_33
_atom_site_aniso_U_23
_atom_site_aniso_U_13
_atom_site_aniso_U_12
S1 0.0347(4) 0.0326(4) 0.0297(4) 0.0087(3) 0.0040(3) 0.0048(3)
O1 0.0516(13) 0.0231(10) 0.0239(10) -0.0007(8) 0.0034(9) 0.0083(9)
O2 0.0351(12) 0.0245(10) 0.0550(14) -0.0055(10) 0.0099(10) 0.0069(9)
O3 0.0369(11) 0.0231(10) 0.0326(11) 0.0043(8) 0.0038(8) 0.0020(8)
O4 0.0489(13) 0.0283(11) 0.0241(10) -0.0042(8) 0.0085(9) -0.0146(9)
O5 0.0353(11) 0.0281(10) 0.0269(10) -0.0055(8) -0.0010(8) -0.0068(8)
O6 0.0324(10) 0.0238(9) 0.0227(9) 0.0003(7) 0.0020(8) -0.0061(8)
O7 0.0285(10) 0.0373(11) 0.0283(10) 0.0062(9) 0.0012(8) 0.0086(9)
O8 0.128(3) 0.0461(16) 0.0315(13) 0.0005(11) 0.0119(15) 0.0319(17)
O9 0.0385(12) 0.0414(13) 0.0369(12) 0.0111(10) -0.0077(9) 0.0035(10)
O10 0.0309(13) 0.090(2) 0.078(2) 0.0471(18) 0.0002(13) -0.0103(14)
N1 0.0331(13) 0.0245(12) 0.0356(13) -0.0036(10) 0.0014(10) 0.0032(10)
N2 0.0293(12) 0.0217(11) 0.0416(14) 0.0005(10) -0.0005(10) 0.0024(9)
N3 0.0265(11) 0.0221(11) 0.0281(12) 0.0002(9) -0.0018(9) 0.0009(9)
N4 0.0280(11) 0.0218(11) 0.0250(11) -0.0011(9) 0.0028(9) -0.0034(9)
N5 0.0332(13) 0.0238(11) 0.0247(11) -0.0028(9) 0.0030(9) -0.0029(9)
N6 0.0271(11) 0.0205(11) 0.0264(11) 0.0002(9) 0.0007(9) -0.0015(9)
C1 0.0285(13) 0.0228(13) 0.0267(13) -0.0021(10) -0.0033(10) 0.0003(10)
C2 0.0233(13) 0.0237(13) 0.0398(16) -0.0018(11) 0.0019(11) 0.0017(10)
C3 0.0234(13) 0.0230(13) 0.0318(14) -0.0005(11) -0.0012(10) -0.0031(10)
C4 0.049(2) 0.0334(17) 0.057(2) -0.0112(16) 0.0203(17) 0.0033(15)
C5 0.0342(14) 0.0224(13) 0.0249(13) 0.0035(10) 0.0039(11) -0.0012(11)
C6 0.0355(15) 0.0262(14) 0.0350(15) -0.0021(12) 0.0010(12) -0.0085(12)
C7 0.0301(15) 0.0383(17) 0.0382(16) -0.0040(13) 0.0038(12) -0.0063(13)
C8 0.0367(16) 0.0296(15) 0.0275(14) 0.0008(11) 0.0044(11) 0.0000(12)
C9 0.0377(15) 0.0236(13) 0.0205(12) -0.0003(10) 0.0015(11) -0.0084(11)
C10 0.0280(13) 0.0280(14) 0.0253(13) 0.0049(11) 0.0013(10) -0.0082(11)
C11 0.0316(14) 0.0200(12) 0.0259(13) -0.0010(10) 0.0032(10) -0.0012(10)
C12 0.0263(13) 0.0195(12) 0.0279(13) -0.0032(10) -0.0010(10) 0.0010(10)
C13 0.0254(12) 0.0193(12) 0.0251(13) 0.0012(10) 0.0022(10) 0.0022(10)
C14 0.0430(17) 0.0378(17) 0.0279(15) -0.0086(13) 0.0020(12) -0.0108(14)
C15 0.0254(13) 0.0236(13) 0.0229(12) -0.0001(10) 0.0053(10) -0.0036(10)
C16 0.0290(14) 0.0217(13) 0.0279(13) 0.0023(10) 0.0068(11) 0.0006(10)
C17 0.0265(13) 0.0284(14) 0.0242(13) 0.0038(11) 0.0038(10) 0.0043(11)
C18 0.0300(14) 0.0271(13) 0.0219(12) 0.0008(10) 0.0020(10) -0.0037(11)
C19 0.0351(15) 0.0208(12) 0.0234(12) 0.0014(10) 0.0061(11) 0.0006(11)
C20 0.0293(13) 0.0236(13) 0.0225(12) 0.0032(10) 0.0029(10) 0.0018(10)
N7 0.0415(14) 0.0267(12) 0.0243(12) -0.0021(9) -0.0014(10) 0.0031(10)
C21 0.090(3) 0.0340(19) 0.0408(19) -0.0117(15) -0.0012(19) 0.0169(19)
C22 0.192(8) 0.082(4) 0.069(3) -0.025(3) -0.041(4) 0.097(5)
C23 0.0312(15) 0.0459(18) 0.0226(13) -0.0011(12) 0.0014(11) 0.0016(13)
C24 0.043(2) 0.108(4) 0.048(2) -0.019(2) 0.0143(17) -0.026(2)
C25 0.081(3) 0.0356(18) 0.0232(15) 0.0029(13) 0.0050(15) 0.0074(17)
C26 0.071(2) 0.047(2) 0.0232(15) -0.0016(14) 0.0063(15) 0.0140(18)
C27 0.0330(17) 0.057(2) 0.052(2) -0.0101(18) -0.0007(15) -0.0072(16)
C28 0.043(2) 0.116(5) 0.074(3) -0.010(3) 0.023(2) -0.022(3)
loop_
_atom_type_symbol
_atom_type_description
_atom_type_scat_dispersion_real
_atom_type_scat_dispersion_imag
_atom_type_scat_source
C C 0.0033 0.0016 'International Tables Vol C Tables 4.2.6.8 and 6.1.1.4'
H H 0.0000 0.0000 'International Tables Vol C Tables 4.2.6.8 and 6.1.1.4'
N N 0.0061 0.0033 'International Tables Vol C Tables 4.2.6.8 and 6.1.1.4'
O O 0.0106 0.0060 'International Tables Vol C Tables 4.2.6.8 and 6.1.1.4'
S S 0.1246 0.1234 'International Tables Vol C Tables 4.2.6.8 and 6.1.1.4'
loop_
_geom_angle_atom_site_label_1
_geom_angle_atom_site_label_2
_geom_angle_atom_site_label_3
_geom_angle
O8 S1 O7 105.12(15)
O9 S1 O7 100.89(13)
O9 S1 O8 113.83(18)
O9 S1 O10 114.79(17)
O10 S1 O7 104.19(16)
O10 S1 O8 115.7(2)
C1 O1 C19 123.9(2)
C2 O2 C4 117.4(3)
C3 O3 C5 117.5(2)
C11 O4 C9 120.0(2)
C12 O5 C14 117.4(2)
C13 O6 C15 122.4(2)
C17 O7 S1 117.53(18)
C1 N1 C2 112.8(3)
C3 N2 C2 112.6(3)
C1 N3 C3 111.9(2)
C11 N4 C13 111.8(2)
C11 N5 C12 112.6(2)
C13 N6 C12 112.6(2)
N1 C1 O1 111.7(3)
N3 C1 O1 120.4(2)
N3 C1 N1 127.9(3)
O2 C2 N1 119.4(3)
O2 C2 N2 114.0(3)
N1 C2 N2 126.6(3)
N2 C3 O3 113.1(3)
N2 C3 N3 128.1(3)
N3 C3 O3 118.9(3)
O2 C4 H4A 109.5
O2 C4 H4B 109.5
O2 C4 H4C 109.5
H4A C4 H4B 109.5
H4A C4 H4C 109.5
H4B C4 H4C 109.5
C6 C5 O3 117.8(3)
C6 C5 C10 123.4(3)
C10 C5 O3 118.7(3)
C5 C6 H6 120.7
C5 C6 C7 118.7(3)
C7 C6 H6 120.7
C6 C7 H7 120.0
C6 C7 C8 120.1(3)
C8 C7 H7 120.0
C7 C8 H8 120.6
C9 C8 C7 118.8(3)
C9 C8 H8 120.6
C8 C9 O4 117.0(3)
C8 C9 C10 122.7(3)
C10 C9 O4 119.9(3)
C5 C10 C9 116.3(3)
C5 C10 H10 121.8
C9 C10 H10 121.8
N4 C11 O4 119.1(2)
N4 C11 N5 128.3(3)
N5 C11 O4 112.6(2)
O5 C12 N5 119.1(2)
O5 C12 N6 113.9(2)
N5 C12 N6 126.9(2)
N4 C13 O6 119.3(2)
N6 C13 O6 112.8(2)
N6 C13 N4 127.8(3)
O5 C14 H14A 109.5
O5 C14 H14B 109.5
O5 C14 H14C 109.5
H14A C14 H14B 109.5
H14A C14 H14C 109.5
H14B C14 H14C 109.5
C16 C15 O6 115.1(2)
C16 C15 C20 123.3(3)
C20 C15 O6 121.0(2)
C15 C16 H16 120.9
C17 C16 C15 118.3(3)
C17 C16 H16 120.9
C16 C17 O7 118.9(3)
C16 C17 C18 120.9(3)
C18 C17 O7 120.3(3)
C17 C18 H18 120.8
C19 C18 C17 118.3(3)
C19 C18 H18 120.8
C18 C19 O1 113.4(2)
C18 C19 C20 123.2(3)
C20 C19 O1 122.8(3)
C15 C20 H20 122.0
C19 C20 C15 116.1(3)
C19 C20 H20 122.0
C21 N7 C25 108.8(3)
C23 N7 C21 109.3(3)
C23 N7 C25 110.9(3)
C23 N7 C27 108.4(3)
C27 N7 C21 111.2(3)
C27 N7 C25 108.3(3)
N7 C21 H21A 108.6
N7 C21 H21B 108.6
N7 C21 C22 114.7(4)
H21A C21 H21B 107.6
C22 C21 H21A 108.6
C22 C21 H21B 108.6
C21 C22 H22A 109.5
C21 C22 H22B 109.5
C21 C22 H22C 109.5
H22A C22 H22B 109.5
H22A C22 H22C 109.5
H22B C22 H22C 109.5
N7 C23 H23A 108.6
N7 C23 H23B 108.6
H23A C23 H23B 107.6
C24 C23 N7 114.8(3)
C24 C23 H23A 108.6
C24 C23 H23B 108.6
C23 C24 H24A 109.5
C23 C24 H24B 109.5
C23 C24 H24C 109.5
H24A C24 H24B 109.5
H24A C24 H24C 109.5
H24B C24 H24C 109.5
N7 C25 H25A 108.5
N7 C25 H25B 108.5
H25A C25 H25B 107.5
C26 C25 N7 115.2(3)
C26 C25 H25A 108.5
C26 C25 H25B 108.5
C25 C26 H26A 109.5
C25 C26 H26B 109.5
C25 C26 H26C 109.5
H26A C26 H26B 109.5
H26A C26 H26C 109.5
H26B C26 H26C 109.5
N7 C27 H27A 108.4
N7 C27 H27B 108.4
N7 C27 C28 115.6(3)
H27A C27 H27B 107.4
C28 C27 H27A 108.4
C28 C27 H27B 108.4
C27 C28 H28A 109.5
C27 C28 H28B 109.5
C27 C28 H28C 109.5
H28A C28 H28B 109.5
H28A C28 H28C 109.5
H28B C28 H28C 109.5
loop_
_geom_bond_atom_site_label_1
_geom_bond_atom_site_label_2
_geom_bond_distance
S1 O7 1.652(2)
S1 O8 1.434(3)
S1 O9 1.429(2)
S1 O10 1.429(3)
O1 C1 1.338(3)
O1 C19 1.405(3)
O2 C2 1.326(3)
O2 C4 1.452(4)
O3 C3 1.341(4)
O3 C5 1.415(3)
O4 C9 1.401(3)
O4 C11 1.341(3)
O5 C12 1.325(3)
O5 C14 1.449(4)
O6 C13 1.336(3)
O6 C15 1.406(3)
O7 C17 1.393(3)
N1 C1 1.331(4)
N1 C2 1.334(4)
N2 C2 1.335(4)
N2 C3 1.324(4)
N3 C1 1.320(4)
N3 C3 1.333(4)
N4 C11 1.326(4)
N4 C13 1.333(3)
N5 C11 1.328(4)
N5 C12 1.331(4)
N6 C12 1.334(4)
N6 C13 1.332(3)
C4 H4A 0.9600
C4 H4B 0.9600
C4 H4C 0.9600
C5 C6 1.374(4)
C5 C10 1.378(4)
C6 H6 0.9300
C6 C7 1.385(5)
C7 H7 0.9300
C7 C8 1.393(4)
C8 H8 0.9300
C8 C9 1.377(4)
C9 C10 1.385(4)
C10 H10 0.9300
C14 H14A 0.9600
C14 H14B 0.9600
C14 H14C 0.9600
C15 C16 1.385(4)
C15 C20 1.386(4)
C16 H16 0.9300
C16 C17 1.383(4)
C17 C18 1.388(4)
C18 H18 0.9300
C18 C19 1.384(4)
C19 C20 1.385(4)
C20 H20 0.9300
N7 C21 1.515(4)
N7 C23 1.508(4)
N7 C25 1.520(4)
N7 C27 1.509(5)
C21 H21A 0.9700
C21 H21B 0.9700
C21 C22 1.517(7)
C22 H22A 0.9600
C22 H22B 0.9600
C22 H22C 0.9600
C23 H23A 0.9700
C23 H23B 0.9700
C23 C24 1.507(5)
C24 H24A 0.9600
C24 H24B 0.9600
C24 H24C 0.9600
C25 H25A 0.9700
C25 H25B 0.9700
C25 C26 1.509(5)
C26 H26A 0.9600
C26 H26B 0.9600
C26 H26C 0.9600
C27 H27A 0.9700
C27 H27B 0.9700
C27 C28 1.515(6)
C28 H28A 0.9600
C28 H28B 0.9600
C28 H28C 0.9600
loop_
_geom_torsion_atom_site_label_1
_geom_torsion_atom_site_label_2
_geom_torsion_atom_site_label_3
_geom_torsion_atom_site_label_4
_geom_torsion
S1 O7 C17 C16 109.9(3)
S1 O7 C17 C18 -70.6(3)
O1 C19 C20 C15 169.9(2)
O3 C5 C6 C7 176.2(3)
O3 C5 C10 C9 -175.4(2)
O4 C9 C10 C5 172.2(2)
O6 C15 C16 C17 172.2(2)
O6 C15 C20 C19 -171.0(2)
O7 C17 C18 C19 -179.6(2)
O8 S1 O7 C17 67.7(3)
O9 S1 O7 C17 -173.7(2)
O10 S1 O7 C17 -54.4(3)
C1 O1 C19 C18 -139.3(3)
C1 O1 C19 C20 49.6(4)
C1 N1 C2 O2 -179.7(3)
C1 N1 C2 N2 -0.5(4)
C1 N3 C3 O3 179.4(2)
C1 N3 C3 N2 -0.9(4)
C2 N1 C1 O1 177.1(2)
C2 N1 C1 N3 -3.9(4)
C2 N2 C3 O3 177.1(2)
C2 N2 C3 N3 -2.6(4)
C3 O3 C5 C6 94.9(3)
C3 O3 C5 C10 -89.4(3)
C3 N2 C2 O2 -177.4(2)
C3 N2 C2 N1 3.3(4)
C3 N3 C1 O1 -176.6(3)
C3 N3 C1 N1 4.5(4)
C4 O2 C2 N1 -12.4(4)
C4 O2 C2 N2 168.3(3)
C5 O3 C3 N2 -168.9(2)
C5 O3 C3 N3 10.8(4)
C5 C6 C7 C8 -1.0(5)
C6 C5 C10 C9 0.1(4)
C6 C7 C8 C9 0.6(5)
C7 C8 C9 O4 -172.7(3)
C7 C8 C9 C10 0.2(4)
C8 C9 C10 C5 -0.5(4)
C9 O4 C11 N4 15.6(4)
C9 O4 C11 N5 -166.0(3)
C10 C5 C6 C7 0.7(5)
C11 O4 C9 C8 -125.9(3)
C11 O4 C9 C10 60.9(4)
C11 N4 C13 O6 -177.0(2)
C11 N4 C13 N6 0.9(4)
C11 N5 C12 O5 179.3(2)
C11 N5 C12 N6 0.4(4)
C12 N5 C11 O4 -179.2(2)
C12 N5 C11 N4 -1.1(4)
C12 N6 C13 O6 176.6(2)
C12 N6 C13 N4 -1.4(4)
C13 O6 C15 C16 121.2(3)
C13 O6 C15 C20 -68.0(3)
C13 N4 C11 O4 178.6(2)
C13 N4 C11 N5 0.5(4)
C13 N6 C12 O5 -178.3(2)
C13 N6 C12 N5 0.6(4)
C14 O5 C12 N5 2.1(4)
C14 O5 C12 N6 -178.9(3)
C15 O6 C13 N4 -0.2(4)
C15 O6 C13 N6 -178.4(2)
C15 C16 C17 O7 178.5(2)
C15 C16 C17 C18 -1.0(4)
C16 C15 C20 C19 -0.9(4)
C16 C17 C18 C19 -0.1(4)
C17 C18 C19 O1 -170.2(2)
C17 C18 C19 C20 0.9(4)
C18 C19 C20 C15 -0.3(4)
C19 O1 C1 N1 -169.9(3)
C19 O1 C1 N3 11.0(4)
C20 C15 C16 C17 1.6(4)
C21 N7 C23 C24 64.1(4)
C21 N7 C25 C26 -169.7(4)
C21 N7 C27 C28 62.2(5)
C23 N7 C21 C22 171.9(5)
C23 N7 C25 C26 -49.4(4)
C23 N7 C27 C28 -58.0(4)
C25 N7 C21 C22 -66.9(6)
C25 N7 C23 C24 -55.8(4)
C25 N7 C27 C28 -178.4(4)
C27 N7 C21 C22 52.3(6)
C27 N7 C23 C24 -174.6(3)
C27 N7 C25 C26 69.4(4)
loop_
_twin_individual_id
_twin_individual_mass_fraction_refined
1 0.845(3)
2 0.155(3)
