#------------------------------------------------------------------------------
#$Date: 2017-07-05 00:08:58 +0300 (Wed, 05 Jul 2017) $
#$Revision: 198402 $
#$URL: file:///home/coder/svn-repositories/cod/cif/1/54/64/1546462.cif $
#------------------------------------------------------------------------------
#
# This file is available in the Crystallography Open Database (COD),
# http://www.crystallography.net/
#
# All data on this site have been placed in the public domain by the
# contributors.
#
data_1546462
loop_
_publ_author_name
'Xu, Wei'
'Wang, Gaonan'
'Sun, Ning'
'Liu, Yuanhong'
_publ_section_title
;
 Gold-Catalyzed Formal [3 + 2] Cycloaddition of Ynamides with
 4,5-Dihydro-1,2,4-oxadiazoles: Synthesis of Functionalized
 4-Aminoimidazoles.
;
_journal_issue                   12
_journal_name_full               'Organic letters'
_journal_page_first              3307
_journal_page_last               3310
_journal_paper_doi               10.1021/acs.orglett.7b01469
_journal_volume                  19
_journal_year                    2017
_chemical_formula_sum            'C37 H33 N3 O3 S'
_chemical_formula_weight         599.72
_chemical_name_systematic
; 
 ? 
;
_space_group_crystal_system      triclinic
_space_group_IT_number           2
_space_group_name_Hall           '-P 1'
_space_group_name_H-M_alt        'P -1'
_symmetry_space_group_name_Hall  '-P 1'
_symmetry_space_group_name_H-M   'P -1'
_atom_sites_solution_hydrogens   geom
_audit_creation_method           SHELXL-2013
_cell_angle_alpha                107.953(5)
_cell_angle_beta                 93.513(5)
_cell_angle_gamma                111.951(5)
_cell_formula_units_Z            2
_cell_length_a                   11.366(3)
_cell_length_b                   12.273(3)
_cell_length_c                   13.051(3)
_cell_measurement_reflns_used    1718
_cell_measurement_temperature    293(2)
_cell_measurement_theta_max      47.796
_cell_measurement_theta_min      5.005
_cell_volume                     1573.9(7)
_computing_cell_refinement       'Bruker SMART'
_computing_data_collection       'Bruker SMART'
_computing_data_reduction        'Bruker SHELXTL'
_computing_molecular_graphics    'Bruker SHELXTL'
_computing_publication_material  'Bruker SHELXTL'
_computing_structure_refinement  'SHELXL-2013 (Sheldrick, 2013)'
_computing_structure_solution    'Bruker SHELXTL'
_diffrn_ambient_temperature      293(2)
_diffrn_measured_fraction_theta_full 0.968
_diffrn_measured_fraction_theta_max 0.994
_diffrn_measurement_device_type  'CCD area detector'
_diffrn_measurement_method       'phi and omega scans'
_diffrn_radiation_type           MoK\a
_diffrn_radiation_wavelength     0.71073
_diffrn_reflns_av_R_equivalents  0.0419
_diffrn_reflns_av_unetI/netI     0.0773
_diffrn_reflns_Laue_measured_fraction_full 0.968
_diffrn_reflns_Laue_measured_fraction_max 0.994
_diffrn_reflns_limit_h_max       13
_diffrn_reflns_limit_h_min       -10
_diffrn_reflns_limit_k_max       11
_diffrn_reflns_limit_k_min       -14
_diffrn_reflns_limit_l_max       15
_diffrn_reflns_limit_l_min       -15
_diffrn_reflns_number            8551
_diffrn_reflns_point_group_measured_fraction_full 0.968
_diffrn_reflns_point_group_measured_fraction_max 0.994
_diffrn_reflns_theta_full        25.242
_diffrn_reflns_theta_max         24.998
_diffrn_reflns_theta_min         1.916
_exptl_absorpt_coefficient_mu    0.144
_exptl_absorpt_correction_T_max  0.7456
_exptl_absorpt_correction_T_min  0.5530
_exptl_absorpt_correction_type   multi-scan
_exptl_absorpt_process_details   sadabs
_exptl_crystal_colour            colorless
_exptl_crystal_density_diffrn    1.265
_exptl_crystal_description       prismatic
_exptl_crystal_F_000             632
_exptl_crystal_size_max          0.170
_exptl_crystal_size_mid          0.140
_exptl_crystal_size_min          0.080
_refine_diff_density_max         0.462
_refine_diff_density_min         -0.326
_refine_diff_density_rms         0.064
_refine_ls_extinction_method     none
_refine_ls_goodness_of_fit_ref   1.016
_refine_ls_hydrogen_treatment    constr
_refine_ls_matrix_type           full
_refine_ls_number_parameters     374
_refine_ls_number_reflns         5517
_refine_ls_number_restraints     0
_refine_ls_restrained_S_all      1.016
_refine_ls_R_factor_all          0.1111
_refine_ls_R_factor_gt           0.0738
_refine_ls_shift/su_max          0.001
_refine_ls_shift/su_mean         0.000
_refine_ls_structure_factor_coef Fsqd
_refine_ls_weighting_details
'w=1/[\s^2^(Fo^2^)+(0.1115P)^2^+0.3445P] where P=(Fo^2^+2Fc^2^)/3'
_refine_ls_weighting_scheme      calc
_refine_ls_wR_factor_gt          0.1861
_refine_ls_wR_factor_ref         0.2097
_reflns_Friedel_coverage         0.000
_reflns_number_gt                3624
_reflns_number_total             5517
_reflns_threshold_expression     'I > 2\s(I)'
_cod_data_source_file            ol7b01469_si_004.cif
_cod_data_source_block           cd17141
_cod_original_cell_volume        1574.0(7)
_cod_database_code               1546462
_shelx_space_group_comment
; 
The symmetry employed for this shelxl refinement is uniquely defined 
by the following loop, which should always be used as a source of 
symmetry information in preference to the above space-group names. 
They are only intended as comments. 
;
_shelx_estimated_absorpt_t_min   0.976
_shelx_estimated_absorpt_t_max   0.989
_shelxl_version_number           2013-4
_shelx_res_file
; 
TITL cd17141 in P-1 
CELL 0.71073  11.3664  12.2731  13.0514 107.953  93.513 111.951 
ZERR    2.00   0.0028   0.0033   0.0034   0.005   0.005   0.005 
LATT 1 
SFAC C  H  N  O  S 
UNIT 74 66 6 6 2 
OMIT -1   0   2 
OMIT    -2   1   4 
OMIT    -1   0   1 
OMIT     0   4   1 
OMIT     2  -7   3 
OMIT    -4   0   8 
omit 0 0 1 
OMIT  -3.00  50.00 
L.S. 10 
ACTA 
BOND  $H 
FMAP 2 
PLAN 20 
HTAB C26 O1 
HTAB C32 O2_$1 
HTAB C26 O1 
wpdb -1 
size 0.17 0.14 0.08 
mpla c31 > c36 
mpla c25 > c30 
mpla c19 > c24 
mpla c3 > c8 
mpla n1 n2 o1 c1 c2 
mpla c9 > c14 
htab 
conf 
HTAB C26 O1 
EQIV $1 -x+1, -y+2, -z 
HTAB C32 O2_$1 
HTAB C26 O1 
WGHT    0.111500    0.344500 
FVAR       0.16096 
MOLE 1 
S1    5    0.347254    0.981971    0.155024    11.00000    0.03688    0.03048 = 
         0.05169    0.02103    0.00496    0.00573 
N1    3    0.506406    0.850870    0.238286    11.00000    0.03465    0.02267 = 
         0.06350    0.00876    0.00837    0.00749 
N2    3    0.609283    0.733944    0.266566    11.00000    0.05128    0.03470 = 
         0.06791    0.01521    0.01385    0.01889 
N3    3    0.382721    0.971569    0.273833    11.00000    0.03096    0.02553 = 
         0.04162    0.01062    0.00551    0.00973 
O1    4    0.409697    0.743076    0.252421    11.00000    0.04591    0.02294 = 
         0.13473    0.02692    0.03018    0.01107 
O2    4    0.466617    1.047435    0.129933    11.00000    0.04947    0.04084 = 
         0.06095    0.02591    0.01287    0.00762 
O3    4    0.251295    1.029157    0.164201    11.00000    0.04562    0.05513 = 
         0.07693    0.03845    0.00797    0.02269 
C1    1    0.619826    0.830987    0.244844    11.00000    0.04167    0.02555 = 
         0.04833    0.00365    0.00452    0.01198 
C2    1    0.479050    0.676593    0.282493    11.00000    0.05911    0.03023 = 
         0.06672    0.01540    0.02079    0.01756 
AFIX  13 
H2    2    0.480381    0.685844    0.359920    11.00000   -1.20000 
AFIX  66 
C3    1    0.412746    0.541647    0.212044    11.00000    0.06534    0.02754 = 
         0.07116    0.01841    0.02928    0.01716 
C4    1    0.384621    0.451827    0.261407    11.00000    0.12273    0.03669 = 
         0.10707    0.03030    0.03171    0.01383 
AFIX  43 
H4    2    0.403904    0.476841    0.337555    11.00000   -1.20000 
AFIX  65 
C5    1    0.327674    0.324621    0.196959    11.00000    0.15620    0.03721 = 
         0.14800    0.03933    0.06096    0.02053 
AFIX  43 
H5    2    0.308856    0.264526    0.229987    11.00000   -1.20000 
AFIX  65 
C6    1    0.298852    0.287234    0.083148    11.00000    0.13691    0.03332 = 
         0.13659    0.00644    0.06873    0.01618 
AFIX  43 
H6    2    0.260750    0.202124    0.040029    11.00000   -1.20000 
AFIX  65 
C7    1    0.326976    0.377052    0.033783    11.00000    0.18737    0.05490 = 
         0.08187   -0.00782    0.03378    0.01276 
AFIX  43 
H7    2    0.307692    0.352037   -0.042365    11.00000   -1.20000 
AFIX  65 
C8    1    0.383923    0.504259    0.098229    11.00000    0.16708    0.04457 = 
         0.07586    0.02208    0.02678    0.01988 
AFIX  43 
H8    2    0.402741    0.564353    0.065201    11.00000   -1.20000 
AFIX   0 
C9    1    0.737134    0.909799    0.217879    11.00000    0.03895    0.03109 = 
         0.04200    0.00347    0.00764    0.01226 
C10   1    0.739009    0.996511    0.170896    11.00000    0.03886    0.04932 = 
         0.05634    0.01733    0.00898    0.01709 
AFIX  43 
H10   2    0.664070    1.007639    0.156033    11.00000   -1.20000 
AFIX   0 
C11   1    0.851512    1.066365    0.146088    11.00000    0.05762    0.05747 = 
         0.07396    0.03380    0.01240    0.01447 
AFIX  43 
H11   2    0.853060    1.125040    0.114404    11.00000   -1.20000 
AFIX   0 
C12   1    0.961812    1.049669    0.168026    11.00000    0.04208    0.07345 = 
         0.06600    0.02591    0.01270    0.00859 
AFIX  43 
H12   2    1.037662    1.096616    0.150228    11.00000   -1.20000 
AFIX   0 
C13   1    0.961702    0.965514    0.215379    11.00000    0.04034    0.07455 = 
         0.06338    0.01662    0.00884    0.02558 
AFIX  43 
H13   2    1.037160    0.955277    0.230383    11.00000   -1.20000 
AFIX   0 
C14   1    0.849449    0.895500    0.241034    11.00000    0.04844    0.05005 = 
         0.05117    0.01231    0.00999    0.02205 
AFIX  43 
H14   2    0.849164    0.838285    0.274115    11.00000   -1.20000 
AFIX   0 
C15   1    0.500195    0.963174    0.303600    11.00000    0.03630    0.02349 = 
         0.03988    0.00850    0.00738    0.01153 
C16   1    0.597346    1.055867    0.379260    11.00000    0.03636    0.03178 = 
         0.05100    0.01161    0.00219    0.01335 
AFIX  43 
H16   2    0.661687    1.035933    0.405313    11.00000   -1.20000 
AFIX   0 
C17   1    0.615732    1.188123    0.427513    11.00000    0.04244    0.02747 = 
         0.05498   -0.00008    0.00202    0.01129 
AFIX  23 
H17A  2    0.630850    1.213876    0.506993    11.00000   -1.20000 
H17B  2    0.537514    1.195468    0.403374    11.00000   -1.20000 
AFIX   0 
C18   1    0.728875    1.274580    0.394433    11.00000    0.06723    0.03516 = 
         0.07260    0.01180    0.01197    0.01785 
AFIX  23 
H18A  2    0.804343    1.259130    0.410691    11.00000   -1.20000 
H18B  2    0.708948    1.253855    0.315630    11.00000   -1.20000 
AFIX  66 
C19   1    0.761530    1.411427    0.450793    11.00000    0.05809    0.03362 = 
         0.07308    0.01489    0.01690    0.01312 
C20   1    0.700045    1.470794    0.407120    11.00000    0.12500    0.05529 = 
         0.09109    0.02046   -0.00429    0.03784 
AFIX  43 
H20   2    0.637780    1.425338    0.342507    11.00000   -1.20000 
AFIX  65 
C21   1    0.731622    1.598101    0.460019    11.00000    0.15042    0.04929 = 
         0.11812    0.02684    0.00405    0.04722 
AFIX  43 
H21   2    0.690484    1.637821    0.430798    11.00000   -1.20000 
AFIX  65 
C22   1    0.824684    1.666041    0.556590    11.00000    0.10773    0.03480 = 
         0.11286    0.02054    0.02959    0.01735 
AFIX  43 
H22   2    0.845811    1.751218    0.591983    11.00000   -1.20000 
AFIX  65 
C23   1    0.886170    1.606676    0.600264    11.00000    0.09330    0.04559 = 
         0.11963   -0.00498   -0.01394    0.01266 
AFIX  43 
H23   2    0.948434    1.652133    0.664878    11.00000   -1.20000 
AFIX  65 
C24   1    0.854594    1.479370    0.547367    11.00000    0.08272    0.04494 = 
         0.11677    0.00303   -0.02139    0.01968 
AFIX  43 
H24   2    0.895733    1.439650    0.576588    11.00000   -1.20000 
AFIX   0 
C25   1    0.285976    0.953613    0.341239    11.00000    0.03379    0.03172 = 
         0.03724    0.01201    0.00329    0.01439 
C26   1    0.204685    0.834998    0.333234    11.00000    0.04243    0.02963 = 
         0.04983    0.01100    0.00805    0.01397 
AFIX  43 
H26   2    0.209956    0.764881    0.283455    11.00000   -1.20000 
AFIX   0 
C27   1    0.114376    0.820786    0.400335    11.00000    0.03745    0.04085 = 
         0.06005    0.02353    0.00861    0.00835 
AFIX  43 
H27   2    0.058831    0.740612    0.395732    11.00000   -1.20000 
AFIX   0 
C28   1    0.106517    0.923604    0.472997    11.00000    0.04026    0.06116 = 
         0.05257    0.02125    0.01070    0.02264 
AFIX  43 
H28   2    0.046189    0.913706    0.518223    11.00000   -1.20000 
AFIX   0 
C29   1    0.187911    1.041726    0.479170    11.00000    0.04629    0.04491 = 
         0.05579    0.00993    0.01179    0.02299 
AFIX  43 
H29   2    0.182556    1.111955    0.528683    11.00000   -1.20000 
AFIX   0 
C30   1    0.275838    1.056709    0.413768    11.00000    0.04049    0.03444 = 
         0.05350    0.01276    0.00991    0.01674 
AFIX  43 
H30   2    0.329815    1.137133    0.417776    11.00000   -1.20000 
AFIX   0 
C31   1    0.277384    0.829207    0.056853    11.00000    0.05485    0.04003 = 
         0.03906    0.01670    0.00221    0.00435 
C32   1    0.352601    0.783263   -0.005241    11.00000    0.08295    0.05023 = 
         0.05126    0.01372    0.01472    0.01365 
AFIX  43 
H32   2    0.440805    0.831497    0.004867    11.00000   -1.20000 
AFIX   0 
C33   1    0.294508    0.663995   -0.082954    11.00000    0.13919    0.06214 = 
         0.05417    0.00360    0.02344    0.01847 
AFIX  43 
H33   2    0.344821    0.631685   -0.125463    11.00000   -1.20000 
AFIX   0 
C34   1    0.165867    0.591857   -0.099587    11.00000    0.15580    0.05683 = 
         0.05166    0.00408    0.01524   -0.02063 
C35   1    0.093393    0.639410   -0.037921    11.00000    0.09772    0.07373 = 
         0.06296    0.02261   -0.00226   -0.03134 
AFIX  43 
H35   2    0.005200    0.590683   -0.048726    11.00000   -1.20000 
AFIX   0 
C36   1    0.147432    0.759070    0.041021    11.00000    0.06432    0.06125 = 
         0.05867    0.02356    0.00027   -0.00611 
AFIX  43 
H36   2    0.096343    0.791227    0.082559    11.00000   -1.20000 
AFIX   0 
C37   1    0.105245    0.461442   -0.186370    11.00000    0.26185    0.06878 = 
         0.10110   -0.01634    0.02366   -0.04066 
AFIX 137 
H37A  2    0.170503    0.443644   -0.222572    11.00000   -1.50000 
H37B  2    0.039417    0.456917   -0.239271    11.00000   -1.50000 
H37C  2    0.067288    0.400882   -0.152421    11.00000   -1.50000 
AFIX   0 
HKLF 4 
  
REM  cd17141 in P-1 
REM R1 =  0.0738 for    3624 Fo > 4sig(Fo)  and  0.1111 for all    5517 data 
REM    374 parameters refined using      0 restraints 
  
END 
  
WGHT      0.1093      0.3575 
  
REM Instructions for potential hydrogen bonds 
HTAB C26 O1 
  
REM Highest difference peak  0.462,  deepest hole -0.326,  1-sigma level  0.064 
Q1    1   0.4410  0.9965  0.1741  11.00000  0.05    0.46 
Q2    1   0.2578  0.9787  0.1337  11.00000  0.05    0.39 
Q3    1   0.8776  1.6251  0.5661  11.00000  0.05    0.37 
Q4    1   0.8011  1.6176  0.4870  11.00000  0.05    0.35 
Q5    1   0.3937  1.0184  0.2438  11.00000  0.05    0.35 
Q6    1   0.1934  1.0433  0.1487  11.00000  0.05    0.33 
Q7    1   0.4413  0.9858  0.2914  11.00000  0.05    0.32 
Q8    1   0.3122  0.3191  0.1381  11.00000  0.05    0.32 
Q9    1   0.4171  0.5141  0.1419  11.00000  0.05    0.29 
Q10   1   0.2997  0.3390  0.0583  11.00000  0.05    0.29 
Q11   1   0.5396  1.0369  0.1745  11.00000  0.05    0.28 
Q12   1   0.2997  1.0486  0.2046  11.00000  0.05    0.26 
Q13   1   0.5235  0.9845  0.3789  11.00000  0.05    0.26 
Q14   1   0.5592  1.0238  0.2990  11.00000  0.05    0.25 
Q15   1   0.4066  1.0481  0.1299  11.00000  0.05    0.23 
Q16   1   0.2071  0.8153  0.0339  11.00000  0.05    0.22 
Q17   1   0.2077  1.0535  0.2579  11.00000  0.05    0.22 
Q18   1   0.3655  1.0119  0.3053  11.00000  0.05    0.22 
Q19   1   0.1750  0.8794  0.4661  11.00000  0.05    0.21 
Q20   1   0.2747  1.0553  0.4888  11.00000  0.05    0.21 
;
_shelx_res_checksum              73916
_shelx_hkl_file
; 
   3   0   0    8.71    0.46 
   3   0   0   10.27    0.53 
   4   0   0   26.80    1.14 
   4   0   0   24.37    1.09 
   5   0   0    4.19    0.38 
   5   0   0    4.09    0.38 
  -6   0   0    0.08    0.05 
   6   0   0   -0.10    0.17 
   6   0   0   -0.25    0.21 
  -7   0   0    0.03    0.07 
   7   0   0   -0.08    0.23 
   7   0   0   -0.05    0.21 
  -8   0   0   16.88    0.70 
   8   0   0   16.80    0.96 
   8   0   0   15.64    0.90 
  -9   0   0    7.85    0.44 
   9   0   0    7.59    0.67 
  10   0   0    0.20    0.31 
  10   0   0    0.00    0.11 
  11   0   0    0.21    0.31 
  12   0   0   -0.01    0.30 
  13   0   0    1.91    0.47 
  14  -1   0    0.59    0.32 
  13  -1   0    1.76    0.48 
  12  -1   0    0.09    0.29 
  11  -1   0    0.16    0.33 
  10  -1   0    3.89    0.56 
   9  -1   0    1.54    0.47 
   9  -1   0    0.28    0.26 
  -9   1   0    1.09    0.18 
   8  -1   0    4.71    0.44 
   8  -1   0    5.45    0.58 
  -8   1   0    5.62    0.31 
   7  -1   0    0.65    0.25 
   7  -1   0    0.40    0.31 
  -7   1   0    0.45    0.12 
   6  -1   0    4.87    0.34 
   6  -1   0    4.36    0.46 
  -6   1   0    4.44    0.24 
   5  -1   0    3.50    0.27 
   5  -1   0    3.64    0.38 
  -5   1   0    3.47    0.19 
   4  -1   0   27.92    1.22 
  -4   1   0   27.46    0.94 
   3  -1   0    5.07    0.41 
   2  -1   0    1.58    0.17 
   2  -1   0    1.46    0.07 
   1  -1   0   73.29    2.79 
   1  -1   0   72.56    2.40 
   0  -1   0  280.62    9.06 
  -1  -1   0    1.16    0.10 
   1   1   0    1.15    0.14 
   1   1   0    1.26    0.14 
  -2  -1   0    2.93    0.18 
   2   1   0    3.07    0.28 
   2   1   0    2.44    0.26 
  -3  -1   0   19.75    0.73 
   3   1   0   18.87    0.89 
   3   1   0   21.33    0.90 
  -4  -1   0    7.43    0.34 
   4   1   0    7.15    0.44 
   4   1   0    6.33    0.43 
  -5  -1   0    0.13    0.11 
   5   1   0   -0.12    0.17 
   5   1   0    0.21    0.19 
  -6  -1   0    1.78    0.21 
   6   1   0    1.39    0.31 
   6   1   0    1.49    0.30 
  -7  -1   0    7.60    0.42 
   7   1   0    7.00    0.56 
   7   1   0    7.96    0.64 
  -8  -1   0    4.00    0.32 
   8   1   0    4.32    0.53 
   8   1   0    4.31    0.56 
  -9  -1   0    2.29    0.27 
   9   1   0    3.33    0.48 
   9   1   0    3.52    0.50 
  10   1   0    0.42    0.32 
  11   1   0    0.78    0.37 
  12   1   0    0.37    0.30 
  13   1   0    2.33    0.46 
  14  -2   0    0.08    0.33 
  13  -2   0    0.66    0.41 
  12  -2   0    0.18    0.33 
  11  -2   0    0.03    0.34 
   9  -2   0    0.91    0.31 
   9  -2   0    0.99    0.45 
   8  -2   0    2.29    0.35 
   8  -2   0    2.14    0.48 
  -8   2   0    1.35    0.17 
   7  -2   0   -0.11    0.29 
   7  -2   0   -0.01    0.17 
  -7   2   0    0.08    0.08 
   6  -2   0    0.40    0.29 
  -6   2   0    0.36    0.08 
   5  -2   0   13.75    0.73 
  -5   2   0   13.12    0.48 
   4  -2   0    2.12    0.30 
   4  -2   0    1.81    0.11 
   3  -2   0    3.46    0.35 
   3  -2   0    3.59    0.15 
   2  -2   0    0.06    0.11 
   2  -2   0    0.09    0.05 
   1  -2   0   12.69    0.46 
   1  -2   0   11.94    0.54 
   0  -2   0  336.47   10.81 
  -1  -2   0   29.88    1.07 
   1   2   0   31.20    1.30 
  -2  -2   0    3.87    0.24 
   2   2   0    3.77    0.32 
   2   2   0    3.86    0.29 
  -3  -2   0   26.72    0.96 
   3   2   0   24.44    1.17 
   3   2   0   26.84    1.14 
  -4  -2   0   14.55    0.63 
   4   2   0   15.85    0.81 
   4   2   0   15.14    0.76 
  -5  -2   0   18.47    0.77 
   5   2   0   18.82    0.93 
   5   2   0   18.95    0.97 
  -6  -2   0    3.82    0.30 
   6   2   0    3.97    0.43 
   6   2   0    4.27    0.50 
  -7  -2   0    2.51    0.29 
   7   2   0    2.70    0.40 
   7   2   0    2.24    0.43 
  -8  -2   0    0.43    0.20 
   8   2   0    0.55    0.30 
   8   2   0    0.50    0.34 
  -9  -2   0    0.67    0.21 
   9   2   0    0.47    0.31 
   9   2   0    0.88    0.34 
  10   2   0    1.22    0.36 
  11   2   0    1.11    0.37 
  12   2   0    0.80    0.34 
  14  -3   0    1.46    0.49 
  13  -3   0    1.06    0.44 
  12  -3   0    2.55    0.56 
  11  -3   0    0.19    0.39 
  10  -3   0    6.74    0.54 
  10  -3   0    9.05    0.77 
   9  -3   0    0.36    0.43 
   9  -3   0    1.05    0.32 
   8  -3   0   -0.17    0.34 
  -8   3   0    0.23    0.09 
   7  -3   0    0.84    0.34 
  -7   3   0    0.71    0.11 
   6  -3   0    1.49    0.10 
   6  -3   0    1.98    0.36 
   5  -3   0    0.22    0.05 
   5  -3   0    0.11    0.22 
   4  -3   0   15.59    0.78 
   4  -3   0   16.05    0.56 
   3  -3   0    6.42    0.39 
   3  -3   0    5.58    0.25 
   2  -3   0    7.11    0.32 
   2  -3   0    7.53    0.42 
   1  -3   0    3.34    0.24 
   0  -3   0  128.06    4.20 
  -1  -3   0   31.33    1.14 
  -2  -3   0   16.12    0.67 
   2   3   0   16.64    0.77 
   2   3   0   16.40    0.83 
  -3  -3   0   37.76    1.35 
   3   3   0   38.62    1.58 
   3   3   0   33.68    1.61 
  -4  -3   0   16.72    0.70 
   4   3   0   15.88    0.87 
   4   3   0   15.73    0.81 
  -5  -3   0   14.58    0.66 
   5   3   0   13.21    0.83 
   5   3   0   14.58    0.78 
  -6  -3   0    7.95    0.46 
   6   3   0    6.59    0.59 
   6   3   0    6.55    0.52 
  -7  -3   0    1.54    0.26 
   7   3   0    0.94    0.39 
   7   3   0    1.04    0.32 
  -8  -3   0    0.45    0.18 
   8   3   0    0.27    0.25 
   8   3   0    0.18    0.30 
  -9  -3   0    0.22    0.19 
   9   3   0    0.21    0.25 
   9   3   0    1.02    0.28 
  10   3   0    0.63    0.34 
  11   3   0    1.13    0.36 
  12   3   0    0.84    0.31 
  14  -4   0    0.43    0.43 
  13  -4   0    0.96    0.46 
  12  -4   0    0.67    0.42 
  11  -4   0   -0.12    0.20 
  11  -4   0    0.13    0.40 
  10  -4   0    2.07    0.37 
  10  -4   0    1.31    0.50 
   9  -4   0    1.05    0.47 
   8  -4   0    0.12    0.36 
   7  -4   0    0.14    0.04 
   7  -4   0    0.12    0.31 
   6  -4   0    4.18    0.45 
   6  -4   0    3.65    0.18 
   5  -4   0   45.44    1.97 
   5  -4   0   48.04    1.56 
   4  -4   0   45.76    1.90 
   4  -4   0   46.39    1.55 
   3  -4   0    2.10    0.17 
   3  -4   0    2.78    0.28 
   2  -4   0    2.74    0.28 
   2  -4   0    2.06    0.19 
   1  -4   0    4.51    0.29 
   0  -4   0   96.72    3.24 
  -1  -4   0  163.62    5.39 
  -2  -4   0    3.44    0.28 
  -3  -4   0   97.89    3.37 
   3   4   0  100.58    4.05 
  -4  -4   0   -0.04    0.15 
   4   4   0    0.02    0.16 
   4   4   0    0.09    0.21 
  -5  -4   0    0.54    0.20 
   5   4   0    0.09    0.18 
   5   4   0    0.05    0.26 
  -6  -4   0    0.48    0.21 
   6   4   0    0.35    0.23 
   6   4   0    0.42    0.31 
  -7  -4   0    0.33    0.19 
   7   4   0    0.29    0.29 
   7   4   0    0.42    0.27 
  -8  -4   0   -0.09    0.17 
   8   4   0    0.06    0.21 
   8   4   0    0.42    0.28 
  -9  -4   0    0.11    0.15 
   9   4   0    0.18    0.23 
  10   4   0    1.04    0.32 
  11   4   0    0.76    0.28 
  15  -5   0    1.17    0.50 
  14  -5   0    0.54    0.45 
  13  -5   0    1.26    0.50 
  12  -5   0    0.38    0.46 
  11  -5   0    1.91    0.54 
  10  -5   0    4.45    0.66 
   9  -5   0    2.60    0.55 
   8  -5   0   -0.05    0.38 
   7  -5   0   12.44    0.81 
   7  -5   0   12.45    0.47 
   6  -5   0    2.23    0.15 
   6  -5   0    2.90    0.40 
   5  -5   0   48.30    2.04 
   5  -5   0   48.44    1.64 
   4  -5   0    2.73    0.30 
   4  -5   0    2.31    0.18 
   3  -5   0    2.07    0.20 
   3  -5   0    2.08    0.27 
   2  -5   0    2.15    0.23 
   2  -5   0    2.46    0.29 
   1  -5   0   25.43    0.99 
   0  -5   0   24.01    0.96 
  -1  -5   0    4.86    0.35 
  -2  -5   0   24.37    1.01 
  -3  -5   0   22.72    0.97 
  -4  -5   0    0.94    0.25 
  -5  -5   0    6.31    0.46 
   5   5   0    6.36    0.52 
  -6  -5   0    2.55    0.35 
   6   5   0    2.36    0.38 
  -7  -5   0    4.46    0.39 
   7   5   0    4.33    0.50 
  -8  -5   0    3.48    0.40 
   8   5   0    4.12    0.51 
  -9  -5   0    1.25    0.28 
   9   5   0    1.85    0.38 
  10   5   0    0.19    0.24 
  15  -6   0    1.23    0.50 
  14  -6   0    1.10    0.50 
  13  -6   0    0.35    0.46 
  12  -6   0   -0.19    0.40 
  11  -6   0    0.19    0.42 
  10  -6   0   -0.15    0.40 
   9  -6   0    0.61    0.44 
   8  -6   0    1.12    0.44 
   7  -6   0    9.90    0.41 
   7  -6   0    9.69    0.72 
   6  -6   0    1.76    0.16 
   6  -6   0    2.30    0.39 
   5  -6   0   15.37    0.62 
   5  -6   0   16.47    0.85 
   4  -6   0    4.03    0.27 
   4  -6   0    4.37    0.39 
   3  -6   0    5.86    0.45 
   3  -6   0    5.96    0.36 
   2  -6   0    9.33    0.52 
   2  -6   0   10.00    0.59 
   1  -6   0   40.96    1.52 
   0  -6   0    8.41    0.49 
  -1  -6   0    1.59    0.27 
  -2  -6   0    4.54    0.37 
  -3  -6   0   20.25    0.92 
  -4  -6   0    2.06    0.33 
  -5  -6   0   13.45    0.73 
  -6  -6   0    8.62    0.56 
  -7  -6   0    6.73    0.52 
  -8  -6   0    0.23    0.18 
  -9  -6   0    0.87    0.24 
  15  -7   0    0.97    0.52 
  14  -7   0    1.11    0.55 
  13  -7   0   -0.12    0.44 
  12  -7   0    0.44    0.50 
  11  -7   0   -0.01    0.42 
  10  -7   0    0.50    0.42 
   9  -7   0    0.07    0.41 
   8  -7   0    1.06    0.45 
   7  -7   0    1.96    0.47 
   7  -7   0    1.99    0.20 
   6  -7   0    0.35    0.11 
   6  -7   0    0.61    0.33 
   5  -7   0   13.01    0.75 
   5  -7   0   12.25    0.56 
   4  -7   0    0.53    0.25 
   4  -7   0    0.57    0.16 
   3  -7   0    0.15    0.22 
   3  -7   0    0.01    0.14 
   2  -7   0    2.94    0.33 
   2  -7   0    2.82    0.36 
   1  -7   0   30.35    1.23 
   0  -7   0    0.21    0.19 
  -1  -7   0   -0.02    0.18 
  -2  -7   0    8.95    0.58 
  -3  -7   0    4.16    0.45 
  -4  -7   0    4.91    0.45 
  -5  -7   0    0.71    0.27 
  -6  -7   0    0.29    0.24 
  -7  -7   0    2.18    0.36 
  -8  -7   0    0.40    0.18 
  -9  -7   0    0.54    0.17 
  15  -8   0    0.98    0.51 
  14  -8   0    0.36    0.49 
  13  -8   0    0.48    0.51 
  12  -8   0    0.45    0.45 
  11  -8   0    0.20    0.42 
  10  -8   0    2.45    0.57 
   9  -8   0    0.68    0.50 
   8  -8   0   -0.02    0.44 
   7  -8   0    0.12    0.34 
   7  -8   0    0.00    0.10 
   6  -8   0    1.45    0.41 
   6  -8   0    1.51    0.21 
   5  -8   0    6.29    0.40 
   5  -8   0    6.51    0.55 
   4  -8   0    5.10    0.49 
   4  -8   0    4.57    0.36 
   3  -8   0    5.34    0.42 
   3  -8   0    5.90    0.52 
   2  -8   0   -0.08    0.16 
   2  -8   0    0.15    0.26 
   1  -8   0    1.53    0.29 
   0  -8   0    1.68    0.32 
  -1  -8   0    1.71    0.34 
  -2  -8   0    0.84    0.28 
  -3  -8   0   -0.02    0.20 
  -4  -8   0    0.27    0.22 
  -5  -8   0    0.89    0.31 
  -6  -8   0    1.86    0.36 
  -7  -8   0    0.75    0.20 
  -8  -8   0    0.67    0.17 
  14  -9   0    0.85    0.58 
  13  -9   0    0.84    0.43 
  12  -9   0    0.70    0.48 
  11  -9   0    0.88    0.52 
  10  -9   0    6.08    0.78 
   9  -9   0    5.68    0.73 
   8  -9   0    2.80    0.58 
   7  -9   0    1.60    0.23 
   7  -9   0    1.46    0.48 
   6  -9   0    3.38    0.31 
   6  -9   0    4.53    0.54 
   5  -9   0    3.51    0.35 
   5  -9   0    3.89    0.52 
   4  -9   0    6.36    0.58 
   4  -9   0    6.45    0.46 
   3  -9   0    0.02    0.29 
   3  -9   0    0.73    0.24 
   2  -9   0    6.50    0.60 
   2  -9   0    7.85    0.55 
   1  -9   0    1.43    0.33 
   0  -9   0   10.44    0.67 
  -1  -9   0    3.11    0.42 
  -2  -9   0    4.36    0.48 
  -3  -9   0    0.78    0.27 
  -4  -9   0    0.22    0.23 
  -5  -9   0    1.04    0.30 
  -6  -9   0    1.21    0.25 
  -7  -9   0    0.73    0.19 
  14 -10   0    0.05    0.35 
  13 -10   0    0.13    0.41 
  12 -10   0    0.14    0.44 
  11 -10   0    1.12    0.54 
  10 -10   0    2.44    0.61 
   9 -10   0   -0.07    0.43 
   8 -10   0    6.06    0.71 
   7 -10   0    0.25    0.14 
   7 -10   0    0.19    0.39 
   6 -10   0    1.73    0.29 
   6 -10   0    2.26    0.49 
   5 -10   0    0.45    0.21 
   5 -10   0    0.41    0.37 
   4 -10   0    3.82    0.55 
   4 -10   0    4.61    0.45 
   3 -10   0    0.22    0.33 
   3 -10   0    0.58    0.26 
   2 -10   0    1.36    0.40 
   2 -10   0    1.30    0.32 
   1 -10   0    1.76    0.36 
   0 -10   0    4.23    0.50 
  -1 -10   0    2.70    0.43 
  -2 -10   0   12.04    0.76 
  -3 -10   0    1.83    0.36 
  -4 -10   0    0.19    0.19 
  -5 -10   0    1.84    0.34 
  -6 -10   0    0.90    0.23 
  14 -11   0    0.69    0.36 
  13 -11   0    0.48    0.43 
  12 -11   0    0.07    0.43 
  11 -11   0    0.29    0.54 
  10 -11   0    0.85    0.50 
   9 -11   0   -0.31    0.41 
   8 -11   0    1.56    0.50 
   7 -11   0    0.20    0.39 
   7 -11   0   -0.10    0.13 
   6 -11   0    8.30    0.54 
   6 -11   0    8.03    0.70 
   5 -11   0   10.38    0.64 
   5 -11   0    9.68    0.77 
   4 -11   0    7.93    0.70 
   4 -11   0    9.53    0.62 
   3 -11   0    0.65    0.27 
   3 -11   0    0.44    0.36 
   2 -11   0    2.62    0.42 
   2 -11   0    2.04    0.45 
   1 -11   0    0.19    0.24 
   0 -11   0   -0.05    0.22 
  -1 -11   0    0.29    0.26 
  -2 -11   0    6.73    0.60 
  -3 -11   0    3.53    0.47 
  -4 -11   0    1.17    0.27 
  -5 -11   0    0.99    0.22 
  13 -12   0    0.23    0.50 
  12 -12   0    0.92    0.48 
  11 -12   0   -0.25    0.46 
  10 -12   0   -0.14    0.45 
   9 -12   0   -0.27    0.41 
   8 -12   0    3.81    0.65 
   7 -12   0   -0.20    0.37 
   6 -12   0    0.60    0.24 
   6 -12   0    0.23    0.33 
   5 -12   0    1.40    0.32 
   5 -12   0    0.79    0.41 
   4 -12   0    3.10    0.42 
   4 -12   0    2.36    0.49 
   3 -12   0    0.34    0.36 
   3 -12   0    0.65    0.29 
   2 -12   0    0.58    0.36 
   2 -12   0    0.11    0.23 
   1 -12   0    0.26    0.32 
   1 -12   0    0.43    0.27 
   0 -12   0    0.12    0.26 
  -1 -12   0    0.91    0.34 
  -2 -12   0    2.84    0.49 
  -3 -12   0    0.55    0.19 
  12 -13   0    0.25    0.46 
  11 -13   0   -0.12    0.37 
  10 -13   0    0.21    0.45 
   9 -13   0    0.33    0.47 
   8 -13   0    0.97    0.50 
   7 -13   0    0.93    0.44 
   6 -13   0   -0.26    0.31 
   6 -13   0    0.37    0.22 
   5 -13   0   -0.09    0.19 
   5 -13   0    0.13    0.35 
   4 -13   0    0.37    0.23 
   4 -13   0    0.43    0.36 
   3 -13   0    0.03    0.31 
   3 -13   0    0.11    0.23 
   2 -13   0    1.39    0.37 
   2 -13   0    0.98    0.40 
   1 -13   0    0.98    0.35 
   0 -13   0    0.17    0.27 
  -1 -13   0    2.10    0.41 
  -2 -13   0    0.68    0.27 
  11 -14   0    0.14    0.40 
  10 -14   0    0.42    0.44 
   9 -14   0    0.28    0.38 
   8 -14   0    1.27    0.48 
   7 -14   0    1.29    0.43 
   6 -14   0    0.30    0.21 
   6 -14   0    0.02    0.30 
   5 -14   0    0.06    0.34 
   5 -14   0    0.32    0.23 
   4 -14   0   -0.07    0.28 
   4 -14   0   -0.19    0.23 
   3 -14   0    0.62    0.30 
   3 -14   0    0.15    0.25 
   2 -14   0   -0.23    0.21 
   1 -14   0    0.72    0.32 
   0 -14   0    2.09    0.44 
   9 -15   0    0.66    0.37 
   8 -15   0    0.82    0.41 
   7 -15   0    0.24    0.32 
   6 -15   0    2.01    0.42 
   5 -15   0    1.46    0.40 
   5 -15   0    1.79    0.36 
   4 -15   0    0.89    0.30 
   3 -15   0   -0.18    0.19 
   2 -15   1    1.22    0.35 
   3 -15   1    3.85    0.54 
   4 -15   1    0.12    0.23 
   5 -15   1    0.90    0.30 
   6 -15   1    0.31    0.25 
   6 -15   1    0.27    0.32 
   7 -15   1   -0.12    0.34 
   8 -15   1    0.48    0.38 
   9 -15   1    0.13    0.40 
  10 -15   1    0.68    0.40 
  -1 -14   1    0.14    0.24 
   0 -14   1    1.10    0.34 
   1 -14   1    0.55    0.33 
   2 -14   1    0.90    0.33 
   3 -14   1    0.67    0.29 
   4 -14   1    1.07    0.32 
   4 -14   1    1.10    0.37 
   5 -14   1    0.79    0.26 
   5 -14   1    0.22    0.34 
   6 -14   1    0.67    0.27 
   6 -14   1    0.25    0.34 
   7 -14   1   -0.38    0.35 
   8 -14   1    0.30    0.40 
   9 -14   1    0.09    0.46 
  10 -14   1    0.65    0.47 
  11 -14   1    0.36    0.48 
  -2 -13   1    1.41    0.35 
  -1 -13   1    1.98    0.44 
   0 -13   1    2.12    0.45 
   1 -13   1    0.17    0.25 
   2 -13   1   -0.05    0.21 
   3 -13   1    1.57    0.43 
   3 -13   1    1.66    0.38 
   4 -13   1    0.37    0.35 
   4 -13   1    0.70    0.29 
   5 -13   1    0.56    0.25 
   5 -13   1    0.02    0.32 
   6 -13   1    0.52    0.24 
   6 -13   1    0.35    0.37 
   7 -13   1   -0.17    0.39 
   8 -13   1    0.59    0.47 
   9 -13   1   -0.26    0.38 
  10 -13   1   -0.25    0.40 
  11 -13   1   -0.07    0.51 
  12 -13   1   -0.15    0.41 
  13 -13   1    1.26    0.43 
  -4 -12   1    2.20    0.35 
  -3 -12   1    0.49    0.19 
  -2 -12   1    0.34    0.27 
  -1 -12   1    0.26    0.29 
   0 -12   1    3.42    0.49 
   1 -12   1    0.76    0.36 
   1 -12   1    0.17    0.25 
   2 -12   1    0.20    0.32 
   2 -12   1    0.12    0.22 
   3 -12   1    3.76    0.54 
   3 -12   1    3.83    0.46 
   4 -12   1    3.55    0.54 
   4 -12   1    4.93    0.51 
   5 -12   1   -0.15    0.30 
   5 -12   1    0.35    0.24 
   6 -12   1    0.98    0.26 
   6 -12   1    0.60    0.39 
   7 -12   1    2.69    0.56 
   7 -12   1    2.89    0.36 
   8 -12   1    0.76    0.47 
   9 -12   1   -0.51    0.38 
  10 -12   1    0.47    0.48 
  11 -12   1   -0.06    0.46 
  12 -12   1    0.97    0.49 
  13 -12   1    0.69    0.42 
  -5 -11   1    1.44    0.28 
  -4 -11   1    1.62    0.31 
  -3 -11   1    0.88    0.27 
  -2 -11   1    0.98    0.31 
  -1 -11   1    1.44    0.38 
   0 -11   1    0.35    0.27 
   1 -11   1    1.78    0.41 
   1 -11   1    1.30    0.34 
   2 -11   1    0.32    0.33 
   2 -11   1    0.87    0.30 
   3 -11   1    9.66    0.64 
   3 -11   1    9.79    0.74 
   4 -11   1    5.70    0.58 
   4 -11   1    5.87    0.50 
   5 -11   1    1.35    0.39 
   5 -11   1    0.78    0.26 
   6 -11   1   11.15    0.63 
   6 -11   1   10.30    0.80 
   7 -11   1    0.16    0.16 
   7 -11   1   -0.16    0.38 
   8 -11   1    4.19    0.65 
   9 -11   1   -0.17    0.42 
  10 -11   1    0.88    0.56 
  11 -11   1    0.00    0.44 
  12 -11   1    0.19    0.44 
  13 -11   1    0.19    0.37 
  14 -11   1    0.66    0.36 
  -6 -10   1    0.60    0.20 
  -5 -10   1    1.20    0.28 
  -4 -10   1    1.72    0.37 
  -3 -10   1    2.23    0.40 
  -2 -10   1    2.14    0.39 
  -1 -10   1    0.74    0.29 
   0 -10   1   -0.12    0.21 
   1 -10   1    0.12    0.23 
   2 -10   1    3.95    0.46 
   2 -10   1    3.50    0.50 
   3 -10   1    2.13    0.42 
   3 -10   1    1.97    0.33 
   4 -10   1    5.16    0.45 
   4 -10   1    4.88    0.57 
   5 -10   1   28.93    1.21 
   6 -10   1    5.76    0.41 
   6 -10   1    6.76    0.67 
   7 -10   1    0.53    0.39 
   7 -10   1    0.46    0.17 
   8 -10   1    0.17    0.42 
   9 -10   1   -0.03    0.42 
  10 -10   1    0.15    0.46 
  11 -10   1    0.47    0.46 
  12 -10   1    0.18    0.45 
  13 -10   1    0.27    0.39 
  14 -10   1    0.76    0.33 
  -7  -9   1    0.54    0.17 
  -6  -9   1    0.72    0.25 
  -5  -9   1    5.06    0.56 
  -4  -9   1    1.81    0.39 
  -3  -9   1    5.42    0.55 
  -2  -9   1   16.88    0.91 
  -1  -9   1   10.15    0.68 
   0  -9   1    1.39    0.33 
   1  -9   1    2.99    0.40 
   2  -9   1    0.46    0.24 
   2  -9   1    0.05    0.28 
   3  -9   1   17.75    0.99 
   3  -9   1   18.26    0.85 
   4  -9   1    3.89    0.38 
   4  -9   1    3.60    0.47 
   5  -9   1    0.50    0.32 
   5  -9   1    0.57    0.18 
   6  -9   1   26.27    1.12 
   6  -9   1   31.23    1.44 
   7  -9   1    3.59    0.33 
   7  -9   1    3.40    0.57 
   8  -9   1    3.39    0.59 
   9  -9   1   -0.31    0.43 
  10  -9   1    0.03    0.41 
  11  -9   1    1.85    0.56 
  12  -9   1    0.09    0.41 
  13  -9   1    0.90    0.43 
  14  -9   1    0.13    0.29 
  -8  -8   1    0.36    0.20 
  -7  -8   1    1.57    0.35 
  -6  -8   1   -0.02    0.20 
  -5  -8   1    5.23    0.52 
  -4  -8   1    0.32    0.24 
  -3  -8   1    0.49    0.25 
  -2  -8   1    3.68    0.44 
  -1  -8   1    4.08    0.45 
   0  -8   1   -0.08    0.18 
   1  -8   1    6.76    0.49 
   2  -8   1    1.95    0.35 
   2  -8   1    1.51    0.27 
   3  -8   1   21.24    0.89 
   3  -8   1   19.52    1.03 
   4  -8   1    0.00    0.25 
   4  -8   1    0.01    0.13 
   5  -8   1    8.71    0.46 
   5  -8   1    8.28    0.62 
   6  -8   1   21.95    1.14 
   6  -8   1   21.30    0.88 
   7  -8   1    4.05    0.58 
   7  -8   1    3.36    0.26 
   8  -8   1   -0.34    0.43 
   9  -8   1    0.20    0.45 
  10  -8   1    1.84    0.52 
  11  -8   1    2.64    0.58 
  12  -8   1    0.12    0.41 
  13  -8   1    0.11    0.36 
  14  -8   1    0.39    0.47 
  15  -8   1    1.04    0.51 
  -9  -7   1   -0.05    0.16 
  -8  -7   1    1.12    0.26 
  -7  -7   1    5.31    0.47 
  -6  -7   1    0.93    0.28 
  -5  -7   1    0.16    0.23 
  -4  -7   1    2.60    0.38 
  -3  -7   1    0.36    0.23 
  -2  -7   1   13.03    0.71 
  -1  -7   1   -0.10    0.16 
   0  -7   1    0.94    0.24 
   1  -7   1    0.12    0.16 
   2  -7   1   -0.18    0.18 
   2  -7   1    0.00    0.12 
   3  -7   1    2.20    0.25 
   3  -7   1    2.32    0.32 
   4  -7   1    3.89    0.28 
   4  -7   1    4.15    0.38 
   5  -7   1    7.45    0.55 
   5  -7   1    7.49    0.39 
   6  -7   1   27.70    1.04 
   6  -7   1   27.90    1.34 
   7  -7   1    3.37    0.23 
   7  -7   1    4.39    0.56 
   8  -7   1    0.09    0.07 
   8  -7   1    0.04    0.39 
   9  -7   1   -0.07    0.41 
  10  -7   1    0.91    0.46 
  11  -7   1    3.62    0.65 
  12  -7   1    0.42    0.45 
  13  -7   1    0.59    0.45 
  14  -7   1    1.08    0.50 
  15  -7   1    0.05    0.40 
  -9  -6   1    1.27    0.28 
  -8  -6   1    0.89    0.24 
  -7  -6   1    2.55    0.37 
   6   6  -1    4.67    0.63 
  -6  -6   1    4.50    0.41 
  -5  -6   1   10.06    0.61 
  -4  -6   1    8.80    0.56 
  -3  -6   1    2.47    0.33 
  -2  -6   1    2.46    0.32 
  -1  -6   1   30.45    1.22 
   0  -6   1   25.73    1.06 
   1  -6   1  105.93    3.59 
   2  -6   1   11.58    0.55 
   2  -6   1   10.81    0.61 
   3  -6   1    6.87    0.38 
   3  -6   1    6.99    0.46 
   4  -6   1    0.24    0.09 
   4  -6   1    0.42    0.20 
   5  -6   1   10.92    0.67 
   5  -6   1   11.23    0.49 
   6  -6   1   23.90    1.17 
   6  -6   1   22.85    0.86 
   7  -6   1    0.51    0.10 
   7  -6   1    0.14    0.34 
   8  -6   1    3.60    0.21 
   8  -6   1    3.42    0.55 
   9  -6   1    1.78    0.51 
  10  -6   1   -0.17    0.40 
  11  -6   1    1.31    0.49 
  12  -6   1    0.14    0.42 
  13  -6   1    0.54    0.46 
  14  -6   1    0.63    0.46 
  15  -6   1    1.13    0.49 
   9   5  -1    1.53    0.33 
   9   5  -1    3.19    0.46 
  -9  -5   1    1.53    0.30 
   8   5  -1    0.60    0.28 
   8   5  -1    1.31    0.39 
  -8  -5   1    0.24    0.21 
   7   5  -1    0.00    0.20 
   7   5  -1   -0.16    0.23 
  -7  -5   1    0.30    0.19 
   6   5  -1    8.25    0.70 
   6   5  -1    7.43    0.56 
  -6  -5   1    7.94    0.53 
   5   5  -1   27.62    1.44 
   5   5  -1   26.01    1.27 
  -5  -5   1   26.73    1.13 
   4   5  -1    9.04    0.70 
  -4  -5   1    9.28    0.55 
   3   5  -1    5.11    0.50 
  -3  -5   1    5.16    0.39 
  -2  -5   1    1.08    0.22 
  -1  -5   1    3.21    0.29 
   0  -5   1    1.92    0.24 
   1  -5   1    0.17    0.12 
   2  -5   1    5.91    0.33 
   2  -5   1    6.42    0.40 
   3  -5   1   14.85    0.70 
   3  -5   1   14.71    0.60 
   4  -5   1   23.19    0.87 
   4  -5   1   24.64    1.09 
   5  -5   1    6.63    0.32 
   5  -5   1    6.95    0.52 
   6  -5   1   -0.07    0.26 
   6  -5   1    0.00    0.06 
   7  -5   1    0.80    0.36 
   7  -5   1    0.80    0.11 
   8  -5   1    2.55    0.17 
   8  -5   1    2.05    0.48 
   9  -5   1    0.41    0.45 
  10  -5   1    1.41    0.50 
  11  -5   1    2.84    0.57 
  12  -5   1    0.56    0.43 
  13  -5   1    0.32    0.45 
  14  -5   1    0.74    0.43 
  11   4  -1    1.23    0.34 
  10   4  -1    0.68    0.27 
   9   4  -1    4.07    0.58 
   9   4  -1    2.82    0.44 
  -9  -4   1    3.88    0.40 
   8   4  -1    0.60    0.27 
   8   4  -1    0.65    0.34 
  -8  -4   1    0.50    0.20 
   7   4  -1    0.03    0.22 
   7   4  -1    0.13    0.32 
  -7  -4   1   -0.04    0.17 
   6   4  -1    2.64    0.36 
   6   4  -1    2.22    0.50 
  -6  -4   1    2.78    0.33 
   5   4  -1    7.54    0.64 
   5   4  -1    8.38    0.55 
  -5  -4   1    8.31    0.49 
   4   4  -1    4.73    0.37 
   4   4  -1    4.36    0.47 
  -4  -4   1    4.42    0.33 
   3   4  -1    0.50    0.16 
   3   4  -1    0.56    0.25 
  -3  -4   1    0.38    0.16 
   2   4  -1    9.02    0.60 
  -2  -4   1    9.34    0.48 
  -1  -4   1   70.05    2.40 
   0  -4   1   39.09    1.41 
   1  -4   1   25.96    0.94 
   1  -4   1   24.41    1.06 
   2  -4   1    0.35    0.10 
   2  -4   1    0.53    0.16 
   3  -4   1   12.10    0.48 
   3  -4   1   11.91    0.60 
   4  -4   1   11.60    0.65 
   4  -4   1   12.74    0.49 
   5  -4   1   39.78    1.76 
   5  -4   1   42.47    1.40 
   6  -4   1   15.43    0.88 
   6  -4   1   16.64    0.60 
   7  -4   1    0.41    0.32 
   7  -4   1    0.20    0.07 
   8  -4   1    0.18    0.36 
   8  -4   1    0.63    0.10 
   9  -4   1    0.37    0.43 
  10  -4   1    0.47    0.42 
  10  -4   1    0.77    0.25 
  11  -4   1    1.76    0.50 
  12  -4   1    0.17    0.38 
  13  -4   1    0.33    0.41 
  14  -4   1    0.33    0.38 
  12   3  -1    0.59    0.29 
  11   3  -1    0.93    0.34 
  10   3  -1    2.89    0.46 
   9   3  -1    5.55    0.65 
   9   3  -1    4.58    0.49 
  -9  -3   1    4.84    0.39 
   8   3  -1    1.61    0.35 
   8   3  -1    2.03    0.46 
  -8  -3   1    1.41    0.25 
   7   3  -1    0.61    0.26 
   7   3  -1    0.58    0.37 
  -7  -3   1    1.02    0.23 
   6   3  -1    0.37    0.21 
   6   3  -1    0.43    0.34 
  -6  -3   1    0.49    0.19 
   5   3  -1    2.01    0.39 
   5   3  -1    1.64    0.27 
  -5  -3   1    1.79    0.24 
   4   3  -1    5.16    0.38 
   4   3  -1    5.85    0.49 
  -4  -3   1    4.89    0.33 
   3   3  -1    0.88    0.18 
   3   3  -1    0.94    0.27 
  -3  -3   1    0.86    0.17 
   2   3  -1    7.29    0.49 
   2   3  -1    6.27    0.38 
  -2  -3   1    7.04    0.39 
   1   3  -1   16.73    0.83 
  -1  -3   1   16.93    0.67 
   0  -3   1   60.78    2.05 
   1  -3   1   47.13    1.57 
   1  -3   1   45.54    1.82 
   2  -3   1   37.91    1.53 
   2  -3   1   38.62    1.29 
   3  -3   1   11.84    0.62 
   3  -3   1   12.07    0.46 
   4  -3   1   38.64    1.66 
   4  -3   1   40.47    1.33 
   5  -3   1   31.42    1.09 
   5  -3   1   32.20    1.42 
   6  -3   1    1.23    0.11 
   6  -3   1    1.58    0.35 
   7  -3   1    4.18    0.51 
  -8   3  -1    2.42    0.20 
   8  -3   1    2.70    0.51 
   8  -3   1    2.77    0.33 
   9  -3   1    0.36    0.24 
   9  -3   1    0.24    0.41 
  10  -3   1    1.30    0.46 
  11  -3   1    0.00    0.35 
  12  -3   1    1.13    0.45 
  13  -3   1    1.00    0.42 
  14  -3   1    0.60    0.42 
  13   2  -1    0.70    0.26 
  12   2  -1    0.80    0.31 
  11   2  -1    0.83    0.33 
  10   2  -1    5.94    0.58 
  10   2  -1    5.67    0.55 
   9   2  -1    6.09    0.60 
   9   2  -1    5.55    0.54 
  -9  -2   1    5.98    0.40 
   8   2  -1    2.25    0.49 
   8   2  -1    2.57    0.44 
  -8  -2   1    3.45    0.33 
   7   2  -1    0.08    0.23 
   7   2  -1    0.38    0.32 
  -7  -2   1    0.02    0.14 
   6   2  -1    0.22    0.20 
   6   2  -1    0.16    0.27 
  -6  -2   1    0.31    0.15 
   5   2  -1    0.47    0.26 
   5   2  -1    0.23    0.18 
  -5  -2   1    0.47    0.14 
   4   2  -1    3.95    0.33 
   4   2  -1    3.45    0.38 
  -4  -2   1    4.43    0.28 
   3   2  -1    9.86    0.52 
   3   2  -1   10.65    0.61 
  -3  -2   1   10.68    0.47 
   2   2  -1   38.95    1.62 
   2   2  -1   36.66    1.54 
  -2  -2   1   39.28    1.34 
   1   2  -1   -0.04    0.16 
   1   2  -1    0.00    0.08 
  -1  -2   1    0.08    0.09 
   0   2  -1  178.09    6.89 
   0  -2   1  181.00    5.80 
   1  -2   1    9.96    0.43 
   2  -2   1  804.77   25.13 
   2  -2   1  766.08   29.58 
   3  -2   1   13.16    0.70 
   3  -2   1   13.94    0.49 
   4  -2   1    0.05    0.05 
   4  -2   1   -0.17    0.20 
   5  -2   1   59.47    2.04 
   5  -2   1   63.73    2.54 
  -6   2  -1   14.77    0.59 
   6  -2   1   16.92    0.87 
   6  -2   1   15.30    0.72 
  -7   2  -1    0.82    0.15 
   7  -2   1    0.88    0.22 
   7  -2   1    0.57    0.34 
  -8   2  -1    0.65    0.15 
   8  -2   1    0.60    0.37 
   8  -2   1    0.58    0.25 
  -9   2  -1    0.08    0.13 
   9  -2   1   -0.06    0.22 
   9  -2   1   -0.07    0.35 
  10  -2   1   -0.30    0.33 
  11  -2   1    1.89    0.48 
  12  -2   1    0.39    0.39 
  13  -2   1    1.12    0.43 
  14  -2   1    0.93    0.42 
  13   1  -1    0.62    0.28 
  12   1  -1    1.53    0.44 
  11   1  -1    0.51    0.33 
  10   1  -1   13.27    0.89 
  10   1  -1   13.53    0.91 
   9   1  -1    3.41    0.50 
   9   1  -1    2.88    0.48 
  -9  -1   1    2.85    0.26 
   8   1  -1    6.72    0.59 
   8   1  -1    7.71    0.61 
  -8  -1   1    5.90    0.38 
   7   1  -1    2.61    0.40 
   7   1  -1    2.42    0.41 
   6   1  -1    0.62    0.25 
   6   1  -1    0.44    0.24 
   5   1  -1   27.85    1.31 
   5   1  -1   30.69    1.30 
   4   1  -1   45.53    1.88 
   4   1  -1   45.05    1.86 
   3   1  -1    0.61    0.18 
   3   1  -1    0.94    0.22 
  -3  -1   1    0.64    0.11 
   2   1  -1   30.44    1.23 
   2   1  -1   28.92    1.19 
  -2  -1   1   28.57    1.01 
   1   1  -1   86.33    3.32 
   1   1  -1   93.37    3.36 
  -1  -1   1   79.83    2.81 
   0  -1   1   30.84    1.03 
   1  -1   1    2.01    0.16 
   1  -1   1    1.86    0.11 
   2  -1   1  110.70    4.21 
   2  -1   1  108.63    3.55 
   3  -1   1   78.25    3.10 
   3  -1   1   79.25    2.57 
   4  -1   1    5.23    0.41 
   4  -1   1    5.01    0.29 
  -5   1  -1    0.03    0.03 
   5  -1   1    0.09    0.13 
   5  -1   1    0.14    0.21 
   6  -1   1    4.53    0.34 
   6  -1   1    5.41    0.47 
  -7   1  -1    0.38    0.10 
   7  -1   1    0.40    0.28 
   7  -1   1    0.65    0.25 
  -8   1  -1    4.26    0.29 
   8  -1   1    4.41    0.48 
   8  -1   1    4.60    0.55 
  -9   1  -1    2.32    0.25 
   9  -1   1    2.02    0.39 
   9  -1   1    1.98    0.47 
  10  -1   1    8.88    0.74 
  11  -1   1    1.42    0.44 
  12  -1   1    0.76    0.39 
  13  -1   1    1.02    0.43 
  13   0  -1    0.40    0.34 
  12   0  -1    1.94    0.44 
  11   0  -1    0.39    0.34 
  10   0  -1    3.68    0.52 
  10   0  -1    4.98    0.59 
   9   0  -1   -0.09    0.30 
   9   0  -1   -0.03    0.33 
   8   0  -1   10.10    0.76 
   8   0  -1   12.08    0.76 
  -8   0   1   11.51    0.53 
   7   0  -1   -0.32    0.25 
   7   0  -1    0.06    0.26 
  -7   0   1    0.13    0.11 
   6   0  -1    3.26    0.33 
   6   0  -1    3.95    0.41 
  -6   0   1    3.23    0.22 
   5   0  -1    7.07    0.44 
   5   0  -1    7.14    0.49 
  -5   0   1    7.05    0.32 
   4   0  -1    4.28    0.30 
   4   0  -1    3.74    0.35 
  -4   0   1    3.87    0.21 
   3   0  -1   90.55    3.53 
   3   0  -1   93.40    3.54 
  -3   0   1   88.66    2.96 
   2   0  -1   61.26    2.31 
   2   0  -1   57.70    2.28 
  -2   0   1   57.65    1.93 
   1   0  -1   -0.31    0.09 
  -1   0   1   -0.32    0.06 
   0   0   1    0.33    0.03 
   1   0   1   75.90    2.86 
   1   0   1   72.04    2.41 
  -2   0  -1  141.66    4.48 
   2   0   1  127.97    5.30 
   2   0   1  145.96    5.31 
  -3   0  -1   17.89    0.63 
   3   0   1   18.19    0.80 
   3   0   1   15.48    0.74 
  -4   0  -1    1.15    0.14 
   4   0   1    1.24    0.23 
   4   0   1    1.03    0.19 
  -5   0  -1    0.07    0.10 
   5   0   1    0.04    0.19 
   5   0   1   -0.09    0.15 
  -6   0  -1    7.92    0.38 
   6   0   1    6.59    0.47 
   6   0   1    7.56    0.54 
  -7   0  -1    1.11    0.19 
   7   0   1    0.93    0.33 
   7   0   1    1.32    0.31 
  -8   0  -1    6.17    0.37 
   8   0   1    6.07    0.58 
   8   0   1    6.99    0.60 
  -9   0  -1    1.16    0.21 
   9   0   1    1.98    0.38 
   9   0   1    1.58    0.41 
  10   0   1    6.34    0.62 
  11   0   1    0.34    0.32 
  12   0   1    0.04    0.28 
  13   0   1    0.51    0.30 
  14  -1  -1    0.60    0.33 
  13  -1  -1    0.82    0.41 
  12  -1  -1    1.59    0.45 
  11  -1  -1   -0.04    0.26 
  11  -1  -1    0.29    0.34 
  10  -1  -1    4.19    0.61 
  10  -1  -1    3.54    0.52 
   9  -1  -1   -0.08    0.28 
   9  -1  -1    0.03    0.38 
   8  -1  -1    2.76    0.40 
   8  -1  -1    2.53    0.48 
  -8   1   1    2.62    0.21 
   7  -1  -1    5.62    0.56 
   7  -1  -1    4.81    0.40 
  -7   1   1    4.11    0.24 
   6  -1  -1    0.02    0.17 
   6  -1  -1   -0.10    0.25 
  -6   1   1    0.02    0.07 
   5  -1  -1    5.77    0.44 
  -5   1   1    5.15    0.24 
   4  -1  -1   32.83    1.40 
   3  -1  -1  112.72    4.35 
   2  -1  -1    8.56    0.41 
   1  -1  -1   11.59    0.42 
   1  -1  -1   12.47    0.53 
   0  -1  -1   69.37    2.27 
  -1  -1  -1   39.66    1.36 
   1   1   1   41.18    1.62 
  -2  -1  -1   70.31    2.32 
   2   1   1   69.40    2.75 
  -3  -1  -1    1.71    0.17 
   3   1   1    1.39    0.18 
   3   1   1    1.45    0.22 
  -4  -1  -1    1.17    0.16 
   4   1   1    1.03    0.18 
   4   1   1    1.00    0.22 
  -5  -1  -1    0.21    0.12 
   5   1   1    0.31    0.16 
   5   1   1   -0.06    0.17 
  -6  -1  -1    0.65    0.16 
   6   1   1    0.42    0.23 
   6   1   1    0.86    0.24 
  -7  -1  -1    0.02    0.13 
   7   1   1    0.00    0.24 
   7   1   1   -0.09    0.24 
  -8  -1  -1   23.62    0.98 
   8   1   1   23.58    1.23 
   8   1   1   24.13    1.25 
  -9  -1  -1   -0.01    0.16 
   9   1   1   -0.06    0.24 
  10   1   1    1.72    0.43 
  11   1   1    1.18    0.38 
  12   1   1    0.18    0.28 
  13   1   1    0.98    0.34 
  14  -2  -1    0.35    0.35 
  13  -2  -1    0.91    0.42 
  12  -2  -1    0.85    0.42 
  11  -2  -1    1.49    0.47 
  11  -2  -1    1.53    0.37 
  10  -2  -1    6.38    0.72 
  10  -2  -1    5.45    0.54 
   9  -2  -1    0.55    0.44 
   9  -2  -1    1.54    0.35 
   8  -2  -1    0.22    0.36 
   8  -2  -1    0.35    0.24 
  -8   2   1    0.00    0.08 
   7  -2  -1   43.46    1.93 
   6  -2  -1    8.71    0.61 
   5  -2  -1    4.76    0.42 
   4  -2  -1    6.62    0.45 
   3  -2  -1   62.21    2.46 
   2  -2  -1   79.31    3.10 
   2  -2  -1   80.39    2.61 
   1  -2  -1    6.21    0.27 
   0  -2  -1   85.61    2.81 
  -1  -2  -1   30.76    1.08 
  -2  -2  -1   32.58    1.18 
   2   2   1   34.23    1.41 
  -3  -2  -1   17.42    0.69 
   3   2   1   17.03    0.84 
   3   2   1   18.10    0.85 
  -4  -2  -1    0.19    0.12 
   4   2   1    0.41    0.18 
   4   2   1    0.25    0.17 
  -5  -2  -1    5.16    0.33 
   5   2   1    5.57    0.44 
  -6  -2  -1    0.22    0.17 
   6   2   1    0.24    0.10 
   6   2   1    0.10    0.21 
  -7  -2  -1    0.18    0.16 
   7   2   1    0.25    0.26 
   7   2   1    0.29    0.08 
  -8  -2  -1    9.00    0.53 
   8   2   1   10.24    0.72 
  -9  -2  -1   -0.08    0.14 
   9   2   1   -0.25    0.21 
 -10  -2  -1    0.23    0.16 
  10   2   1    0.22    0.27 
  11   2   1    0.27    0.28 
  12   2   1    0.38    0.26 
  14  -3  -1    1.25    0.47 
  13  -3  -1    0.59    0.41 
  12  -3  -1    0.50    0.41 
  11  -3  -1    0.10    0.23 
  11  -3  -1    0.53    0.41 
  10  -3  -1    6.95    0.78 
  10  -3  -1    7.44    0.58 
   9  -3  -1   11.63    0.88 
   9  -3  -1   11.85    0.73 
   8  -3  -1    4.70    0.58 
   7  -3  -1    3.73    0.47 
   6  -3  -1    4.43    0.48 
   5  -3  -1   66.95    2.72 
   4  -3  -1    2.84    0.31 
   3  -3  -1   50.31    2.04 
   3  -3  -1   50.64    1.68 
   2  -3  -1  117.25    4.48 
   2  -3  -1  113.80    3.77 
   1  -3  -1   21.49    0.79 
   0  -3  -1    6.59    0.33 
  -1  -3  -1    1.47    0.18 
  -2  -3  -1    7.10    0.37 
  -3  -3  -1    1.71    0.21 
   3   3   1    2.00    0.27 
  -4  -3  -1    0.07    0.14 
   4   3   1    0.12    0.18 
   4   3   1    0.12    0.16 
  -5  -3  -1    2.59    0.29 
   5   3   1    2.52    0.35 
   5   3   1    2.21    0.37 
  -6  -3  -1    5.59    0.38 
   6   3   1    3.97    0.43 
   6   3   1    4.27    0.45 
  -7  -3  -1    2.92    0.34 
   7   3   1    3.06    0.46 
   7   3   1    2.22    0.41 
  -8  -3  -1    4.71    0.38 
   8   3   1    4.58    0.49 
  -9  -3  -1    0.74    0.24 
   9   3   1    0.45    0.30 
 -10  -3  -1    0.43    0.17 
  10   3   1    0.33    0.25 
  11   3   1    0.35    0.32 
  12   3   1    0.53    0.29 
  15  -4  -1    1.13    0.45 
  14  -4  -1    1.03    0.45 
  13  -4  -1    0.24    0.41 
  12  -4  -1    0.30    0.23 
  12  -4  -1    0.16    0.42 
  11  -4  -1    0.34    0.44 
  11  -4  -1    0.64    0.29 
  10  -4  -1    3.98    0.64 
   9  -4  -1    4.05    0.61 
   8  -4  -1    3.05    0.50 
   7  -4  -1   20.26    1.08 
   6  -4  -1    0.95    0.32 
   5  -4  -1    0.88    0.25 
   5  -4  -1    0.54    0.08 
   4  -4  -1    5.06    0.36 
   4  -4  -1    5.01    0.24 
   3  -4  -1   32.13    1.15 
   3  -4  -1   33.43    1.41 
   2  -4  -1   57.85    1.98 
   2  -4  -1   58.58    2.36 
   1  -4  -1    2.34    0.21 
   0  -4  -1    1.08    0.18 
  -1  -4  -1   39.52    1.44 
  -2  -4  -1   45.47    1.64 
  -3  -4  -1    0.02    0.14 
  -4  -4  -1    1.25    0.23 
   4   4   1    1.26    0.27 
  -5  -4  -1    0.89    0.24 
   5   4   1    0.73    0.25 
  -6  -4  -1    4.06    0.41 
   6   4   1    3.62    0.47 
  -7  -4  -1    1.03    0.26 
   7   4   1    1.03    0.32 
  -8  -4  -1    1.60    0.30 
   8   4   1    0.86    0.30 
  -9  -4  -1    0.17    0.17 
   9   4   1   -0.05    0.20 
 -10  -4  -1    0.58    0.19 
  10   4   1    1.03    0.34 
  11   4   1    0.91    0.27 
  15  -5  -1    1.16    0.54 
  14  -5  -1    0.55    0.44 
  13  -5  -1    0.63    0.45 
  12  -5  -1    0.57    0.46 
  12  -5  -1    0.47    0.29 
  11  -5  -1    0.10    0.41 
  10  -5  -1    1.68    0.50 
   9  -5  -1    0.73    0.46 
   8  -5  -1    0.54    0.42 
   7  -5  -1    3.35    0.49 
   6  -5  -1    3.87    0.20 
   6  -5  -1    4.25    0.45 
   5  -5  -1    3.39    0.20 
   5  -5  -1    3.95    0.40 
   4  -5  -1    9.92    0.44 
   4  -5  -1   10.15    0.60 
   3  -5  -1   14.26    0.76 
   3  -5  -1   14.79    0.61 
   2  -5  -1    1.52    0.21 
   1  -5  -1   22.50    0.90 
   0  -5  -1    6.68    0.40 
  -1  -5  -1   14.44    0.67 
  -2  -5  -1    1.47    0.25 
  -3  -5  -1   17.01    0.79 
  -4  -5  -1   22.38    0.99 
  -5  -5  -1    0.39    0.23 
  -6  -5  -1    3.64    0.41 
  -7  -5  -1    0.58    0.25 
   7   5   1    0.67    0.30 
  -8  -5  -1    0.05    0.19 
   8   5   1   -0.13    0.21 
  -9  -5  -1    0.27    0.17 
   9   5   1    0.28    0.22 
 -10  -5  -1    0.83    0.18 
  10   5   1    0.32    0.26 
  15  -6  -1    0.91    0.50 
  14  -6  -1    0.67    0.47 
  13  -6  -1    1.40    0.53 
  12  -6  -1    0.55    0.47 
  11  -6  -1    1.28    0.52 
  10  -6  -1    0.01    0.41 
   9  -6  -1    3.08    0.60 
   8  -6  -1    0.92    0.44 
   7  -6  -1    7.94    0.64 
   7  -6  -1    6.78    0.31 
   6  -6  -1    0.22    0.08 
   6  -6  -1    0.18    0.26 
   5  -6  -1    9.87    0.61 
   5  -6  -1    9.90    0.45 
   4  -6  -1    0.04    0.21 
   4  -6  -1    0.34    0.12 
   3  -6  -1   96.32    3.91 
   3  -6  -1   98.34    3.29 
   2  -6  -1   48.17    1.74 
   1  -6  -1    1.14    0.22 
   0  -6  -1    0.92    0.21 
  -1  -6  -1    6.55    0.44 
  -2  -6  -1    1.36    0.28 
  -3  -6  -1   30.02    1.26 
  -4  -6  -1    2.34    0.35 
  -5  -6  -1    2.13    0.35 
  -6  -6  -1    0.72    0.26 
  -7  -6  -1    1.54    0.33 
  -8  -6  -1    0.68    0.21 
  -9  -6  -1    0.21    0.14 
 -10  -6  -1    0.50    0.13 
  15  -7  -1    0.93    0.52 
  14  -7  -1    0.64    0.49 
  13  -7  -1    2.44    0.63 
  12  -7  -1    1.61    0.57 
  11  -7  -1    0.83    0.49 
  10  -7  -1    2.92    0.58 
   9  -7  -1    0.07    0.43 
   8  -7  -1    0.61    0.44 
   7  -7  -1    9.49    0.73 
   7  -7  -1    8.89    0.42 
   6  -7  -1    4.32    0.28 
   6  -7  -1    5.36    0.52 
   5  -7  -1    9.71    0.67 
   5  -7  -1   10.22    0.50 
   4  -7  -1    1.86    0.25 
   4  -7  -1    1.77    0.35 
   3  -7  -1    6.02    0.43 
   3  -7  -1    5.09    0.48 
   2  -7  -1    0.88    0.22 
   1  -7  -1    1.17    0.25 
   0  -7  -1    4.21    0.41 
  -1  -7  -1    1.91    0.31 
  -2  -7  -1   -0.08    0.19 
  -3  -7  -1    2.87    0.39 
  -4  -7  -1    0.07    0.21 
  -5  -7  -1    0.24    0.20 
  -6  -7  -1    1.35    0.32 
  -7  -7  -1    0.78    0.24 
  -8  -7  -1    0.47    0.17 
  -9  -7  -1    0.32    0.14 
  15  -8  -1    0.51    0.49 
  14  -8  -1    0.41    0.51 
  13  -8  -1    0.56    0.50 
  12  -8  -1    1.07    0.55 
  11  -8  -1    0.05    0.45 
  10  -8  -1    7.10    0.81 
   9  -8  -1    1.21    0.49 
   8  -8  -1    3.59    0.59 
   7  -8  -1   18.74    1.06 
   7  -8  -1   17.66    0.74 
   6  -8  -1   16.89    0.98 
   6  -8  -1   16.02    0.71 
   5  -8  -1    0.50    0.18 
   5  -8  -1    0.41    0.33 
   4  -8  -1   15.45    0.93 
   4  -8  -1   15.93    0.75 
   3  -8  -1   19.17    1.07 
   3  -8  -1   20.39    0.92 
   2  -8  -1    0.83    0.24 
   1  -8  -1    9.45    0.59 
   0  -8  -1   19.51    0.94 
  -1  -8  -1    8.86    0.63 
  -2  -8  -1    1.56    0.35 
  -3  -8  -1    1.41    0.34 
  -4  -8  -1    3.96    0.48 
  -5  -8  -1    0.59    0.27 
  -6  -8  -1    0.22    0.21 
  -7  -8  -1    1.59    0.32 
  -8  -8  -1    0.62    0.17 
  14  -9  -1    0.56    0.52 
  13  -9  -1    0.77    0.54 
  12  -9  -1   -0.10    0.43 
  11  -9  -1   -0.16    0.46 
  10  -9  -1    0.51    0.46 
   9  -9  -1   -0.26    0.40 
   8  -9  -1    3.84    0.60 
   7  -9  -1    0.42    0.42 
   7  -9  -1    0.59    0.17 
   6  -9  -1    1.61    0.26 
   6  -9  -1    1.74    0.43 
   5  -9  -1    0.53    0.36 
   5  -9  -1    0.39    0.20 
   4  -9  -1    8.28    0.54 
   4  -9  -1    8.42    0.70 
   3  -9  -1    7.87    0.57 
   3  -9  -1    8.23    0.69 
   2  -9  -1    4.01    0.44 
   1  -9  -1    6.96    0.53 
   0  -9  -1   22.74    1.08 
  -1  -9  -1    1.32    0.32 
  -2  -9  -1    0.71    0.28 
  -3  -9  -1    0.48    0.27 
  -4  -9  -1    1.68    0.35 
  -5  -9  -1    0.80    0.23 
  -6  -9  -1    0.21    0.15 
  -7  -9  -1    1.55    0.29 
  14 -10  -1    1.97    0.54 
  13 -10  -1    1.41    0.55 
  12 -10  -1    0.01    0.45 
  11 -10  -1    0.92    0.59 
  10 -10  -1    0.10    0.49 
   9 -10  -1   -0.42    0.36 
   8 -10  -1    0.88    0.43 
   7 -10  -1    0.37    0.37 
   6 -10  -1    9.31    0.55 
   6 -10  -1    8.71    0.74 
   5 -10  -1    0.63    0.37 
   5 -10  -1    0.22    0.19 
   4 -10  -1    0.60    0.37 
   4 -10  -1    0.60    0.25 
   3 -10  -1    3.21    0.53 
   3 -10  -1    3.18    0.42 
   2 -10  -1   -0.21    0.28 
   2 -10  -1    0.33    0.25 
   1 -10  -1   15.39    0.86 
   0 -10  -1    0.94    0.32 
  -1 -10  -1    1.51    0.36 
  -2 -10  -1    0.37    0.27 
  -3 -10  -1    0.83    0.29 
  -4 -10  -1    0.65    0.20 
  -5 -10  -1    0.75    0.20 
  -6 -10  -1    1.80    0.32 
  14 -11  -1    1.36    0.49 
  13 -11  -1    0.67    0.45 
  12 -11  -1   -0.29    0.43 
  11 -11  -1   -0.39    0.41 
  10 -11  -1   -0.01    0.44 
   9 -11  -1    0.44    0.47 
   8 -11  -1    1.05    0.47 
   7 -11  -1    0.31    0.37 
   6 -11  -1    1.52    0.31 
   6 -11  -1    2.00    0.48 
   5 -11  -1    0.16    0.33 
   5 -11  -1    0.19    0.19 
   4 -11  -1    0.49    0.26 
   4 -11  -1   -0.12    0.32 
   3 -11  -1    0.99    0.40 
   3 -11  -1    0.99    0.31 
   2 -11  -1    0.39    0.37 
   2 -11  -1    0.49    0.27 
   1 -11  -1    0.56    0.27 
   0 -11  -1    1.26    0.36 
  -1 -11  -1    0.15    0.26 
  -2 -11  -1    2.16    0.44 
  -3 -11  -1    1.33    0.28 
  -4 -11  -1    0.56    0.17 
  13 -12  -1    0.55    0.46 
  12 -12  -1    0.68    0.49 
  11 -12  -1    0.63    0.47 
  10 -12  -1   -0.27    0.41 
   9 -12  -1    0.66    0.47 
   8 -12  -1    0.61    0.45 
   7 -12  -1   -0.02    0.37 
   6 -12  -1   -0.10    0.33 
   6 -12  -1   -0.02    0.19 
   5 -12  -1    0.55    0.39 
   5 -12  -1    0.62    0.24 
   4 -12  -1    3.22    0.58 
   4 -12  -1    4.47    0.50 
   3 -12  -1    3.06    0.46 
   3 -12  -1    3.07    0.56 
   2 -12  -1    0.36    0.35 
   2 -12  -1    0.00    0.23 
   1 -12  -1    0.88    0.34 
   0 -12  -1    1.71    0.41 
  -1 -12  -1    0.12    0.26 
  -2 -12  -1    2.04    0.43 
  -3 -12  -1    1.23    0.28 
  12 -13  -1    0.10    0.39 
  11 -13  -1    0.13    0.43 
  10 -13  -1    0.33    0.41 
   9 -13  -1    1.14    0.50 
   8 -13  -1    0.98    0.49 
   7 -13  -1    0.10    0.35 
   6 -13  -1    0.62    0.26 
   6 -13  -1    0.17    0.37 
   5 -13  -1    1.21    0.32 
   5 -13  -1    1.11    0.43 
   4 -13  -1    2.89    0.44 
   4 -13  -1    2.49    0.53 
   3 -13  -1    0.99    0.32 
   3 -13  -1    1.23    0.43 
   2 -13  -1    0.16    0.24 
   2 -13  -1   -0.07    0.30 
   1 -13  -1    3.11    0.50 
   1 -13  -1    3.47    0.54 
   0 -13  -1    6.08    0.66 
  -1 -13  -1    1.09    0.33 
  11 -14  -1    0.89    0.44 
  10 -14  -1   -0.12    0.38 
   9 -14  -1    0.14    0.36 
   8 -14  -1    0.82    0.39 
   7 -14  -1    0.21    0.30 
   6 -14  -1    1.28    0.43 
   5 -14  -1   -0.13    0.26 
   5 -14  -1    0.48    0.26 
   4 -14  -1    0.28    0.29 
   4 -14  -1    0.22    0.21 
   3 -14  -1    0.77    0.32 
   3 -14  -1    0.76    0.33 
   2 -14  -1    0.67    0.25 
   2 -14  -1    0.73    0.29 
   1 -14  -1    2.36    0.45 
   8 -15  -1    0.70    0.38 
   7 -15  -1    0.93    0.35 
   6 -15  -1    0.01    0.26 
   5 -15  -1    0.71    0.30 
   5 -15  -1    0.67    0.31 
   4 -15  -1    0.83    0.35 
   4 -15  -1    1.16    0.28 
   5 -16   2    0.29    0.29 
   6 -16   2    0.88    0.30 
   1 -15   2    0.75    0.31 
   2 -15   2    0.19    0.29 
   3 -15   2    0.35    0.26 
   4 -15   2    0.87    0.30 
   5 -15   2    0.25    0.24 
   6 -15   2    0.20    0.26 
   7 -15   2    0.06    0.33 
   8 -15   2    0.07    0.44 
   9 -15   2   -0.31    0.38 
  10 -15   2    0.50    0.44 
  -1 -14   2    0.89    0.29 
   0 -14   2    0.76    0.31 
   1 -14   2    0.56    0.31 
   2 -14   2    0.76    0.31 
   3 -14   2    0.30    0.25 
   4 -14   2    0.17    0.22 
   5 -14   2    0.41    0.25 
   5 -14   2    0.72    0.33 
   6 -14   2    0.65    0.40 
   6 -14   2    1.09    0.30 
   7 -14   2   -0.26    0.35 
   8 -14   2   -0.27    0.40 
   9 -14   2    0.22    0.44 
  10 -14   2    2.14    0.65 
  11 -14   2    0.55    0.45 
  12 -14   2    1.26    0.48 
  -3 -13   2    2.49    0.38 
  -2 -13   2    1.28    0.29 
  -1 -13   2    0.12    0.27 
   0 -13   2    0.93    0.35 
   1 -13   2    0.48    0.28 
   2 -13   2    0.02    0.22 
   3 -13   2    0.21    0.24 
   4 -13   2    0.38    0.35 
   4 -13   2    1.37    0.34 
   5 -13   2   -0.01    0.21 
   5 -13   2    0.34    0.35 
   6 -13   2    0.31    0.39 
   6 -13   2    0.19    0.22 
   7 -13   2    0.34    0.22 
   7 -13   2   -0.11    0.39 
   8 -13   2   -0.05    0.45 
   9 -13   2    0.47    0.46 
  10 -13   2    1.31    0.58 
  11 -13   2    0.32    0.44 
  12 -13   2    0.80    0.42 
  13 -13   2    1.30    0.46 
  -4 -12   2    1.19    0.27 
  -3 -12   2    2.26    0.37 
  -2 -12   2    0.83    0.26 
  -1 -12   2    0.83    0.34 
   0 -12   2    1.65    0.39 
   1 -12   2    2.73    0.42 
   2 -12   2    0.59    0.33 
   2 -12   2    0.37    0.26 
   3 -12   2    0.98    0.31 
   3 -12   2    0.76    0.32 
   4 -12   2    0.40    0.22 
   4 -12   2   -0.09    0.29 
   5 -12   2    0.64    0.27 
   5 -12   2    0.52    0.33 
   6 -12   2    2.62    0.52 
   6 -12   2    3.45    0.40 
   7 -12   2    2.62    0.37 
   7 -12   2    2.05    0.52 
   8 -12   2    0.89    0.48 
   9 -12   2    0.11    0.45 
  10 -12   2    2.95    0.66 
  11 -12   2    1.15    0.53 
  12 -12   2    0.50    0.41 
  13 -12   2    0.38    0.35 
  -6 -11   2    0.77    0.17 
  -5 -11   2    2.32    0.39 
  -4 -11   2    3.57    0.47 
  -3 -11   2    2.96    0.44 
  -2 -11   2    2.30    0.42 
  -1 -11   2    0.22    0.26 
   0 -11   2    5.03    0.55 
   1 -11   2    0.09    0.30 
   1 -11   2    0.24    0.23 
   2 -11   2    0.56    0.33 
   2 -11   2    0.68    0.26 
   3 -11   2    0.98    0.29 
   3 -11   2    0.62    0.32 
   4 -11   2    9.16    0.59 
   4 -11   2    8.67    0.68 
   5 -11   2    4.97    0.57 
   5 -11   2    4.97    0.43 
   6 -11   2    0.22    0.19 
   6 -11   2    0.35    0.37 
   7 -11   2    1.52    0.28 
   7 -11   2    0.53    0.42 
   8 -11   2    1.31    0.53 
   9 -11   2    0.10    0.47 
  10 -11   2    1.00    0.53 
  11 -11   2    0.35    0.45 
  12 -11   2    0.02    0.36 
  13 -11   2    0.94    0.45 
  14 -11   2    0.34    0.27 
  -7 -10   2    1.04    0.21 
  -6 -10   2    0.97    0.25 
  -5 -10   2    0.62    0.21 
  -4 -10   2    4.56    0.54 
  -3 -10   2    2.30    0.42 
  -2 -10   2    1.89    0.39 
  -1 -10   2    6.45    0.60 
   0 -10   2    4.17    0.48 
   1 -10   2   10.91    0.70 
   1 -10   2   11.75    0.75 
   2 -10   2    3.95    0.44 
   2 -10   2    3.27    0.47 
   3 -10   2    6.12    0.55 
   3 -10   2    6.53    0.50 
   4 -10   2    0.46    0.23 
   4 -10   2    0.18    0.30 
   5 -10   2   -0.08    0.14 
   5 -10   2    0.02    0.33 
   6 -10   2   10.40    0.80 
   6 -10   2   11.36    0.60 
   7 -10   2    0.19    0.16 
   7 -10   2    0.26    0.40 
   8 -10   2    1.93    0.24 
   8 -10   2    1.85    0.51 
   9 -10   2    4.45    0.68 
  10 -10   2    0.92    0.52 
  11 -10   2    0.10    0.44 
  12 -10   2    0.17    0.41 
  13 -10   2    1.55    0.47 
  14 -10   2    0.91    0.33 
  -8  -9   2    0.26    0.16 
  -7  -9   2    0.79    0.22 
  -6  -9   2    1.68    0.36 
  -5  -9   2    0.16    0.24 
  -4  -9   2    5.60    0.56 
  -3  -9   2    2.07    0.38 
  -2  -9   2   22.59    1.10 
  -1  -9   2    2.93    0.43 
   0  -9   2    5.22    0.47 
   1  -9   2    2.36    0.37 
   1  -9   2    1.57    0.31 
   2  -9   2    2.43    0.39 
   2  -9   2    1.75    0.31 
   3  -9   2    1.71    0.34 
   3  -9   2    1.30    0.26 
   4  -9   2    0.04    0.23 
   4  -9   2   -0.11    0.13 
   5  -9   2    7.40    0.45 
   5  -9   2    8.07    0.63 
   6  -9   2    0.22    0.15 
   6  -9   2    0.43    0.37 
   7  -9   2    4.90    0.35 
   7  -9   2    6.81    0.71 
   8  -9   2    1.72    0.21 
   8  -9   2    1.34    0.52 
   9  -9   2    5.04    0.68 
  10  -9   2    0.23    0.40 
  11  -9   2    0.64    0.47 
  12  -9   2    1.02    0.49 
  13  -9   2    3.60    0.62 
  14  -9   2    0.61    0.31 
  -9  -8   2    0.62    0.18 
  -8  -8   2    0.40    0.19 
  -7  -8   2    1.54    0.33 
  -6  -8   2    0.08    0.21 
  -5  -8   2   -0.14    0.21 
  -4  -8   2    1.61    0.35 
  -3  -8   2   10.51    0.68 
  -2  -8   2    3.02    0.40 
  -1  -8   2   -0.07    0.17 
   0  -8   2    0.13    0.19 
   1  -8   2    3.60    0.41 
   1  -8   2    3.23    0.36 
   2  -8   2    0.23    0.22 
   2  -8   2    0.11    0.15 
   3  -8   2    2.77    0.36 
   3  -8   2    3.09    0.32 
   4  -8   2    6.73    0.41 
   4  -8   2    6.62    0.52 
   5  -8   2    2.24    0.26 
   5  -8   2    2.39    0.40 
   6  -8   2    0.14    0.34 
   6  -8   2    0.04    0.11 
   7  -8   2    0.07    0.10 
   7  -8   2    0.41    0.43 
   8  -8   2    0.07    0.09 
   8  -8   2   -0.72    0.38 
   9  -8   2    2.72    0.56 
  10  -8   2   -0.01    0.38 
  11  -8   2    0.26    0.45 
  12  -8   2    0.64    0.43 
  13  -8   2    0.58    0.41 
  14  -8   2    0.75    0.29 
  -9  -7   2    0.83    0.22 
  -8  -7   2    0.31    0.20 
  -7  -7   2    0.79    0.30 
  -6  -7   2    2.31    0.40 
  -5  -7   2    2.77    0.41 
  -4  -7   2   58.53    2.22 
  -3  -7   2   12.65    0.72 
  -2  -7   2    3.13    0.39 
  -1  -7   2   27.54    1.16 
   0  -7   2   19.88    0.90 
   1  -7   2    0.36    0.17 
   1  -7   2    0.94    0.22 
   2  -7   2    1.18    0.22 
   2  -7   2    1.33    0.25 
   3  -7   2    7.91    0.44 
   3  -7   2    8.04    0.49 
   4  -7   2    4.26    0.40 
   4  -7   2    4.25    0.29 
   5  -7   2   12.18    0.73 
   5  -7   2   11.68    0.55 
   6  -7   2    0.28    0.31 
   6  -7   2    0.11    0.09 
   7  -7   2    7.51    0.70 
   7  -7   2    7.59    0.38 
   8  -7   2    0.39    0.40 
   8  -7   2    0.67    0.13 
   9  -7   2    0.09    0.41 
  10  -7   2    0.83    0.46 
  11  -7   2   -0.16    0.36 
  12  -7   2    1.58    0.51 
  13  -7   2    0.81    0.40 
  14  -7   2    0.38    0.43 
   9   6  -2    1.65    0.34 
  -9  -6   2    0.89    0.23 
   8   6  -2    1.21    0.40 
  -8  -6   2    1.08    0.30 
   7   6  -2    4.98    0.47 
   7   6  -2    5.24    0.69 
  -7  -6   2    5.90    0.54 
   6   6  -2    3.17    0.55 
  -6  -6   2    3.08    0.38 
   5   6  -2    0.72    0.38 
  -5  -6   2    0.45    0.24 
   4   6  -2    7.59    0.68 
  -4  -6   2    7.53    0.51 
   3   6  -2    0.58    0.33 
  -3  -6   2    0.55    0.23 
  -2  -6   2    1.80    0.28 
  -1  -6   2    0.86    0.21 
   0  -6   2   -0.13    0.13 
   2  -6   2    3.82    0.29 
   2  -6   2    3.94    0.31 
   3  -6   2   10.87    0.60 
   3  -6   2   11.70    0.52 
   4  -6   2    0.76    0.25 
   4  -6   2    0.74    0.13 
   5  -6   2    0.11    0.09 
   5  -6   2    0.06    0.25 
   6  -6   2    6.87    0.34 
   6  -6   2    6.32    0.58 
   7  -6   2   20.16    0.78 
   7  -6   2   20.82    1.13 
   8  -6   2    0.14    0.38 
   8  -6   2    0.11    0.07 
   9  -6   2    3.95    0.64 
  10  -6   2    0.12    0.40 
  11  -6   2    0.42    0.43 
  12  -6   2    0.68    0.44 
  13  -6   2    0.94    0.48 
  14  -6   2    0.36    0.44 
   9   5  -2    0.84    0.26 
   9   5  -2    1.54    0.38 
  -9  -5   2    0.60    0.22 
   8   5  -2    1.30    0.33 
   8   5  -2    1.57    0.45 
  -8  -5   2    1.34    0.27 
   7   5  -2    3.78    0.41 
   7   5  -2    3.79    0.60 
  -7  -5   2    4.19    0.41 
   6   5  -2   -0.15    0.16 
   6   5  -2   -0.01    0.33 
  -6  -5   2    0.22    0.20 
   5   5  -2    3.18    0.37 
   5   5  -2    4.16    0.59 
  -5  -5   2    3.66    0.38 
   4   5  -2    6.59    0.62 
   4   5  -2    6.45    0.45 
  -4  -5   2    7.18    0.46 
   3   5  -2   26.99    1.32 
  -3  -5   2   23.39    1.02 
   2   5  -2   13.05    0.79 
  -2  -5   2   12.65    0.64 
   1   5  -2    0.10    0.19 
  -1  -5   2    0.10    0.13 
   0  -5   2    1.08    0.19 
   1  -5   2    1.67    0.19 
   1  -5   2    0.78    0.11 
   2  -5   2    0.50    0.14 
   2  -5   2    0.79    0.14 
   3  -5   2    7.32    0.36 
   3  -5   2    7.07    0.44 
   4  -5   2    8.70    0.55 
   4  -5   2    8.88    0.40 
   5  -5   2    0.01    0.23 
   5  -5   2    0.05    0.07 
   6  -5   2    0.84    0.34 
   6  -5   2    0.84    0.12 
   7  -5   2    0.53    0.10 
   7  -5   2    0.53    0.35 
   8  -5   2    8.63    0.41 
   8  -5   2    9.29    0.77 
   9  -5   2   13.97    0.98 
  10  -5   2    0.04    0.39 
  11  -5   2    1.61    0.52 
  12  -5   2    0.33    0.42 
  13  -5   2    1.00    0.48 
  14  -5   2    0.60    0.41 
  10   4  -2    1.10    0.31 
  10   4  -2    1.76    0.40 
   9   4  -2    0.86    0.39 
   9   4  -2    0.86    0.32 
  -9  -4   2    0.93    0.24 
   8   4  -2    1.35    0.32 
   8   4  -2    1.78    0.47 
  -8  -4   2    2.30    0.30 
   7   4  -2    1.24    0.44 
   7   4  -2    0.82    0.27 
  -7  -4   2    0.79    0.23 
   6   4  -2    2.08    0.49 
   6   4  -2    1.48    0.30 
  -6  -4   2    1.56    0.27 
   5   4  -2   13.03    0.74 
   5   4  -2   14.95    0.92 
  -5  -4   2   14.93    0.69 
   4   4  -2   21.48    1.14 
   4   4  -2   20.23    0.97 
  -4  -4   2   21.83    0.90 
   3   4  -2   19.72    1.04 
   3   4  -2   18.89    0.88 
  -3  -4   2   19.62    0.82 
   2   4  -2    7.67    0.56 
  -2  -4   2    8.40    0.45 
   1   4  -2    0.85    0.25 
  -1  -4   2    1.30    0.18 
   0   4  -2    1.36    0.26 
   0  -4   2    1.29    0.17 
   1  -4   2   14.24    0.56 
   1  -4   2   12.87    0.59 
   2  -4   2    3.62    0.22 
   2  -4   2    3.67    0.28 
   3  -4   2   25.26    1.11 
   3  -4   2   26.02    0.93 
   4  -4   2    3.49    0.37 
   4  -4   2    3.50    0.20 
   5  -4   2   26.99    0.95 
   5  -4   2   25.59    1.22 
   6  -4   2   31.26    1.46 
   6  -4   2   31.48    1.11 
   7  -4   2    2.14    0.17 
   7  -4   2    2.56    0.44 
   8  -4   2    4.58    0.26 
   8  -4   2    4.28    0.58 
  -9   4  -2    1.17    0.19 
   9  -4   2    1.84    0.52 
   9  -4   2    1.78    0.31 
  10  -4   2    2.92    0.58 
  11  -4   2    1.75    0.50 
  12  -4   2    0.86    0.45 
  13  -4   2    0.87    0.47 
  14  -4   2    1.11    0.48 
  11   3  -2    0.88    0.33 
  10   3  -2    4.00    0.61 
  10   3  -2    3.89    0.51 
   9   3  -2    0.77    0.36 
   9   3  -2    0.34    0.24 
  -9  -3   2    0.49    0.17 
   8   3  -2   12.33    0.87 
   8   3  -2   12.25    0.75 
  -8  -3   2   11.16    0.60 
   7   3  -2    0.22    0.36 
  -7  -3   2    0.36    0.18 
   6   3  -2    0.04    0.18 
   6   3  -2    0.04    0.30 
  -6  -3   2    0.17    0.14 
   5   3  -2   -0.03    0.14 
   5   3  -2    0.06    0.27 
  -5  -3   2   -0.03    0.12 
   4   3  -2    0.55    0.17 
   4   3  -2    0.58    0.28 
  -4  -3   2    1.08    0.19 
   3   3  -2   55.65    2.41 
   3   3  -2   57.25    2.30 
  -3  -3   2   59.88    2.01 
   2   3  -2   11.03    0.52 
   2   3  -2   10.78    0.64 
  -2  -3   2   11.23    0.51 
   1   3  -2   30.99    1.36 
  -1  -3   2   30.09    1.10 
   0   3  -2    1.00    0.24 
   0  -3   2    1.14    0.15 
   1  -3   2   23.80    0.97 
   1  -3   2   24.10    0.86 
   2  -3   2   18.26    0.84 
   2  -3   2   19.27    0.69 
   3  -3   2  103.03    3.28 
   3  -3   2   97.01    3.89 
   4  -3   2   12.91    0.71 
   4  -3   2   13.71    0.52 
   5  -3   2    0.45    0.26 
   5  -3   2    0.72    0.10 
   6  -3   2    4.38    0.48 
   6  -3   2    3.23    0.21 
   7  -3   2    1.05    0.37 
   7  -3   2    1.34    0.15 
  -8   3  -2    5.70    0.33 
   8  -3   2    5.17    0.40 
   8  -3   2    6.67    0.65 
  -9   3  -2    3.35    0.27 
   9  -3   2    3.88    0.60 
  10  -3   2    0.68    0.41 
  11  -3   2    2.50    0.53 
  12  -3   2    0.12    0.35 
  13  -3   2    0.26    0.43 
  14  -3   2    0.96    0.44 
  12   2  -2    0.35    0.24 
  11   2  -2    1.11    0.36 
  10   2  -2    3.96    0.51 
  10   2  -2    3.31    0.56 
   9   2  -2    4.76    0.63 
   9   2  -2    4.71    0.50 
   8   2  -2   10.68    0.71 
   8   2  -2   10.88    0.79 
   7   2  -2    0.50    0.33 
   7   2  -2    0.39    0.26 
  -7  -2   2    0.37    0.15 
   6   2  -2    1.67    0.31 
   6   2  -2    2.10    0.39 
  -6  -2   2    2.22    0.24 
   5   2  -2    0.47    0.21 
   5   2  -2    0.83    0.28 
  -5  -2   2    0.96    0.17 
   4   2  -2    2.86    0.36 
   4   2  -2    2.44    0.26 
  -4  -2   2    2.43    0.22 
   3   2  -2   30.73    1.32 
   3   2  -2   28.61    1.22 
  -3  -2   2   29.28    1.07 
   2   2  -2   24.93    1.08 
   2   2  -2   23.49    0.97 
  -2  -2   2   23.34    0.87 
   1   2  -2   40.76    1.65 
  -1  -2   2   37.86    1.34 
   0   2  -2   47.40    2.00 
   0  -2   2   52.62    1.68 
  -1   2  -2    5.05    0.30 
   1  -2   2    5.84    0.25 
   2  -2   2  140.18    4.56 
   2  -2   2  141.76    5.40 
   3  -2   2  212.53    8.35 
   3  -2   2  225.04    7.05 
   4  -2   2    3.49    0.36 
   4  -2   2    3.04    0.18 
   5  -2   2    4.64    0.27 
   5  -2   2    5.04    0.45 
   5  -2   2    4.83    0.25 
   6  -2   2    0.72    0.16 
   6  -2   2    0.68    0.11 
   6  -2   2    0.69    0.29 
  -7   2  -2    0.08    0.05 
   7  -2   2    0.32    0.19 
   7  -2   2    0.07    0.27 
   8  -2   2    4.62    0.43 
   8  -2   2    5.74    0.62 
  -9   2  -2    0.24    0.15 
   9  -2   2    0.17    0.34 
  10  -2   2    2.02    0.47 
  11  -2   2    0.32    0.34 
  12  -2   2    0.39    0.36 
  13  -2   2    0.47    0.35 
  14  -2   2    0.40    0.36 
  13   1  -2    0.83    0.31 
  12   1  -2    0.61    0.34 
  11   1  -2    0.71    0.35 
  11   1  -2    0.65    0.34 
  10   1  -2    1.44    0.40 
  10   1  -2    1.09    0.38 
   9   1  -2   15.28    0.92 
   9   1  -2   14.91    0.94 
   8   1  -2   23.91    1.23 
   8   1  -2   25.36    1.29 
  -8  -1   2   25.11    0.98 
   7   1  -2    0.24    0.31 
   7   1  -2   -0.28    0.26 
  -7  -1   2    0.08    0.11 
   6   1  -2   -0.05    0.22 
   6   1  -2   -0.09    0.22 
  -6  -1   2    0.15    0.10 
   5   1  -2   19.88    0.95 
   5   1  -2   20.69    1.00 
  -5  -1   2   19.68    0.76 
   4   1  -2    5.83    0.39 
   4   1  -2    5.34    0.38 
  -4  -1   2    4.94    0.27 
   3   1  -2   32.42    1.34 
   3   1  -2   30.43    1.29 
   2   1  -2   15.82    0.69 
   2   1  -2   16.48    0.75 
   1   1  -2   24.06    1.00 
  -1  -1   2   24.10    0.83 
   0   1  -2  120.30    4.65 
   0  -1   2  123.20    3.92 
   0  -1   2  119.01    4.64 
  -1   1  -2   14.17    0.60 
   1  -1   2   14.64    0.52 
   1  -1   2   15.13    0.63 
   2  -1   2   27.26    1.15 
   2  -1   2   27.58    0.94 
   3  -1   2  107.71    3.32 
   3  -1   2  107.52    3.96 
   3  -1   2   89.30    3.88 
   4  -1   2    6.60    0.36 
   4  -1   2    7.41    0.33 
   4  -1   2    7.18    0.46 
  -5   1  -2   20.36    0.75 
   5  -1   2   17.73    0.84 
   5  -1   2   20.62    0.97 
  -6   1  -2    1.15    0.18 
   6  -1   2    0.77    0.27 
   6  -1   2    1.15    0.20 
  -7   1  -2    1.18    0.20 
   7  -1   2    0.93    0.32 
   7  -1   2    1.12    0.26 
  -8   1  -2    0.13    0.15 
   8  -1   2    0.08    0.22 
   8  -1   2   -0.18    0.30 
  -9   1  -2    0.13    0.14 
   9  -1   2    0.03    0.32 
  10  -1   2    4.14    0.57 
  11  -1   2    1.10    0.40 
  12  -1   2    0.55    0.36 
  13  -1   2    0.00    0.36 
  14   0  -2    1.12    0.39 
  13   0  -2    1.04    0.39 
  12   0  -2    0.38    0.33 
  11   0  -2    0.22    0.33 
  11   0  -2    0.23    0.33 
  10   0  -2   -0.16    0.32 
  10   0  -2    0.13    0.29 
   9   0  -2    8.51    0.71 
   9   0  -2    9.23    0.73 
   8   0  -2   15.49    0.89 
   8   0  -2   14.09    0.90 
  -8   0   2   15.20    0.62 
   7   0  -2    2.17    0.41 
   7   0  -2    2.94    0.41 
  -7   0   2    2.30    0.20 
   6   0  -2    3.94    0.42 
   6   0  -2    4.01    0.36 
  -6   0   2    2.94    0.21 
   5   0  -2   12.82    0.70 
   5   0  -2   13.71    0.68 
  -5   0   2   12.53    0.50 
   4   0  -2    0.06    0.19 
   4   0  -2    0.03    0.15 
  -4   0   2   -0.01    0.06 
   3   0  -2   11.73    0.59 
   3   0  -2   11.26    0.56 
  -3   0   2   10.94    0.41 
   2   0  -2 1000.00   36.00 
  -2   0   2  909.12   30.59 
  -1   0   2    0.01    0.01 
   0   0   2   37.68    1.25 
   1   0   2  117.17    3.97 
   1   0   2  128.09    4.71 
   2   0   2   66.64    2.21 
   2   0   2   66.90    2.64 
  -3   0  -2    1.03    0.14 
   3   0   2    0.81    0.20 
   3   0   2    0.96    0.14 
  -4   0  -2    2.69    0.21 
   4   0   2    2.83    0.30 
   4   0   2    2.39    0.22 
  -5   0  -2   10.99    0.48 
   5   0   2   10.56    0.62 
   5   0   2    9.47    0.54 
  -6   0  -2    1.61    0.22 
   6   0   2    1.37    0.31 
   6   0   2    1.99    0.29 
  -7   0  -2    3.24    0.30 
   7   0   2    2.49    0.42 
   7   0   2    3.08    0.38 
  -8   0  -2   -0.07    0.14 
   8   0   2   -0.21    0.21 
   8   0   2   -0.12    0.29 
  -9   0  -2    0.78    0.20 
   9   0   2    1.47    0.39 
 -10   0  -2    0.29    0.14 
  10   0   2    0.33    0.31 
  11   0   2    4.46    0.61 
  12   0   2    0.24    0.28 
  13   0   2    0.03    0.29 
  14  -1  -2    1.04    0.41 
  13  -1  -2    0.71    0.38 
  12  -1  -2    0.63    0.38 
  11  -1  -2    0.10    0.32 
  11  -1  -2    0.40    0.37 
  10  -1  -2    4.03    0.60 
  10  -1  -2    3.40    0.50 
   9  -1  -2   -0.37    0.36 
   9  -1  -2    0.06    0.30 
   8  -1  -2   22.42    1.16 
   8  -1  -2   22.98    1.22 
  -8   1   2   24.34    0.85 
   7  -1  -2   18.98    0.95 
   7  -1  -2   19.11    1.01 
  -7   1   2   18.77    0.69 
   6  -1  -2    4.56    0.46 
   6  -1  -2    4.16    0.35 
  -6   1   2    4.04    0.21 
   5  -1  -2    5.85    0.46 
   4  -1  -2   85.25    3.35 
   3  -1  -2    2.14    0.24 
   2  -1  -2    6.59    0.38 
  -2   1   2    7.37    0.26 
  -1   1   2   38.41    1.28 
   0  -1  -2  208.77    6.72 
  -1  -1  -2   32.57    1.15 
   1   1   2   34.00    1.38 
  -2  -1  -2    6.81    0.34 
   2   1   2    7.65    0.43 
  -3  -1  -2    3.74    0.24 
   3   1   2    3.90    0.33 
  -4  -1  -2    0.68    0.16 
   4   1   2    0.58    0.15 
   4   1   2    0.66    0.20 
  -5  -1  -2    7.84    0.41 
   5   1   2    7.09    0.46 
   5   1   2    7.19    0.51 
  -6  -1  -2    5.37    0.35 
   6   1   2    5.59    0.44 
   6   1   2    5.42    0.48 
  -7  -1  -2    1.20    0.23 
   7   1   2    1.45    0.32 
   7   1   2    0.68    0.31 
  -8  -1  -2    2.52    0.30 
   8   1   2    2.41    0.45 
  -9  -1  -2    0.07    0.15 
   9   1   2    0.06    0.27 
 -10  -1  -2    0.47    0.18 
  10   1   2   -0.13    0.26 
  11   1   2    2.69    0.51 
  12   1   2    0.07    0.32 
  14  -2  -2    0.63    0.40 
  13  -2  -2    0.57    0.39 
  12  -2  -2    0.83    0.44 
  12  -2  -2    0.45    0.29 
  11  -2  -2    1.29    0.40 
  11  -2  -2    1.43    0.47 
  10  -2  -2    9.50    0.69 
  10  -2  -2    9.48    0.81 
   9  -2  -2    0.27    0.42 
   9  -2  -2    1.32    0.36 
   8  -2  -2   37.63    1.68 
   8  -2  -2   36.67    1.74 
   7  -2  -2    4.42    0.52 
   6  -2  -2   11.96    0.71 
   5  -2  -2   -0.05    0.20 
   4  -2  -2    5.88    0.41 
   3  -2  -2    7.40    0.43 
   3  -2  -2    6.72    0.27 
   2  -2  -2   44.45    1.51 
   2  -2  -2   46.51    1.85 
   1  -2  -2  106.48    3.48 
   0  -2  -2   39.88    1.37 
  -1  -2  -2    3.04    0.22 
  -2  -2  -2    9.02    0.42 
   2   2   2    9.16    0.52 
  -3  -2  -2    0.08    0.11 
   3   2   2   -0.10    0.12 
  -4  -2  -2    0.23    0.13 
   4   2   2    0.15    0.17 
  -5  -2  -2    5.33    0.35 
   5   2   2    4.44    0.39 
   5   2   2    4.98    0.43 
  -6  -2  -2    7.76    0.43 
   6   2   2    7.04    0.51 
   6   2   2    5.81    0.53 
  -7  -2  -2    0.51    0.20 
   7   2   2    0.67    0.26 
   7   2   2    0.66    0.31 
  -8  -2  -2    5.59    0.41 
   8   2   2    4.88    0.52 
  -9  -2  -2    0.19    0.18 
   9   2   2   -0.10    0.23 
 -10  -2  -2    0.23    0.17 
  10   2   2   -0.24    0.20 
  11   2   2    0.59    0.32 
  12   2   2    0.65    0.29 
  14  -3  -2    0.88    0.47 
  13  -3  -2    1.06    0.45 
  12  -3  -2    2.42    0.46 
  12  -3  -2    1.94    0.52 
  11  -3  -2    0.77    0.32 
  11  -3  -2    0.85    0.46 
  10  -3  -2    2.83    0.61 
  10  -3  -2    3.08    0.47 
   9  -3  -2    1.69    0.51 
   8  -3  -2   22.75    1.21 
   7  -3  -2    1.05    0.36 
   6  -3  -2    1.72    0.35 
   5  -3  -2   12.59    0.69 
   4  -3  -2    4.76    0.36 
   3  -3  -2    0.16    0.17 
   3  -3  -2    0.10    0.08 
   2  -3  -2   46.23    1.57 
   1  -3  -2    3.71    0.23 
   0  -3  -2    9.46    0.43 
  -1  -3  -2    0.04    0.10 
  -2  -3  -2    8.58    0.43 
  -3  -3  -2    0.24    0.14 
   3   3   2    0.37    0.18 
  -4  -3  -2    2.95    0.30 
   4   3   2    2.55    0.35 
  -5  -3  -2   17.50    0.78 
   5   3   2   17.77    0.95 
  -6  -3  -2    5.38    0.40 
   6   3   2    5.90    0.51 
  -7  -3  -2    1.64    0.28 
   7   3   2    2.75    0.43 
  -8  -3  -2    1.62    0.29 
   8   3   2    1.53    0.37 
  -9  -3  -2    0.02    0.16 
   9   3   2    0.13    0.26 
 -10  -3  -2    0.81    0.22 
  10   3   2    0.62    0.31 
  11   3   2    0.59    0.31 
  15  -4  -2    1.32    0.48 
  14  -4  -2    0.63    0.44 
  13  -4  -2    1.39    0.48 
  12  -4  -2    0.28    0.31 
  12  -4  -2    0.56    0.45 
  11  -4  -2    0.78    0.47 
  11  -4  -2    0.31    0.29 
  10  -4  -2    3.24    0.59 
   9  -4  -2    4.86    0.66 
   8  -4  -2    6.32    0.66 
   7  -4  -2    0.48    0.33 
   6  -4  -2   23.86    1.16 
   5  -4  -2   16.01    0.79 
   5  -4  -2   14.27    0.53 
   4  -4  -2    4.90    0.26 
   4  -4  -2    5.70    0.41 
   3  -4  -2    4.78    0.38 
   3  -4  -2    4.01    0.25 
   2  -4  -2   53.80    1.85 
   1  -4  -2  223.69    7.27 
   0  -4  -2  104.06    3.48 
  -1  -4  -2   15.74    0.68 
  -2  -4  -2    2.67    0.28 
  -3  -4  -2   24.65    1.00 
  -4  -4  -2   -0.07    0.16 
  -5  -4  -2   13.73    0.70 
   5   4   2   13.69    0.84 
  -6  -4  -2    1.66    0.31 
   6   4   2    1.77    0.37 
  -7  -4  -2    0.22    0.21 
   7   4   2    0.28    0.25 
  -8  -4  -2    0.84    0.26 
   8   4   2    0.33    0.28 
  -9  -4  -2    0.71    0.22 
   9   4   2    0.41    0.28 
 -10  -4  -2    0.29    0.15 
  10   4   2   -0.03    0.24 
  11   4   2    0.20    0.21 
  15  -5  -2    2.54    0.61 
  14  -5  -2   -0.10    0.42 
  13  -5  -2    0.21    0.45 
  13  -5  -2    0.62    0.23 
  12  -5  -2    0.56    0.48 
  12  -5  -2    0.77    0.35 
  11  -5  -2    0.90    0.48 
  10  -5  -2    0.10    0.43 
   9  -5  -2    1.63    0.51 
   8  -5  -2    0.82    0.44 
   7  -5  -2    1.07    0.38 
   6  -5  -2    0.15    0.25 
   5  -5  -2    0.02    0.20 
   5  -5  -2    0.06    0.07 
   4  -5  -2    4.38    0.28 
   4  -5  -2    4.91    0.42 
   3  -5  -2    9.44    0.45 
   3  -5  -2    8.98    0.58 
   2  -5  -2   81.49    2.78 
   1  -5  -2    0.17    0.14 
   0  -5  -2   18.17    0.78 
  -1  -5  -2    2.19    0.28 
  -2  -5  -2    2.41    0.30 
  -3  -5  -2    0.46    0.22 
  -4  -5  -2    3.43    0.38 
  -5  -5  -2    0.71    0.26 
  -6  -5  -2    2.53    0.36 
  -7  -5  -2    0.46    0.24 
  -8  -5  -2    0.43    0.21 
  -9  -5  -2    0.26    0.18 
 -10  -5  -2    0.36    0.16 
  15  -6  -2    2.23    0.63 
  14  -6  -2    0.14    0.44 
  13  -6  -2    0.61    0.47 
  12  -6  -2    0.79    0.49 
  11  -6  -2    0.91    0.50 
  10  -6  -2    1.17    0.49 
   9  -6  -2    0.72    0.47 
   8  -6  -2    3.48    0.57 
   7  -6  -2    6.87    0.63 
   6  -6  -2    0.00    0.07 
   6  -6  -2    0.23    0.26 
   5  -6  -2    0.27    0.12 
   5  -6  -2    0.33    0.25 
   4  -6  -2    7.60    0.41 
   4  -6  -2    7.30    0.55 
   3  -6  -2    6.03    0.40 
   3  -6  -2    5.36    0.47 
   2  -6  -2    8.75    0.48 
   1  -6  -2   17.23    0.78 
   0  -6  -2    7.31    0.46 
  -1  -6  -2    4.66    0.39 
  -2  -6  -2    1.02    0.26 
  -3  -6  -2    1.93    0.32 
  -4  -6  -2   11.45    0.67 
  -5  -6  -2   12.75    0.73 
  -6  -6  -2    0.95    0.29 
  -7  -6  -2    0.36    0.22 
  -8  -6  -2    0.53    0.21 
  -9  -6  -2    0.53    0.19 
  15  -7  -2    1.60    0.64 
  14  -7  -2   -0.16    0.48 
  13  -7  -2    0.20    0.49 
  12  -7  -2    2.62    0.63 
  11  -7  -2    0.48    0.48 
  10  -7  -2    3.10    0.64 
   9  -7  -2    2.19    0.58 
   8  -7  -2    4.23    0.60 
   7  -7  -2    3.73    0.52 
   6  -7  -2    0.45    0.31 
   6  -7  -2    0.80    0.16 
   5  -7  -2    0.25    0.28 
   5  -7  -2    0.07    0.13 
   4  -7  -2    0.72    0.32 
   4  -7  -2    0.57    0.19 
   3  -7  -2    0.76    0.31 
   3  -7  -2    0.39    0.18 
   2  -7  -2   -0.15    0.14 
   1  -7  -2   11.05    0.61 
   0  -7  -2   16.69    0.82 
  -1  -7  -2    2.09    0.35 
  -2  -7  -2    2.36    0.37 
  -3  -7  -2    9.50    0.62 
  -4  -7  -2    0.50    0.25 
  -5  -7  -2    3.33    0.43 
  -6  -7  -2    0.04    0.19 
  -7  -7  -2    0.58    0.21 
  -8  -7  -2    0.51    0.18 
  14  -8  -2    0.21    0.48 
  13  -8  -2    1.06    0.57 
  12  -8  -2    1.81    0.62 
  11  -8  -2   -0.31    0.45 
  10  -8  -2    2.10    0.59 
   9  -8  -2    1.60    0.54 
   8  -8  -2   -0.09    0.39 
   7  -8  -2    0.03    0.35 
   6  -8  -2    2.16    0.26 
   6  -8  -2    2.42    0.47 
   5  -8  -2   17.50    1.02 
   5  -8  -2   16.54    0.78 
   4  -8  -2    2.73    0.35 
   4  -8  -2    2.46    0.46 
   3  -8  -2    0.30    0.35 
   3  -8  -2    0.81    0.24 
   2  -8  -2    0.16    0.21 
   1  -8  -2   14.31    0.75 
   0  -8  -2    0.74    0.28 
  -1  -8  -2    6.92    0.53 
  -2  -8  -2    0.25    0.23 
  -3  -8  -2    1.46    0.32 
  -4  -8  -2    4.08    0.47 
  -5  -8  -2    0.86    0.28 
  -6  -8  -2    0.77    0.22 
  -7  -8  -2    0.75    0.21 
  14  -9  -2   -0.24    0.45 
  13  -9  -2    1.44    0.65 
  12  -9  -2    0.78    0.58 
  11  -9  -2    0.27    0.50 
  10  -9  -2    1.29    0.51 
   9  -9  -2   -0.19    0.39 
   8  -9  -2    1.79    0.48 
   7  -9  -2    3.41    0.55 
   6  -9  -2    9.92    0.79 
   6  -9  -2    9.98    0.55 
   5  -9  -2    2.77    0.35 
   5  -9  -2    3.30    0.54 
   4  -9  -2    2.48    0.36 
   4  -9  -2    2.95    0.52 
   3  -9  -2    4.19    0.44 
   3  -9  -2    3.85    0.57 
   2  -9  -2    0.60    0.27 
   1  -9  -2    1.89    0.35 
   0  -9  -2   -0.26    0.21 
  -1  -9  -2    2.78    0.42 
  -2  -9  -2    1.24    0.35 
  -3  -9  -2    0.31    0.24 
  -4  -9  -2    1.85    0.37 
  -5  -9  -2    2.23    0.37 
  -6  -9  -2    0.23    0.12 
  14 -10  -2   -0.76    0.46 
  13 -10  -2    0.96    0.59 
  12 -10  -2    0.30    0.46 
  11 -10  -2    0.05    0.45 
  10 -10  -2    0.87    0.49 
   9 -10  -2    1.07    0.49 
   8 -10  -2   -0.01    0.38 
   7 -10  -2    2.39    0.48 
   6 -10  -2    3.05    0.34 
   6 -10  -2    2.68    0.52 
   5 -10  -2    0.22    0.22 
   5 -10  -2   -0.03    0.35 
   4 -10  -2    1.35    0.43 
   4 -10  -2    1.97    0.35 
   3 -10  -2    0.76    0.28 
   3 -10  -2    0.40    0.36 
   2 -10  -2   -0.01    0.22 
   1 -10  -2    0.97    0.31 
   0 -10  -2    2.73    0.43 
  -1 -10  -2    5.13    0.55 
  -2 -10  -2    2.36    0.43 
  -3 -10  -2    0.05    0.19 
  -4 -10  -2    3.10    0.42 
  -5 -10  -2    1.09    0.24 
  13 -11  -2    0.74    0.50 
  12 -11  -2    0.56    0.52 
  11 -11  -2    0.22    0.45 
  10 -11  -2    0.65    0.50 
   9 -11  -2    1.14    0.51 
   8 -11  -2   -0.35    0.36 
   7 -11  -2    2.01    0.49 
   6 -11  -2    5.05    0.42 
   6 -11  -2    3.98    0.62 
   5 -11  -2    8.15    0.74 
   5 -11  -2    6.92    0.55 
   4 -11  -2    2.60    0.40 
   4 -11  -2    2.42    0.51 
   3 -11  -2    0.38    0.24 
   3 -11  -2   -0.02    0.33 
   2 -11  -2    0.45    0.26 
   1 -11  -2    0.86    0.30 
   0 -11  -2   -0.01    0.23 
  -1 -11  -2    1.09    0.33 
  -2 -11  -2    3.62    0.52 
  -3 -11  -2   -0.02    0.18 
  -4 -11  -2    1.18    0.24 
  13 -12  -2    0.29    0.47 
  12 -12  -2    0.01    0.45 
  11 -12  -2   -0.07    0.36 
  10 -12  -2    0.05    0.40 
   9 -12  -2   -0.28    0.37 
   8 -12  -2    0.12    0.39 
   7 -12  -2   -0.16    0.36 
   6 -12  -2    1.93    0.34 
   6 -12  -2    1.63    0.50 
   5 -12  -2    1.47    0.48 
   5 -12  -2    1.69    0.36 
   4 -12  -2    0.49    0.27 
   4 -12  -2    1.02    0.41 
   3 -12  -2    0.28    0.24 
   3 -12  -2    0.67    0.41 
   2 -12  -2    0.27    0.24 
   2 -12  -2    0.29    0.32 
   1 -12  -2    0.27    0.29 
   0 -12  -2    0.35    0.25 
  -1 -12  -2    0.30    0.26 
  -2 -12  -2    0.41    0.24 
  12 -13  -2    0.07    0.41 
  11 -13  -2   -0.13    0.38 
  10 -13  -2    1.12    0.48 
   9 -13  -2   -0.54    0.29 
   8 -13  -2    0.48    0.38 
   7 -13  -2    0.35    0.36 
   6 -13  -2    0.99    0.41 
   5 -13  -2    0.88    0.39 
   5 -13  -2    1.72    0.37 
   4 -13  -2    0.97    0.34 
   4 -13  -2    1.16    0.41 
   3 -13  -2    4.30    0.55 
   3 -13  -2    3.71    0.60 
   2 -13  -2    1.03    0.36 
   2 -13  -2    0.20    0.27 
   1 -13  -2    1.67    0.40 
   1 -13  -2    0.40    0.28 
   0 -13  -2    0.09    0.25 
  -1 -13  -2    0.32    0.27 
  10 -14  -2    0.04    0.33 
   9 -14  -2    0.00    0.32 
   8 -14  -2    0.35    0.32 
   7 -14  -2    0.51    0.30 
   6 -14  -2    0.71    0.35 
   5 -14  -2    0.84    0.31 
   5 -14  -2    1.34    0.39 
   4 -14  -2    0.82    0.33 
   4 -14  -2    0.82    0.29 
   3 -14  -2    1.72    0.40 
   3 -14  -2    2.01    0.43 
   2 -14  -2    0.50    0.29 
   2 -14  -2    0.82    0.30 
   4 -16   3    0.23    0.23 
   5 -16   3    0.59    0.26 
   6 -16   3    0.24    0.21 
   1 -15   3    3.39    0.53 
   2 -15   3    2.41    0.45 
   3 -15   3    0.27    0.26 
   4 -15   3    1.32    0.40 
   5 -15   3    1.07    0.32 
   6 -15   3    0.13    0.22 
   7 -15   3    0.44    0.25 
   9 -15   3    0.49    0.44 
  10 -15   3    0.07    0.42 
  -1 -14   3    0.20    0.23 
   0 -14   3    2.32    0.48 
   1 -14   3    0.40    0.28 
   2 -14   3    0.61    0.29 
   3 -14   3   -0.21    0.24 
   4 -14   3    0.85    0.33 
   5 -14   3    0.56    0.26 
   6 -14   3    0.24    0.21 
   7 -14   3    0.69    0.25 
   7 -14   3    0.38    0.42 
   8 -14   3    0.89    0.51 
   9 -14   3    0.75    0.56 
  10 -14   3    1.36    0.54 
  11 -14   3    0.53    0.45 
  12 -14   3    1.80    0.46 
  -3 -13   3    1.28    0.27 
  -2 -13   3    1.34    0.34 
  -1 -13   3    0.11    0.27 
   0 -13   3    0.23    0.28 
   1 -13   3    0.36    0.26 
   2 -13   3    0.98    0.33 
   3 -13   3    0.10    0.21 
   4 -13   3   -0.06    0.21 
   5 -13   3    0.45    0.23 
   5 -13   3    0.25    0.39 
   6 -13   3    0.02    0.18 
   6 -13   3   -0.28    0.35 
   7 -13   3   -0.17    0.41 
   7 -13   3    0.43    0.22 
   8 -13   3    0.71    0.47 
   9 -13   3   -0.02    0.49 
  10 -13   3   -0.26    0.40 
  11 -13   3    0.46    0.43 
  12 -13   3   -0.03    0.31 
  13 -13   3    1.57    0.42 
  -5 -12   3    2.88    0.40 
  -4 -12   3    1.60    0.32 
  -3 -12   3    0.63    0.20 
  -2 -12   3    2.55    0.42 
  -1 -12   3    0.15    0.27 
   0 -12   3    0.72    0.33 
   1 -12   3    1.01    0.34 
   2 -12   3    1.84    0.38 
   3 -12   3    0.84    0.32 
   3 -12   3    0.75    0.29 
   4 -12   3    0.19    0.22 
   4 -12   3    0.06    0.27 
   5 -12   3    4.98    0.60 
   5 -12   3    5.19    0.49 
   6 -12   3    0.19    0.37 
   6 -12   3    0.68    0.26 
   7 -12   3    5.73    0.48 
   7 -12   3    6.73    0.75 
   8 -12   3    5.98    0.75 
   9 -12   3   -0.42    0.43 
  10 -12   3   -0.46    0.38 
  11 -12   3    0.44    0.43 
  12 -12   3    0.16    0.39 
  13 -12   3    0.98    0.39 
  -6 -11   3    0.91    0.22 
  -5 -11   3    0.75    0.21 
  -4 -11   3    0.02    0.20 
  -3 -11   3    1.45    0.34 
  -2 -11   3    0.92    0.34 
  -1 -11   3    1.13    0.35 
   0 -11   3    0.76    0.29 
   1 -11   3    6.91    0.56 
   2 -11   3    6.25    0.52 
   3 -11   3    1.07    0.33 
   3 -11   3    1.23    0.30 
   4 -11   3   -0.10    0.27 
   4 -11   3    0.31    0.21 
   5 -11   3    2.39    0.46 
   5 -11   3    1.73    0.31 
   6 -11   3    0.35    0.38 
   6 -11   3    0.12    0.18 
   7 -11   3    5.22    0.67 
   7 -11   3    4.46    0.39 
   8 -11   3    1.95    0.57 
   8 -11   3    2.14    0.28 
   9 -11   3   -0.03    0.43 
  10 -11   3    0.08    0.41 
  11 -11   3    0.32    0.43 
  12 -11   3    0.25    0.39 
  13 -11   3    0.26    0.38 
  14 -11   3    2.56    0.47 
  -7 -10   3    1.63    0.30 
  -6 -10   3    0.79    0.20 
  -5 -10   3   -0.02    0.19 
  -4 -10   3    0.21    0.23 
  -3 -10   3    1.32    0.35 
  -2 -10   3    4.75    0.53 
  -1 -10   3    4.07    0.48 
   0 -10   3    4.14    0.42 
   0 -10   3    5.38    0.51 
   1 -10   3    1.89    0.30 
   1 -10   3    2.01    0.37 
   3 -10   3   30.79    1.27 
   3 -10   3   27.83    1.36 
   4 -10   3    4.35    0.50 
   4 -10   3    3.22    0.37 
   5 -10   3    0.00    0.33 
   5 -10   3    0.04    0.17 
   6 -10   3    5.53    0.64 
   6 -10   3    4.50    0.38 
   7 -10   3    1.02    0.45 
   7 -10   3    0.72    0.20 
   8 -10   3    7.22    0.76 
   8 -10   3    6.54    0.41 
   9 -10   3    2.20    0.56 
  10 -10   3    0.45    0.45 
  11 -10   3    0.07    0.41 
  12 -10   3    0.13    0.37 
  13 -10   3    0.48    0.36 
  14 -10   3    1.92    0.38 
  -8  -9   3    0.79    0.21 
  -7  -9   3    0.86    0.24 
  -6  -9   3    0.42    0.19 
  -5  -9   3    0.89    0.30 
  -4  -9   3    1.70    0.36 
  -3  -9   3    6.71    0.54 
  -2  -9   3   53.04    2.08 
  -1  -9   3    2.81    0.40 
   0  -9   3    0.09    0.22 
   0  -9   3    0.14    0.21 
   1  -9   3    0.82    0.27 
   1  -9   3    0.82    0.27 
   2  -9   3    0.32    0.21 
   3  -9   3    0.19    0.18 
   3  -9   3    0.53    0.24 
   4  -9   3    5.18    0.38 
   4  -9   3    5.82    0.52 
   5  -9   3    3.62    0.49 
   5  -9   3    3.37    0.33 
   6  -9   3    0.03    0.12 
   6  -9   3    0.23    0.37 
   7  -9   3    0.73    0.18 
   7  -9   3    0.44    0.45 
   8  -9   3    2.24    0.55 
   8  -9   3    2.21    0.25 
   9  -9   3    0.30    0.42 
  10  -9   3    0.98    0.46 
  11  -9   3    0.41    0.46 
  12  -9   3    0.43    0.41 
  13  -9   3    0.31    0.32 
  14  -9   3    2.36    0.45 
  -9  -8   3    1.95    0.29 
  -8  -8   3    2.17    0.36 
  -7  -8   3    0.31    0.20 
  -6  -8   3   -0.19    0.18 
  -5  -8   3    1.66    0.36 
  -4  -8   3    6.00    0.51 
  -3  -8   3    2.35    0.39 
  -2  -8   3    5.23    0.46 
  -1  -8   3    0.13    0.19 
   0  -8   3    5.08    0.41 
   1  -8   3    1.03    0.24 
   1  -8   3    1.15    0.26 
   3  -8   3    5.01    0.36 
   3  -8   3    5.00    0.43 
   4  -8   3    0.93    0.19 
   4  -8   3    1.18    0.31 
   5  -8   3    0.41    0.15 
   5  -8   3    0.24    0.31 
   6  -8   3    0.74    0.18 
   6  -8   3    1.11    0.41 
   7  -8   3    0.14    0.39 
   7  -8   3    0.16    0.12 
   8  -8   3    0.27    0.45 
   8  -8   3    0.40    0.14 
   9  -8   3    0.77    0.46 
  10  -8   3    2.79    0.58 
  11  -8   3    2.33    0.58 
  12  -8   3    0.85    0.42 
  13  -8   3    1.12    0.41 
  14  -8   3    2.47    0.47 
   9   7  -3    4.60    0.49 
  -9  -7   3    3.51    0.42 
   8   7  -3    0.74    0.30 
  -8  -7   3    0.79    0.23 
   7   7  -3    0.60    0.35 
  -7  -7   3    0.07    0.20 
   6   7  -3    0.23    0.32 
  -6  -7   3    0.07    0.22 
   5   7  -3    3.44    0.61 
  -5  -7   3    3.80    0.44 
   4   7  -3    3.27    0.58 
  -4  -7   3    2.56    0.38 
   3   7  -3    8.46    0.73 
  -3  -7   3    7.74    0.54 
  -2  -7   3    8.94    0.57 
  -1  -7   3    0.25    0.19 
   0  -7   3    1.05    0.23 
   1  -7   3    1.01    0.21 
   1  -7   3    1.12    0.22 
   2  -7   3    8.23    0.44 
   3  -7   3    6.04    0.43 
   3  -7   3    5.89    0.36 
   4  -7   3    7.48    0.54 
   4  -7   3    7.99    0.43 
   5  -7   3    1.45    0.35 
   5  -7   3    1.06    0.18 
   6  -7   3    0.84    0.16 
   6  -7   3    0.79    0.36 
   7  -7   3    0.15    0.39 
   7  -7   3    0.53    0.14 
   8  -7   3    0.10    0.41 
   8  -7   3    0.24    0.11 
   9  -7   3    0.76    0.47 
   9  -7   3    0.95    0.15 
  10  -7   3    4.62    0.67 
  11  -7   3    2.24    0.57 
  12  -7   3    0.29    0.39 
  13  -7   3    0.68    0.33 
  14  -7   3    2.28    0.45 
  10   6  -3    2.01    0.36 
   9   6  -3    2.10    0.46 
  -9  -6   3    1.86    0.31 
   8   6  -3    1.36    0.45 
  -8  -6   3    1.39    0.31 
   7   6  -3    1.71    0.48 
  -7  -6   3    1.43    0.30 
   6   6  -3    1.29    0.46 
  -6  -6   3    1.51    0.29 
   5   6  -3    5.69    0.70 
  -5  -6   3    4.49    0.45 
   4   6  -3    3.35    0.56 
  -4  -6   3    3.32    0.39 
   3   6  -3    9.85    0.77 
  -3  -6   3   10.53    0.60 
   2   6  -3    4.65    0.55 
  -2  -6   3    3.80    0.34 
   1   6  -3   30.68    1.50 
  -1  -6   3   29.50    1.19 
   0  -6   3    0.07    0.13 
   0  -6   3   -0.05    0.12 
   1  -6   3    0.88    0.17 
   1  -6   3    1.03    0.19 
   2  -6   3   12.45    0.63 
   2  -6   3   15.96    0.63 
   3  -6   3   15.89    0.79 
   3  -6   3   16.95    0.69 
   4  -6   3   33.33    1.49 
   4  -6   3   33.64    1.23 
   5  -6   3    2.60    0.39 
   5  -6   3    1.98    0.18 
   6  -6   3    5.03    0.30 
   6  -6   3    4.91    0.55 
   7  -6   3    1.83    0.20 
   7  -6   3    1.72    0.46 
   8  -6   3    2.41    0.51 
   8  -6   3    2.38    0.20 
   9  -6   3   -0.03    0.39 
   9  -6   3    0.11    0.08 
  10  -6   3    2.47    0.53 
  11  -6   3    0.62    0.40 
  12  -6   3    1.48    0.49 
  13  -6   3    0.89    0.43 
  14  -6   3    1.02    0.47 
  10   5  -3    2.03    0.45 
   9   5  -3    1.40    0.46 
  -9  -5   3    1.34    0.26 
   8   5  -3    0.43    0.36 
   8   5  -3    0.24    0.20 
  -8  -5   3    0.06    0.17 
   7   5  -3    6.27    0.50 
   7   5  -3    7.19    0.70 
  -7  -5   3    8.05    0.52 
   6   5  -3   16.30    1.09 
   6   5  -3   16.12    0.88 
  -6  -5   3   19.27    0.86 
   5   5  -3    7.38    0.48 
   5   5  -3    6.32    0.66 
  -5  -5   3    7.54    0.50 
   4   5  -3   -0.18    0.30 
   4   5  -3   -0.04    0.12 
  -4  -5   3    0.06    0.14 
   3   5  -3    4.63    0.50 
  -3  -5   3    4.20    0.36 
   2   5  -3   -0.07    0.21 
  -2  -5   3    0.01    0.11 
   1   5  -3    1.95    0.35 
  -1  -5   3    2.07    0.24 
   0   5  -3   18.51    0.94 
   0  -5   3   16.59    0.72 
   1  -5   3    4.09    0.27 
   1  -5   3    3.73    0.27 
   2  -5   3    2.57    0.20 
   3  -5   3    3.62    0.33 
   3  -5   3    2.79    0.21 
   4  -5   3    9.03    0.58 
   4  -5   3    9.07    0.42 
   5  -5   3    3.30    0.22 
   5  -5   3    4.19    0.45 
   6  -5   3    0.14    0.30 
   6  -5   3    0.38    0.11 
   7  -5   3    9.29    0.44 
   7  -5   3    9.65    0.74 
   8  -5   3    1.67    0.47 
   8  -5   3    2.02    0.20 
   9  -5   3    0.58    0.44 
   9  -5   3    0.87    0.15 
  10  -5   3    6.25    0.73 
  11  -5   3    0.88    0.41 
  12  -5   3    1.46    0.51 
  13  -5   3    0.19    0.39 
  14  -5   3    0.52    0.40 
  10   4  -3    0.67    0.33 
   9   4  -3    3.86    0.46 
   9   4  -3    4.50    0.65 
   8   4  -3    0.43    0.25 
   8   4  -3    0.52    0.37 
  -8  -4   3    0.44    0.19 
   7   4  -3   10.28    0.66 
   7   4  -3   12.78    0.88 
  -7  -4   3   10.74    0.61 
   6   4  -3    2.26    0.52 
   6   4  -3    1.86    0.31 
  -6  -4   3    2.94    0.33 
   5   4  -3    1.09    0.22 
   5   4  -3    1.46    0.41 
  -5  -4   3    0.95    0.22 
   4   4  -3    0.36    0.30 
   4   4  -3    0.53    0.16 
  -4  -4   3    0.50    0.17 
   3   4  -3   21.71    0.97 
   3   4  -3   23.45    1.17 
  -3  -4   3   22.67    0.92 
   2   4  -3    0.88    0.29 
  -2  -4   3    0.53    0.14 
   1   4  -3    0.00    0.21 
  -1  -4   3    0.10    0.10 
   0   4  -3   18.05    0.91 
   0  -4   3   18.20    0.72 
   1  -4   3    4.61    0.27 
   1  -4   3    4.43    0.28 
   2  -4   3    0.13    0.08 
   2  -4   3    0.06    0.03 
   3  -4   3    0.49    0.21 
   3  -4   3    0.46    0.10 
   4  -4   3   17.22    0.66 
   4  -4   3   16.23    0.85 
   5  -4   3   25.18    0.92 
   5  -4   3   24.58    1.19 
   6  -4   3    1.04    0.33 
   6  -4   3    0.66    0.12 
   7  -4   3    6.60    0.34 
   7  -4   3    5.68    0.60 
   8  -4   3    0.02    0.34 
   8  -4   3    0.01    0.07 
   9  -4   3    7.99    0.73 
  10  -4   3    5.67    0.70 
  11  -4   3   -0.19    0.32 
  12  -4   3    0.30    0.37 
  13  -4   3    0.01    0.35 
  14  -4   3    0.44    0.39 
  11   3  -3    1.31    0.35 
  10   3  -3    0.47    0.27 
  10   3  -3    0.48    0.37 
   9   3  -3    6.23    0.64 
   9   3  -3    6.02    0.53 
   8   3  -3    1.44    0.46 
   8   3  -3    1.32    0.31 
  -8  -3   3    1.61    0.25 
   7   3  -3    5.89    0.49 
   7   3  -3    6.95    0.67 
  -7  -3   3    6.68    0.44 
   6   3  -3   -0.03    0.19 
   6   3  -3    0.33    0.36 
  -6  -3   3    0.14    0.15 
   5   3  -3    0.24    0.29 
   5   3  -3    0.13    0.17 
  -5  -3   3    0.35    0.15 
   4   3  -3    0.63    0.17 
   4   3  -3    0.16    0.25 
  -4  -3   3    0.66    0.16 
   3   3  -3  104.58    4.18 
   3   3  -3  110.03    4.35 
  -3  -3   3  111.13    3.62 
   2   3  -3   14.62    0.78 
  -2  -3   3   14.14    0.60 
   1   3  -3    0.02    0.19 
  -1  -3   3    0.12    0.09 
   0   3  -3   -0.09    0.18 
   0  -3   3    0.10    0.08 
  -1   3  -3   49.69    2.17 
   1  -3   3   54.22    2.10 
   1  -3   3   57.34    1.83 
   2  -3   3   90.06    2.95 
   2  -3   3   88.93    3.47 
   3  -3   3    7.44    0.34 
   3  -3   3    7.03    0.47 
   4  -3   3    4.05    0.23 
   4  -3   3    4.03    0.39 
   5  -3   3   60.77    2.52 
   5  -3   3   60.82    2.06 
   6  -3   3    0.46    0.28 
   6  -3   3    0.40    0.11 
   7  -3   3    1.53    0.21 
   7  -3   3    1.59    0.18 
   7  -3   3    1.31    0.37 
  -8   3  -3   -0.08    0.12 
   8  -3   3   -0.23    0.28 
   9  -3   3    1.12    0.43 
  10  -3   3    5.18    0.65 
  11  -3   3    2.41    0.53 
  12  -3   3    0.12    0.36 
  13  -3   3    0.83    0.43 
  14  -3   3    1.10    0.42 
  11   2  -3    0.34    0.35 
  11   2  -3    0.95    0.33 
  10   2  -3    2.73    0.45 
  10   2  -3    2.39    0.54 
   9   2  -3    6.65    0.57 
   9   2  -3    7.63    0.67 
   8   2  -3   -0.05    0.33 
   8   2  -3   -0.15    0.26 
  -8  -2   3   -0.07    0.12 
   7   2  -3    1.40    0.31 
   7   2  -3    0.73    0.38 
  -7  -2   3    1.34    0.21 
   6   2  -3    0.03    0.20 
   6   2  -3    0.22    0.29 
  -6  -2   3    0.14    0.06 
   5   2  -3   36.32    1.56 
   5   2  -3   31.68    1.44 
   4   2  -3    0.56    0.25 
   4   2  -3    0.60    0.18 
  -4  -2   3    0.51    0.13 
   3   2  -3   12.74    0.60 
   3   2  -3   13.93    0.71 
  -3  -2   3   12.48    0.54 
   2   2  -3   25.71    1.14 
  -2  -2   3   25.36    0.92 
   1   2  -3   38.58    1.64 
  -1  -2   3   40.77    1.36 
   0   2  -3  381.93   14.83 
   0  -2   3  397.57   12.51 
  -1   2  -3  136.63    5.37 
   1  -2   3  142.64    4.53 
   2  -2   3   76.17    2.48 
   2  -2   3   74.04    2.93 
   3  -2   3   15.20    0.75 
   3  -2   3   15.63    0.59 
   4  -2   3    8.87    0.38 
   4  -2   3    8.22    0.52 
   5  -2   3    3.29    0.21 
   5  -2   3    4.27    0.24 
   5  -2   3    4.12    0.39 
   6  -2   3    1.38    0.16 
   6  -2   3    1.34    0.18 
   6  -2   3    1.52    0.32 
  -7   2  -3    0.64    0.17 
   7  -2   3    0.25    0.28 
   7  -2   3    0.42    0.17 
  -8   2  -3    0.08    0.15 
   8  -2   3   -0.03    0.32 
  -9   2  -3   11.41    0.57 
   9  -2   3   10.43    0.80 
 -10   2  -3    4.54    0.34 
  10  -2   3    6.49    0.62 
  11  -2   3    0.89    0.40 
  12  -2   3    0.89    0.43 
  13  -2   3    1.31    0.49 
  13   1  -3    1.46    0.39 
  12   1  -3    0.90    0.31 
  12   1  -3    0.40    0.31 
  11   1  -3    1.09    0.37 
  11   1  -3    1.62    0.43 
  10   1  -3    6.01    0.61 
  10   1  -3    5.17    0.55 
   9   1  -3    6.26    0.62 
   9   1  -3    5.73    0.61 
   8   1  -3   -0.08    0.28 
   8   1  -3   -0.13    0.33 
  -8  -1   3    0.04    0.11 
   7   1  -3   10.09    0.72 
   7   1  -3    8.18    0.61 
  -7  -1   3    8.47    0.43 
   6   1  -3   24.41    1.18 
   6   1  -3   25.82    1.24 
  -6  -1   3   26.46    0.96 
   5   1  -3   55.26    2.25 
   5   1  -3   51.08    2.17 
  -5  -1   3   53.33    1.81 
   4   1  -3    0.05    0.18 
   4   1  -3    0.01    0.16 
  -4  -1   3    0.07    0.07 
   3   1  -3   60.01    2.35 
   3   1  -3   63.84    2.44 
  -3  -1   3   56.52    1.99 
   2   1  -3    0.20    0.12 
   2   1  -3    0.02    0.17 
  -2  -1   3   -0.01    0.02 
   1   1  -3   12.05    0.59 
  -1  -1   3   12.73    0.47 
   0   1  -3   87.95    3.42 
   0  -1   3   88.80    2.89 
  -1   1  -3  505.11   20.13 
   1  -1   3  515.42   16.93 
   1  -1   3  567.36   20.01 
   2  -1   3    0.71    0.10 
   2  -1   3    0.60    0.16 
   3  -1   3    7.68    0.47 
   3  -1   3    8.27    0.37 
   4  -1   3    5.84    0.43 
   4  -1   3    6.41    0.32 
   5  -1   3    1.24    0.16 
   5  -1   3    1.16    0.27 
  -6   1  -3    1.38    0.21 
   6  -1   3    1.55    0.33 
   6  -1   3    1.32    0.21 
  -7   1  -3    0.03    0.13 
   7  -1   3   -0.05    0.16 
   7  -1   3   -0.18    0.25 
  -8   1  -3    0.72    0.21 
   8  -1   3    0.78    0.36 
  -9   1  -3   11.93    0.62 
   9  -1   3   13.25    0.88 
 -10   1  -3   13.46    0.67 
  10  -1   3   13.93    0.95 
  11  -1   3    1.67    0.46 
  12  -1   3    1.50    0.46 
  13  -1   3    2.11    0.51 
  14   0  -3    0.90    0.37 
  13   0  -3    0.65    0.33 
  12   0  -3    0.46    0.31 
  12   0  -3    0.09    0.30 
  11   0  -3    0.08    0.32 
  11   0  -3    0.63    0.35 
  10   0  -3    5.61    0.61 
  10   0  -3    6.23    0.63 
   9   0  -3    0.14    0.37 
   9   0  -3   -0.01    0.32 
   8   0  -3    0.21    0.36 
   8   0  -3    0.64    0.34 
   7   0  -3    4.06    0.41 
   7   0  -3    4.52    0.50 
  -7   0   3    3.79    0.24 
   6   0  -3   13.88    0.74 
   6   0  -3   12.56    0.75 
  -6   0   3   13.62    0.52 
   5   0  -3    5.32    0.40 
   5   0  -3    5.19    0.43 
  -5   0   3    5.03    0.24 
   4   0  -3    4.49    0.39 
   4   0  -3    4.09    0.33 
  -4   0   3    3.92    0.19 
   3   0  -3    0.11    0.14 
  -3   0   3    0.04    0.04 
   2   0  -3  146.34    5.45 
  -2   0   3  139.09    4.60 
  -1   0   3    1.75    0.12 
   0   0   3   98.05    3.20 
   1   0   3   50.83    1.75 
   1   0   3   53.25    2.08 
   2   0   3   25.40    1.11 
   2   0   3   25.28    0.92 
   3   0   3    1.65    0.15 
   3   0   3    1.88    0.25 
  -4   0  -3    3.24    0.24 
   4   0   3    3.28    0.36 
  -5   0  -3    0.84    0.18 
   5   0   3    0.58    0.24 
   5   0   3    0.55    0.12 
  -6   0  -3    2.45    0.27 
   6   0   3    2.59    0.38 
   6   0   3    2.13    0.26 
  -7   0  -3    0.24    0.16 
   7   0   3    0.07    0.13 
   7   0   3   -0.08    0.24 
  -8   0  -3    0.07    0.17 
   8   0   3   -0.16    0.28 
  -9   0  -3    4.88    0.37 
   9   0   3    5.80    0.63 
 -10   0  -3    7.32    0.47 
  10   0   3    7.18    0.67 
  11   0   3    0.18    0.30 
  12   0   3    2.03    0.50 
  13   0   3    1.43    0.44 
  14  -1  -3    0.74    0.35 
  13  -1  -3    1.11    0.43 
  12  -1  -3    0.41    0.39 
  12  -1  -3    0.11    0.30 
  11  -1  -3    0.38    0.33 
  11  -1  -3    0.84    0.40 
  10  -1  -3    5.07    0.60 
  10  -1  -3    4.64    0.63 
   9  -1  -3    3.85    0.52 
   9  -1  -3    3.58    0.58 
   8  -1  -3    2.73    0.49 
   8  -1  -3    3.26    0.47 
   7  -1  -3    3.52    0.43 
   7  -1  -3    3.55    0.47 
   6  -1  -3    8.42    0.58 
   5  -1  -3    3.21    0.36 
   4  -1  -3    5.29    0.38 
   3  -1  -3   22.70    1.02 
  -3   1   3   24.30    0.79 
   2  -1  -3   -0.01    0.16 
  -2   1   3    0.06    0.04 
  -1   1   3   42.22    1.42 
   0   1   3  494.56   15.85 
  -1  -1  -3   14.21    0.56 
  -2  -1  -3    0.59    0.13 
   2   1   3    0.38    0.14 
  -3  -1  -3    0.35    0.13 
   3   1   3    0.06    0.14 
  -4  -1  -3    2.71    0.24 
   4   1   3    3.24    0.35 
  -5  -1  -3    5.95    0.37 
   5   1   3    4.96    0.44 
  -6  -1  -3    0.02    0.16 
   6   1   3    0.00    0.22 
  -7  -1  -3    1.25    0.25 
   7   1   3    1.35    0.36 
  -8  -1  -3    1.58    0.27 
   8   1   3    1.81    0.40 
  -9  -1  -3    0.21    0.16 
   9   1   3    0.18    0.30 
 -10  -1  -3    1.66    0.29 
  10   1   3    1.46    0.42 
  11   1   3    0.15    0.27 
  12   1   3    1.31    0.43 
  14  -2  -3    0.77    0.43 
  13  -2  -3    1.19    0.35 
  13  -2  -3    1.51    0.47 
  12  -2  -3    0.33    0.33 
  12  -2  -3    0.16    0.35 
  11  -2  -3    2.12    0.43 
  11  -2  -3    2.20    0.52 
  10  -2  -3   11.11    0.76 
  10  -2  -3   10.31    0.84 
   9  -2  -3    3.28    0.48 
   9  -2  -3    3.16    0.58 
   8  -2  -3    9.29    0.73 
   7  -2  -3   16.28    0.92 
   6  -2  -3   13.97    0.79 
   5  -2  -3    3.28    0.35 
   4  -2  -3    8.03    0.47 
   3  -2  -3    2.02    0.27 
   3  -2  -3    1.70    0.13 
   2  -2  -3   16.70    0.61 
   1  -2  -3    0.38    0.10 
   0  -2  -3  221.74    7.18 
  -1  -2  -3   27.27    1.01 
  -2  -2  -3    4.06    0.28 
  -3  -2  -3    4.64    0.31 
   3   2   3    4.20    0.37 
  -4  -2  -3    2.99    0.30 
   4   2   3    3.07    0.36 
  -5  -2  -3    3.45    0.31 
   5   2   3    3.44    0.41 
  -6  -2  -3    0.14    0.19 
   6   2   3    0.39    0.26 
  -7  -2  -3   -0.14    0.16 
   7   2   3    0.07    0.25 
  -8  -2  -3    0.06    0.18 
   8   2   3    0.21    0.27 
  -9  -2  -3    0.18    0.20 
   9   2   3    0.16    0.25 
 -10  -2  -3    3.31    0.39 
  10   2   3    3.41    0.54 
  11   2   3    0.19    0.27 
  12   2   3    0.96    0.36 
  14  -3  -3    0.16    0.38 
  13  -3  -3    1.63    0.52 
  13  -3  -3    1.55    0.40 
  12  -3  -3   -0.04    0.44 
  12  -3  -3    0.22    0.29 
  11  -3  -3    3.85    0.63 
  11  -3  -3    2.83    0.48 
  10  -3  -3   21.27    1.17 
  10  -3  -3   21.46    1.25 
   9  -3  -3    2.10    0.53 
   8  -3  -3    1.49    0.44 
   7  -3  -3   11.58    0.76 
   6  -3  -3    2.38    0.38 
   5  -3  -3    2.75    0.33 
   4  -3  -3    1.89    0.14 
   4  -3  -3    2.24    0.30 
   3  -3  -3    2.76    0.18 
   3  -3  -3    3.12    0.32 
   2  -3  -3   47.14    1.61 
   1  -3  -3   30.10    1.09 
   0  -3  -3   92.49    3.10 
  -1  -3  -3    3.29    0.26 
  -2  -3  -3   18.80    0.78 
  -3  -3  -3    0.25    0.15 
  -4  -3  -3    3.22    0.33 
   4   3   3    3.78    0.39 
  -5  -3  -3    4.00    0.35 
   5   3   3    4.09    0.47 
  -6  -3  -3    6.65    0.45 
   6   3   3    6.58    0.57 
  -7  -3  -3    0.62    0.23 
   7   3   3    0.49    0.29 
  -8  -3  -3    0.19    0.20 
   8   3   3    0.04    0.25 
  -9  -3  -3    1.81    0.31 
   9   3   3    1.39    0.38 
 -10  -3  -3    0.57    0.20 
  10   3   3    0.49    0.31 
  11   3   3    0.28    0.25 
  14  -4  -3    0.42    0.42 
  13  -4  -3    0.46    0.26 
  13  -4  -3    0.14    0.43 
  12  -4  -3    0.20    0.43 
  12  -4  -3    0.45    0.34 
  11  -4  -3    2.23    0.55 
  11  -4  -3    1.54    0.40 
  10  -4  -3    8.55    0.78 
   9  -4  -3    0.28    0.44 
   8  -4  -3    5.32    0.64 
   7  -4  -3    1.19    0.39 
   6  -4  -3    1.84    0.35 
   5  -4  -3    2.64    0.36 
   5  -4  -3    2.45    0.18 
   4  -4  -3    4.13    0.24 
   4  -4  -3    4.01    0.38 
   3  -4  -3    0.59    0.13 
   3  -4  -3    0.57    0.24 
   2  -4  -3   37.69    1.34 
   1  -4  -3    2.03    0.22 
   0  -4  -3   67.36    2.32 
  -1  -4  -3    2.36    0.26 
  -2  -4  -3    1.48    0.24 
  -3  -4  -3    3.61    0.32 
  -4  -4  -3    4.02    0.35 
  -5  -4  -3    6.96    0.47 
  -6  -4  -3    1.13    0.28 
   6   4   3    1.08    0.33 
  -7  -4  -3    1.24    0.29 
   7   4   3    1.38    0.36 
  -8  -4  -3    1.46    0.33 
   8   4   3    1.82    0.42 
  -9  -4  -3    0.80    0.22 
   9   4   3    0.85    0.33 
 -10  -4  -3   -0.03    0.13 
  10   4   3    0.20    0.24 
  15  -5  -3    1.01    0.48 
  14  -5  -3    0.11    0.44 
  13  -5  -3    0.76    0.32 
  13  -5  -3    0.24    0.45 
  12  -5  -3    0.00    0.41 
  11  -5  -3    0.12    0.41 
  10  -5  -3    6.41    0.74 
   9  -5  -3    0.57    0.44 
   8  -5  -3    6.61    0.70 
   7  -5  -3    0.76    0.36 
   6  -5  -3   10.91    0.44 
   6  -5  -3   12.27    0.74 
   5  -5  -3   13.45    0.56 
   5  -5  -3   14.22    0.80 
   4  -5  -3    1.59    0.32 
   4  -5  -3    1.31    0.18 
   3  -5  -3    3.14    0.39 
   3  -5  -3    2.66    0.26 
   2  -5  -3    8.97    0.46 
   1  -5  -3    2.12    0.26 
   0  -5  -3    7.99    0.46 
  -1  -5  -3   14.71    0.69 
  -2  -5  -3    1.72    0.28 
  -3  -5  -3   13.02    0.68 
  -4  -5  -3    5.88    0.45 
  -5  -5  -3    0.30    0.22 
  -6  -5  -3    1.02    0.28 
  -7  -5  -3    0.32    0.24 
  -8  -5  -3    1.93    0.34 
  -9  -5  -3    0.62    0.20 
 -10  -5  -3    0.52    0.17 
  15  -6  -3    0.52    0.49 
  14  -6  -3    0.95    0.26 
  14  -6  -3    0.48    0.51 
  13  -6  -3   -0.14    0.43 
  12  -6  -3   -0.04    0.45 
  11  -6  -3    3.28    0.66 
  10  -6  -3    6.77    0.80 
   9  -6  -3    1.43    0.53 
   8  -6  -3    3.19    0.56 
   7  -6  -3    4.82    0.58 
   6  -6  -3    0.33    0.28 
   6  -6  -3    0.11    0.10 
   5  -6  -3   16.66    0.94 
   5  -6  -3   16.80    0.70 
   4  -6  -3   13.78    0.81 
   4  -6  -3   12.86    0.60 
   3  -6  -3    6.46    0.54 
   3  -6  -3    6.83    0.41 
   2  -6  -3    0.17    0.15 
   1  -6  -3    4.19    0.35 
   0  -6  -3    3.98    0.35 
  -1  -6  -3    1.82    0.31 
  -2  -6  -3    0.05    0.21 
  -3  -6  -3    3.74    0.42 
  -4  -6  -3    2.15    0.36 
  -5  -6  -3    0.18    0.21 
  -6  -6  -3    2.24    0.37 
  -7  -6  -3    0.15    0.16 
  -8  -6  -3    0.53    0.19 
  -9  -6  -3    0.57    0.19 
  14  -7  -3   -0.53    0.46 
  13  -7  -3   -0.05    0.48 
  12  -7  -3   -0.07    0.46 
  11  -7  -3    1.78    0.60 
  10  -7  -3    0.75    0.51 
   9  -7  -3    2.16    0.56 
   8  -7  -3    0.92    0.47 
   7  -7  -3    7.16    0.69 
   6  -7  -3   -0.08    0.30 
   6  -7  -3    0.03    0.11 
   5  -7  -3    4.62    0.55 
   5  -7  -3    4.34    0.34 
   4  -7  -3    0.17    0.32 
   4  -7  -3    0.44    0.19 
   3  -7  -3    0.37    0.19 
   2  -7  -3    5.33    0.41 
   1  -7  -3    1.40    0.29 
   0  -7  -3    2.79    0.37 
  -1  -7  -3   18.77    0.92 
  -2  -7  -3    1.10    0.30 
  -3  -7  -3    7.12    0.54 
  -4  -7  -3    1.35    0.31 
  -5  -7  -3    2.58    0.41 
  -6  -7  -3    1.84    0.36 
  -7  -7  -3    0.77    0.23 
  -8  -7  -3    0.51    0.18 
  14  -8  -3   -0.06    0.48 
  13  -8  -3    0.75    0.56 
  12  -8  -3    0.80    0.54 
  11  -8  -3    0.76    0.55 
  10  -8  -3    0.27    0.47 
   9  -8  -3    7.50    0.77 
   8  -8  -3   10.90    0.84 
   7  -8  -3    6.30    0.62 
   6  -8  -3    2.23    0.29 
   6  -8  -3    2.46    0.49 
   5  -8  -3   15.50    1.00 
   5  -8  -3   16.33    0.79 
   4  -8  -3    0.79    0.39 
   3  -8  -3    1.95    0.33 
   3  -8  -3    1.75    0.45 
   2  -8  -3    4.73    0.46 
   1  -8  -3    6.49    0.50 
   0  -8  -3    5.42    0.51 
  -1  -8  -3    4.36    0.48 
  -2  -8  -3    0.79    0.29 
  -3  -8  -3    3.02    0.43 
  -4  -8  -3    0.05    0.21 
  -5  -8  -3    1.72    0.36 
  -6  -8  -3    1.56    0.31 
  -7  -8  -3    0.71    0.19 
  14  -9  -3    0.44    0.57 
  13  -9  -3    0.44    0.59 
  12  -9  -3   -0.33    0.49 
  11  -9  -3    1.99    0.64 
  10  -9  -3    0.31    0.47 
   9  -9  -3    0.59    0.46 
   8  -9  -3    0.06    0.35 
   7  -9  -3    0.48    0.37 
   6  -9  -3    1.95    0.46 
   6  -9  -3    2.37    0.32 
   5  -9  -3    2.72    0.36 
   5  -9  -3    2.53    0.52 
   4  -9  -3    0.26    0.36 
   4  -9  -3    0.25    0.21 
   3  -9  -3    1.81    0.46 
   3  -9  -3    2.29    0.35 
   2  -9  -3    0.23    0.23 
   1  -9  -3    0.75    0.28 
   0  -9  -3    3.50    0.45 
  -1  -9  -3    2.38    0.39 
  -2  -9  -3    0.49    0.26 
  -3  -9  -3    0.51    0.27 
  -4  -9  -3    0.22    0.16 
  -5  -9  -3    2.23    0.37 
  -6  -9  -3    0.61    0.18 
  14 -10  -3    1.09    0.62 
  13 -10  -3   -0.20    0.52 
  12 -10  -3    0.49    0.57 
  11 -10  -3    0.91    0.52 
  10 -10  -3    1.37    0.51 
   9 -10  -3    0.11    0.42 
   8 -10  -3    0.29    0.38 
   7 -10  -3   -0.03    0.33 
   6 -10  -3    0.28    0.19 
   6 -10  -3    0.24    0.32 
   5 -10  -3   -0.07    0.34 
   5 -10  -3    0.22    0.19 
   4 -10  -3   -0.41    0.31 
   4 -10  -3    0.11    0.21 
   3 -10  -3    1.49    0.33 
   3 -10  -3    1.54    0.46 
   2 -10  -3    0.75    0.27 
   1 -10  -3   -0.09    0.20 
   0 -10  -3    0.22    0.26 
  -1 -10  -3    0.62    0.32 
  -2 -10  -3    1.46    0.39 
  -3 -10  -3    0.43    0.29 
  -4 -10  -3    1.42    0.28 
  -5 -10  -3    0.77    0.16 
  13 -11  -3   -0.21    0.43 
  12 -11  -3   -0.37    0.37 
  11 -11  -3   -0.34    0.40 
  10 -11  -3   -0.61    0.37 
   9 -11  -3    0.11    0.43 
   8 -11  -3    2.56    0.54 
   7 -11  -3   -0.17    0.36 
   6 -11  -3    0.34    0.39 
   5 -11  -3    0.06    0.22 
   5 -11  -3   -0.04    0.36 
   4 -11  -3    1.04    0.44 
   4 -11  -3    1.09    0.32 
   3 -11  -3    0.84    0.40 
   3 -11  -3    0.39    0.23 
   2 -11  -3    0.38    0.27 
   1 -11  -3    1.37    0.36 
   0 -11  -3   -0.11    0.20 
  -1 -11  -3    0.90    0.34 
  -2 -11  -3    1.08    0.35 
  -3 -11  -3    0.69    0.24 
  12 -12  -3    0.36    0.42 
  11 -12  -3   -0.18    0.37 
  10 -12  -3    0.13    0.39 
   9 -12  -3    1.78    0.54 
   8 -12  -3    2.08    0.53 
   7 -12  -3    0.53    0.40 
   6 -12  -3    2.46    0.54 
   5 -12  -3    3.02    0.44 
   5 -12  -3    2.91    0.58 
   4 -12  -3    1.02    0.45 
   4 -12  -3    1.17    0.33 
   3 -12  -3    0.10    0.33 
   3 -12  -3    0.41    0.26 
   2 -12  -3    1.07    0.41 
   2 -12  -3    0.98    0.36 
   1 -12  -3    1.26    0.35 
   0 -12  -3    0.50    0.27 
  -1 -12  -3    0.04    0.23 
  -2 -12  -3    2.74    0.50 
  11 -13  -3   -0.56    0.35 
  10 -13  -3   -0.03    0.37 
   9 -13  -3    1.15    0.45 
   8 -13  -3    1.60    0.47 
   7 -13  -3   -0.16    0.31 
   6 -13  -3    0.78    0.39 
   5 -13  -3    1.31    0.43 
   5 -13  -3    0.66    0.28 
   4 -13  -3    1.50    0.39 
   4 -13  -3    1.67    0.47 
   3 -13  -3    0.49    0.30 
   3 -13  -3    0.26    0.24 
   2 -13  -3    2.37    0.46 
   2 -13  -3    1.54    0.40 
   1 -13  -3    1.91    0.44 
   0 -13  -3    0.19    0.25 
   9 -14  -3    0.68    0.33 
   8 -14  -3    1.13    0.40 
   7 -14  -3    0.59    0.32 
   6 -14  -3    0.71    0.35 
   5 -14  -3    0.96    0.33 
   4 -14  -3    0.12    0.21 
   4 -14  -3    1.02    0.32 
   3 -14  -3    1.88    0.38 
   3 -14  -3    0.34    0.30 
   4 -16   4    1.79    0.39 
   5 -16   4    0.14    0.26 
   6 -16   4    0.37    0.25 
   0 -15   4    1.30    0.37 
   1 -15   4    0.23    0.26 
   2 -15   4    0.35    0.29 
   3 -15   4    1.01    0.34 
   4 -15   4   -0.07    0.21 
   5 -15   4    0.75    0.30 
   6 -15   4    0.50    0.25 
   7 -15   4    0.05    0.19 
  10 -15   4    0.17    0.36 
  -2 -14   4    0.44    0.18 
  -1 -14   4    0.52    0.29 
   0 -14   4    0.52    0.32 
   1 -14   4    0.12    0.26 
   2 -14   4    0.90    0.34 
   3 -14   4    1.14    0.35 
   4 -14   4    0.45    0.27 
   5 -14   4    2.15    0.40 
   6 -14   4    0.43    0.25 
   7 -14   4    0.46    0.25 
   8 -14   4    0.97    0.52 
   9 -14   4    1.87    0.56 
  10 -14   4    0.62    0.45 
  11 -14   4    0.42    0.36 
  12 -14   4    1.82    0.41 
  -3 -13   4   -0.03    0.12 
  -2 -13   4    1.46    0.31 
  -1 -13   4    0.79    0.32 
   0 -13   4    0.41    0.30 
   1 -13   4   -0.18    0.23 
   2 -13   4    0.39    0.29 
   3 -13   4    2.35    0.40 
   4 -13   4    2.47    0.40 
   5 -13   4    5.70    0.50 
   6 -13   4    0.05    0.20 
   6 -13   4    0.17    0.40 
   7 -13   4    0.30    0.43 
   7 -13   4    0.33    0.22 
   8 -13   4    0.29    0.17 
   8 -13   4   -0.27    0.44 
   9 -13   4    0.61    0.49 
  10 -13   4    1.41    0.51 
  11 -13   4   -0.20    0.36 
  12 -13   4    0.74    0.40 
  -5 -12   4    1.43    0.24 
  -4 -12   4    1.76    0.31 
  -3 -12   4    0.32    0.21 
  -2 -12   4    0.44    0.22 
  -1 -12   4    1.50    0.37 
   0 -12   4    2.73    0.47 
   1 -12   4   -0.09    0.22 
   2 -12   4    0.97    0.31 
   3 -12   4    5.08    0.52 
   4 -12   4    4.87    0.55 
   4 -12   4    5.61    0.52 
   5 -12   4   15.91    0.87 
   5 -12   4   16.95    1.00 
   6 -12   4   -0.22    0.38 
   6 -12   4   -0.02    0.19 
   7 -12   4    3.34    0.59 
   7 -12   4    3.62    0.41 
   8 -12   4    1.26    0.25 
   8 -12   4    0.49    0.47 
   9 -12   4    0.61    0.47 
  10 -12   4    0.65    0.45 
  11 -12   4    0.45    0.41 
  12 -12   4    0.89    0.44 
  13 -12   4    0.91    0.33 
  -6 -11   4   -0.15    0.15 
  -5 -11   4    1.46    0.29 
  -4 -11   4    2.62    0.44 
  -3 -11   4    0.03    0.22 
  -2 -11   4    0.35    0.25 
  -1 -11   4    0.34    0.24 
   0 -11   4    5.57    0.51 
   1 -11   4    1.97    0.37 
   2 -11   4    1.39    0.33 
   3 -11   4    4.93    0.43 
   3 -11   4    3.18    0.35 
   4 -11   4    1.12    0.38 
   4 -11   4    1.32    0.29 
   5 -11   4    1.24    0.42 
   5 -11   4    1.25    0.27 
   6 -11   4    0.33    0.37 
   6 -11   4    0.40    0.20 
   7 -11   4    6.22    0.72 
   7 -11   4    5.24    0.42 
   8 -11   4    2.24    0.56 
   8 -11   4    2.81    0.31 
   9 -11   4   -0.34    0.38 
  10 -11   4    0.53    0.44 
  11 -11   4    0.13    0.40 
  12 -11   4    0.82    0.40 
  13 -11   4    0.79    0.33 
  -7 -10   4    0.98    0.23 
  -6 -10   4    0.32    0.15 
  -5 -10   4    1.83    0.35 
  -4 -10   4   -0.13    0.19 
  -3 -10   4   -0.01    0.21 
  -2 -10   4    5.81    0.57 
  -1 -10   4    3.84    0.48 
   0 -10   4    4.01    0.48 
   1 -10   4    0.43    0.24 
   1 -10   4    0.29    0.23 
   2 -10   4    0.55    0.25 
   2 -10   4    0.68    0.26 
   3 -10   4    5.20    0.43 
   3 -10   4    7.75    0.50 
   4 -10   4    6.28    0.60 
   4 -10   4    6.74    0.48 
   5 -10   4    8.77    0.72 
   5 -10   4    9.13    0.55 
   6 -10   4   -0.48    0.39 
   6 -10   4   -0.10    0.13 
   7 -10   4   13.54    0.69 
   7 -10   4   15.14    0.98 
   8 -10   4    4.91    0.37 
   8 -10   4    7.18    0.73 
   9 -10   4    0.06    0.39 
  10 -10   4    0.32    0.45 
  11 -10   4   -0.03    0.41 
  12 -10   4    0.37    0.35 
  13 -10   4    0.86    0.35 
  14 -10   4    1.31    0.28 
  -8  -9   4    0.99    0.23 
  -7  -9   4    1.54    0.29 
  -6  -9   4    1.59    0.34 
  -5  -9   4    0.93    0.30 
  -4  -9   4    8.72    0.61 
  -3  -9   4    1.40    0.32 
  -2  -9   4    9.08    0.64 
  -1  -9   4    6.29    0.57 
   0  -9   4    4.34    0.39 
   0  -9   4    4.97    0.45 
   1  -9   4    3.60    0.36 
   1  -9   4    3.78    0.41 
   2  -9   4    4.02    0.40 
   2  -9   4    4.50    0.43 
   3  -9   4    1.38    0.25 
   3  -9   4    0.59    0.17 
   4  -9   4    2.92    0.33 
   4  -9   4    2.96    0.43 
   5  -9   4    2.00    0.28 
   5  -9   4    2.49    0.45 
   6  -9   4    7.34    0.69 
   6  -9   4    5.35    0.39 
   7  -9   4   10.53    0.82 
   7  -9   4    9.33    0.51 
   8  -9   4    3.90    0.30 
   8  -9   4    3.70    0.60 
   9  -9   4    0.16    0.10 
   9  -9   4   -0.12    0.40 
  10  -9   4    0.48    0.43 
  11  -9   4    0.27    0.41 
  12  -9   4    0.85    0.43 
  13  -9   4    0.62    0.31 
  14  -9   4    1.23    0.24 
   8   8  -4    1.69    0.33 
  -8  -8   4    0.65    0.18 
   7   8  -4    0.70    0.32 
  -7  -8   4    0.25    0.19 
   6   8  -4    0.49    0.42 
  -6  -8   4    0.20    0.20 
   5   8  -4    3.04    0.59 
  -5  -8   4    2.44    0.38 
   4   8  -4    6.09    0.76 
  -4  -8   4    5.55    0.48 
   3   8  -4    4.93    0.70 
  -3  -8   4    4.66    0.47 
  -2  -8   4    6.01    0.50 
  -1  -8   4    4.23    0.44 
   0  -8   4    0.64    0.22 
   0  -8   4    0.51    0.19 
   1  -8   4    2.03    0.27 
   1  -8   4    2.44    0.32 
   2  -8   4    0.15    0.14 
   2  -8   4    0.45    0.21 
   3  -8   4    1.47    0.20 
   4  -8   4    0.30    0.15 
   4  -8   4    0.15    0.26 
   5  -8   4    4.82    0.35 
   5  -8   4    5.38    0.57 
   6  -8   4   16.64    0.73 
   6  -8   4   17.26    0.99 
   7  -8   4    4.86    0.33 
   7  -8   4    5.59    0.65 
   8  -8   4    4.57    0.32 
   8  -8   4    5.18    0.68 
   9  -8   4   -0.04    0.39 
   9  -8   4    0.35    0.12 
  10  -8   4    0.06    0.38 
  11  -8   4    0.32    0.41 
  12  -8   4    0.83    0.42 
  13  -8   4    0.32    0.28 
  14  -8   4    1.12    0.31 
   9   7  -4    1.42    0.31 
   8   7  -4    0.61    0.35 
  -8  -7   4    1.13    0.28 
   7   7  -4   -0.13    0.32 
  -7  -7   4   -0.08    0.17 
   6   7  -4    7.84    0.75 
  -6  -7   4    6.24    0.50 
   5   7  -4   16.10    1.10 
  -5  -7   4   16.16    0.83 
   4   7  -4   10.44    0.85 
  -4  -7   4    8.77    0.59 
   3   7  -4   11.98    0.89 
  -3  -7   4   11.18    0.65 
   2   7  -4   34.07    1.81 
  -2  -7   4   38.79    1.47 
   1   7  -4    4.04    0.56 
  -1  -7   4    3.35    0.36 
   0  -7   4    6.95    0.45 
   1  -7   4    0.26    0.15 
   1  -7   4    0.16    0.13 
   2  -7   4    7.60    0.47 
   2  -7   4    8.42    0.45 
   4  -7   4    3.34    0.27 
   4  -7   4    4.23    0.43 
   5  -7   4    3.32    0.45 
   5  -7   4    2.87    0.25 
   6  -7   4    4.68    0.31 
   6  -7   4    5.36    0.58 
   7  -7   4    3.04    0.25 
   7  -7   4    3.76    0.58 
   8  -7   4    0.63    0.45 
   8  -7   4    1.05    0.18 
   9  -7   4   -0.20    0.38 
   9  -7   4    0.31    0.11 
  10  -7   4    2.06    0.52 
  11  -7   4    2.89    0.57 
  12  -7   4    0.64    0.39 
  14  -7   4    2.00    0.35 
  10   6  -4    3.43    0.50 
   9   6  -4    0.82    0.35 
   8   6  -4    0.21    0.35 
  -8  -6   4    0.34    0.18 
   7   6  -4    3.56    0.63 
  -7  -6   4    3.77    0.41 
   6   6  -4    0.85    0.43 
  -6  -6   4    0.28    0.21 
   5   6  -4    2.08    0.53 
  -5  -6   4    1.68    0.31 
   4   6  -4    0.72    0.40 
  -4  -6   4    0.94    0.25 
   3   6  -4    0.08    0.33 
  -3  -6   4   -0.06    0.13 
   2   6  -4    3.09    0.49 
  -2  -6   4    2.94    0.33 
   1   6  -4    0.33    0.27 
  -1  -6   4    0.61    0.18 
   0   6  -4   44.18    2.05 
   0  -6   4   46.72    1.67 
   1  -6   4    7.89    0.43 
   1  -6   4    8.96    0.45 
   2  -6   4   23.50    0.92 
   2  -6   4   22.62    1.01 
   3  -6   4    1.42    0.19 
   4  -6   4    3.47    0.26 
   4  -6   4    3.87    0.42 
   5  -6   4   16.72    0.90 
   5  -6   4   15.94    0.68 
   6  -6   4    8.43    0.68 
   6  -6   4    9.73    0.46 
   7  -6   4    1.48    0.45 
   7  -6   4    1.38    0.19 
   8  -6   4    1.38    0.47 
   8  -6   4    1.62    0.21 
   9  -6   4   -0.04    0.39 
   9  -6   4    0.22    0.11 
  10  -6   4    3.10    0.56 
  11  -6   4    3.04    0.58 
  12  -6   4    0.20    0.32 
  13  -6   4    1.29    0.34 
  14  -6   4    0.94    0.24 
  11   5  -4    2.97    0.48 
  10   5  -4    0.47    0.29 
   9   5  -4    0.00    0.32 
   8   5  -4    0.31    0.36 
  -8  -5   4    0.13    0.16 
   7   5  -4    2.81    0.56 
  -7  -5   4    2.25    0.31 
   6   5  -4    0.36    0.19 
   6   5  -4    0.20    0.41 
  -6  -5   4    0.59    0.21 
   5   5  -4   15.65    1.01 
   5   5  -4   14.79    0.76 
  -5  -5   4   15.09    0.74 
   4   5  -4   11.65    0.58 
   4   5  -4   11.50    0.82 
  -4  -5   4   10.05    0.57 
   3   5  -4    6.55    0.60 
  -3  -5   4    6.19    0.42 
   2   5  -4   -0.03    0.26 
  -2  -5   4    0.19    0.12 
   1   5  -4    0.01    0.24 
  -1  -5   4   -0.09    0.09 
   0   5  -4   19.87    0.99 
   0  -5   4   17.15    0.74 
  -1   5  -4    3.63    0.38 
   1  -5   4    4.01    0.27 
   2  -5   4    0.90    0.20 
   2  -5   4    1.23    0.17 
   3  -5   4    7.41    0.38 
   3  -5   4    7.25    0.48 
   4  -5   4    5.38    0.31 
   4  -5   4    5.93    0.48 
   5  -5   4    0.80    0.30 
   5  -5   4    0.50    0.12 
   6  -5   4    0.21    0.31 
   6  -5   4    0.46    0.12 
   7  -5   4    1.79    0.20 
   7  -5   4    1.61    0.43 
   8  -5   4    5.09    0.32 
   8  -5   4    5.83    0.67 
   9  -5   4    0.39    0.11 
   9  -5   4    0.06    0.37 
  10  -5   4    0.81    0.41 
  11  -5   4    1.86    0.48 
  12  -5   4    0.11    0.28 
  13  -5   4    0.48    0.41 
  14  -5   4    1.69    0.52 
  11   4  -4    3.41    0.55 
  10   4  -4    0.30    0.33 
   9   4  -4   -0.01    0.33 
   8   4  -4    0.96    0.25 
   8   4  -4    0.63    0.42 
  -8  -4   4    0.62    0.20 
   7   4  -4    0.10    0.18 
   7   4  -4    0.08    0.37 
  -7  -4   4    0.15    0.16 
   6   4  -4   12.66    0.71 
   6   4  -4   14.61    0.96 
  -6  -4   4   13.87    0.67 
   5   4  -4   25.11    1.15 
   5   4  -4   27.49    1.38 
  -5  -4   4   26.45    1.06 
   4   4  -4   15.86    0.92 
   4   4  -4   14.12    0.70 
  -4  -4   4   15.00    0.68 
   3   4  -4   22.55    1.16 
  -3  -4   4   22.01    0.90 
   2   4  -4   10.29    0.68 
  -2  -4   4   10.42    0.50 
   1   4  -4    0.98    0.28 
  -1  -4   4    1.22    0.16 
   0   4  -4   55.22    2.34 
   0  -4   4   56.47    1.93 
  -1   4  -4   19.16    0.96 
   1  -4   4   20.83    0.78 
   2  -4   4    3.41    0.23 
   2  -4   4    3.49    0.28 
   3  -4   4    4.61    0.38 
   3  -4   4    4.85    0.27 
   4  -4   4   25.63    0.97 
   4  -4   4   26.53    1.20 
   5  -4   4    5.74    0.31 
   5  -4   4    5.52    0.49 
   6  -4   4    0.15    0.09 
   6  -4   4   -0.14    0.26 
   7  -4   4    1.93    0.44 
   7  -4   4    1.91    0.21 
   8  -4   4    0.57    0.37 
   8  -4   4    0.72    0.16 
   9  -4   4    2.20    0.25 
   9  -4   4    1.89    0.47 
  10  -4   4    2.66    0.50 
  11  -4   4    5.77    0.70 
  12  -4   4    0.09    0.38 
  13  -4   4    0.40    0.40 
  14  -4   4    1.64    0.50 
  12   3  -4    1.27    0.33 
  11   3  -4    1.97    0.48 
  10   3  -4    0.99    0.43 
   9   3  -4    0.51    0.41 
   9   3  -4    0.51    0.26 
   8   3  -4    0.47    0.24 
   8   3  -4    0.69    0.37 
  -8  -3   4    0.24    0.09 
   7   3  -4    0.73    0.26 
   7   3  -4    0.88    0.41 
  -7  -3   4    0.21    0.11 
   6   3  -4    7.93    0.66 
   6   3  -4    7.10    0.49 
  -6  -3   4    7.57    0.43 
   5   3  -4   44.26    1.94 
   5   3  -4   40.83    1.75 
  -5  -3   4   42.69    1.54 
   4   3  -4   14.77    0.84 
   4   3  -4   13.29    0.67 
  -4  -3   4   16.31    0.65 
   3   3  -4    0.90    0.28 
  -3  -3   4    1.07    0.16 
   2   3  -4   28.13    1.28 
  -2  -3   4   27.47    1.02 
   1   3  -4   29.95    1.30 
  -1  -3   4   27.79    1.05 
   0   3  -4    9.92    0.61 
   0  -3   4   12.39    0.49 
  -1   3  -4  267.08   10.64 
   1  -3   4  280.69    8.98 
   1  -3   4  287.01   10.55 
  -2   3  -4    0.60    0.15 
   2  -3   4    0.68    0.12 
   2  -3   4    0.53    0.15 
   3  -3   4   16.28    0.64 
   3  -3   4   16.42    0.79 
   4  -3   4   17.28    0.88 
   4  -3   4   18.21    0.70 
   5  -3   4    4.22    0.42 
   5  -3   4    4.56    0.27 
   6  -3   4    0.74    0.28 
   6  -3   4    0.65    0.14 
   7  -3   4    2.88    0.23 
   7  -3   4    1.95    0.42 
   8  -3   4    0.97    0.38 
  -9   3  -4    0.09    0.15 
   9  -3   4   -0.06    0.31 
 -10   3  -4    1.52    0.25 
  10  -3   4    0.77    0.37 
  11  -3   4    1.63    0.48 
  12  -3   4   -0.11    0.36 
  13  -3   4    0.69    0.35 
  12   2  -4    0.95    0.31 
  11   2  -4    0.73    0.33 
  11   2  -4    0.25    0.33 
  10   2  -4    0.24    0.27 
  10   2  -4    0.05    0.31 
   9   2  -4    0.18    0.29 
   9   2  -4    0.28    0.35 
   8   2  -4    0.60    0.29 
   8   2  -4    0.65    0.39 
  -8  -2   4    1.08    0.19 
   7   2  -4   -0.08    0.26 
   7   2  -4   -0.25    0.33 
  -7  -2   4    0.15    0.12 
   6   2  -4    0.11    0.28 
   6   2  -4   -0.27    0.20 
  -6  -2   4   -0.08    0.10 
   5   2  -4    3.47    0.35 
   5   2  -4    4.08    0.49 
  -5  -2   4    2.86    0.21 
   4   2  -4   21.58    1.02 
   4   2  -4   17.57    0.85 
   3   2  -4   29.43    1.29 
   3   2  -4   26.08    1.13 
  -3  -2   4   28.25    1.00 
   2   2  -4    2.24    0.31 
  -2  -2   4    2.09    0.17 
   1   2  -4   24.31    1.06 
  -1  -2   4   21.87    0.84 
   0   2  -4  199.82    7.62 
   0  -2   4  197.21    6.42 
  -1   2  -4  126.65    4.94 
   1  -2   4  129.71    4.19 
  -2   2  -4   28.78    1.15 
   2  -2   4   27.88    1.01 
   2  -2   4   28.45    1.21 
   3  -2   4    9.87    0.43 
   3  -2   4    9.36    0.54 
   4  -2   4    6.64    0.46 
   4  -2   4    6.88    0.34 
   5  -2   4   10.34    0.63 
   5  -2   4   10.14    0.47 
   6  -2   4    0.12    0.24 
   6  -2   4    0.22    0.10 
  -7   2  -4    0.09    0.16 
   7  -2   4   -0.09    0.25 
  -8   2  -4    1.32    0.25 
   8  -2   4    0.87    0.37 
  -9   2  -4    3.50    0.35 
   9  -2   4    3.40    0.53 
 -10   2  -4    0.16    0.18 
  10  -2   4    0.12    0.31 
  11  -2   4    0.48    0.37 
  12  -2   4    0.25    0.36 
  13  -2   4    0.26    0.37 
  12   1  -4    0.69    0.32 
  12   1  -4    0.54    0.32 
  11   1  -4    0.57    0.31 
  11   1  -4    0.10    0.33 
  10   1  -4    1.93    0.43 
  10   1  -4    1.91    0.49 
   9   1  -4    1.57    0.42 
   9   1  -4    0.93    0.42 
   8   1  -4    4.42    0.63 
   7   1  -4    0.17    0.33 
   7   1  -4    0.14    0.30 
  -7  -1   4    0.27    0.11 
   6   1  -4    0.21    0.25 
   6   1  -4    0.20    0.28 
  -6  -1   4    0.12    0.09 
   5   1  -4    0.97    0.28 
   5   1  -4    0.75    0.25 
  -5  -1   4    0.62    0.11 
   4   1  -4    7.94    0.50 
   4   1  -4    7.46    0.45 
  -4  -1   4    7.28    0.34 
   3   1  -4    9.83    0.49 
   3   1  -4   10.16    0.56 
  -3  -1   4    9.87    0.40 
   2   1  -4   29.56    1.20 
   2   1  -4   29.36    1.28 
  -2  -1   4   30.25    1.03 
   1   1  -4    2.52    0.25 
  -1  -1   4    2.39    0.16 
   0   1  -4   62.44    2.42 
   0  -1   4   60.34    2.04 
  -1   1  -4   96.73    3.69 
   1  -1   4   95.33    3.71 
   1  -1   4   94.54    3.14 
   2  -1   4    0.17    0.13 
   2  -1   4    0.30    0.08 
   3  -1   4   15.60    0.75 
   3  -1   4   14.12    0.60 
   4  -1   4   -0.07    0.05 
   4  -1   4   -0.18    0.15 
   5  -1   4    6.05    0.48 
   5  -1   4    6.50    0.35 
  -6   1  -4    0.53    0.19 
   6  -1   4    0.33    0.26 
  -7   1  -4    0.42    0.19 
   7  -1   4    0.37    0.28 
  -8   1  -4    3.46    0.32 
   8  -1   4    4.96    0.58 
  -9   1  -4    0.41    0.20 
   9  -1   4    0.41    0.32 
 -10   1  -4    0.85    0.23 
  10  -1   4    0.34    0.32 
  11  -1   4    0.49    0.34 
  12  -1   4    0.58    0.36 
  13  -1   4    0.24    0.30 
  13   0  -4    0.94    0.30 
  13   0  -4    0.47    0.36 
  12   0  -4    0.98    0.38 
  12   0  -4    0.70    0.39 
  11   0  -4    0.25    0.37 
  11   0  -4    0.04    0.33 
  10   0  -4    0.21    0.33 
  10   0  -4    0.89    0.39 
   9   0  -4    1.35    0.44 
   9   0  -4    1.66    0.46 
   8   0  -4   12.49    0.81 
   8   0  -4   12.18    0.81 
   7   0  -4    1.30    0.38 
   7   0  -4    1.72    0.36 
  -7   0   4    1.29    0.14 
   6   0  -4    0.13    0.26 
   6   0  -4   -0.10    0.21 
  -6   0   4    0.07    0.06 
   5   0  -4   75.94    3.04 
   5   0  -4   74.61    3.11 
  -5   0   4   78.02    2.51 
   4   0  -4    7.87    0.45 
  -4   0   4    7.25    0.30 
   3   0  -4   25.66    1.09 
  -3   0   4   25.72    0.88 
  -1   0   4    1.15    0.11 
   0   0   4    1.56    0.14 
   1   0   4   21.57    0.80 
   1   0   4   20.83    0.95 
   2   0   4   36.10    1.26 
   2   0   4   34.47    1.50 
   3   0   4    0.96    0.21 
   3   0   4    0.72    0.13 
  -4   0  -4    5.29    0.33 
   4   0   4    5.13    0.42 
  -5   0  -4    0.75    0.19 
   5   0   4    0.37    0.22 
  -6   0  -4    1.05    0.23 
   6   0   4    0.61    0.29 
  -7   0  -4    0.20    0.18 
   7   0   4   -0.14    0.25 
  -8   0  -4    2.04    0.30 
   8   0   4    2.05    0.43 
  -9   0  -4    3.75    0.38 
   9   0   4    3.31    0.53 
 -10   0  -4    3.04    0.36 
  10   0   4    2.76    0.52 
  11   0   4    2.25    0.50 
  12   0   4    0.39    0.34 
  14  -1  -4    1.03    0.37 
  13  -1  -4    1.03    0.43 
  13  -1  -4    0.42    0.29 
  12  -1  -4    2.36    0.57 
  12  -1  -4    2.04    0.51 
  11  -1  -4    1.01    0.40 
  11  -1  -4    1.74    0.47 
  10  -1  -4    0.51    0.41 
  10  -1  -4    0.29    0.34 
   9  -1  -4    4.68    0.64 
   9  -1  -4    4.50    0.57 
   8  -1  -4   14.61    0.89 
   8  -1  -4   16.24    0.93 
   7  -1  -4    0.28    0.26 
   7  -1  -4    0.04    0.31 
   6  -1  -4    4.09    0.42 
   5  -1  -4    5.52    0.44 
   4  -1  -4    1.53    0.24 
  -4   1   4    1.43    0.09 
   3  -1  -4   16.90    0.80 
  -3   1   4   17.33    0.61 
  -2   1   4    0.02    0.02 
  -1   1   4   30.57    1.08 
   0   1   4    0.19    0.08 
   1   1   4    1.98    0.17 
  -2  -1  -4    6.48    0.35 
   2   1   4    6.60    0.44 
  -3  -1  -4   14.63    0.64 
   3   1   4   14.06    0.76 
  -4  -1  -4    2.27    0.26 
   4   1   4    1.81    0.30 
  -5  -1  -4    2.65    0.30 
   5   1   4    2.64    0.38 
  -6  -1  -4    0.14    0.18 
   6   1   4   -0.19    0.22 
  -7  -1  -4    0.17    0.18 
   7   1   4    0.48    0.29 
  -8  -1  -4    6.01    0.43 
   8   1   4    6.34    0.59 
  -9  -1  -4    2.05    0.32 
   9   1   4    1.73    0.43 
 -10  -1  -4    3.20    0.38 
  10   1   4    2.32    0.50 
  11   1   4    1.55    0.46 
  12   1   4    0.26    0.25 
  14  -2  -4    0.63    0.38 
  13  -2  -4    0.26    0.41 
  13  -2  -4    0.36    0.32 
  12  -2  -4    3.33    0.63 
  12  -2  -4    3.05    0.55 
  11  -2  -4    0.68    0.36 
  11  -2  -4    0.62    0.43 
  10  -2  -4    3.08    0.50 
  10  -2  -4    3.54    0.60 
   9  -2  -4    1.17    0.49 
   9  -2  -4    1.19    0.40 
   8  -2  -4    1.34    0.44 
   7  -2  -4    1.07    0.37 
   6  -2  -4    0.19    0.27 
   5  -2  -4    0.39    0.22 
   4  -2  -4    8.37    0.50 
   4  -2  -4    7.80    0.32 
   3  -2  -4    3.86    0.34 
   3  -2  -4    4.49    0.22 
   2  -2  -4    1.91    0.17 
   1  -2  -4   42.91    1.49 
   0  -2  -4    4.02    0.26 
  -1  -2  -4   30.19    1.13 
  -2  -2  -4   13.84    0.62 
  -3  -2  -4    6.49    0.40 
   3   2   4    6.58    0.48 
  -4  -2  -4    1.52    0.25 
   4   2   4    1.69    0.30 
  -5  -2  -4    0.41    0.21 
   5   2   4    0.35    0.23 
  -6  -2  -4    1.52    0.28 
   6   2   4    2.19    0.38 
  -7  -2  -4    1.81    0.30 
   7   2   4    1.50    0.37 
  -8  -2  -4    3.51    0.39 
   8   2   4    4.39    0.55 
  -9  -2  -4    0.60    0.23 
   9   2   4    0.42    0.30 
 -10  -2  -4    1.16    0.26 
  10   2   4    1.18    0.39 
  11   2   4    0.61    0.32 
  14  -3  -4    0.98    0.46 
  13  -3  -4    0.94    0.45 
  13  -3  -4    0.63    0.32 
  12  -3  -4    2.43    0.50 
  12  -3  -4    2.26    0.56 
  11  -3  -4    0.52    0.48 
  11  -3  -4    1.01    0.39 
  10  -3  -4    6.08    0.74 
  10  -3  -4    5.94    0.57 
   9  -3  -4   -0.10    0.42 
   8  -3  -4    4.39    0.58 
   7  -3  -4    2.27    0.45 
   6  -3  -4    1.81    0.35 
   5  -3  -4    0.00    0.20 
   4  -3  -4    3.84    0.22 
   4  -3  -4    4.01    0.38 
   3  -3  -4   -0.07    0.18 
   3  -3  -4    0.01    0.08 
   2  -3  -4    1.02    0.16 
   1  -3  -4    2.33    0.23 
   0  -3  -4   39.23    1.43 
  -1  -3  -4   11.25    0.55 
  -2  -3  -4    0.05    0.14 
  -3  -3  -4    2.39    0.29 
  -4  -3  -4    7.02    0.46 
  -5  -3  -4    0.52    0.22 
   5   3   4    0.42    0.27 
  -6  -3  -4    0.97    0.26 
   6   3   4    0.82    0.32 
  -7  -3  -4    0.62    0.22 
   7   3   4    0.60    0.30 
  -8  -3  -4    5.04    0.43 
   8   3   4    5.82    0.58 
  -9  -3  -4    0.31    0.20 
   9   3   4    0.41    0.28 
 -10  -3  -4    0.81    0.20 
  10   3   4    0.87    0.36 
  11   3   4    0.53    0.26 
  14  -4  -4    0.59    0.25 
  14  -4  -4    0.80    0.47 
  13  -4  -4    0.25    0.29 
  13  -4  -4    0.36    0.43 
  12  -4  -4    0.21    0.45 
  12  -4  -4   -0.33    0.26 
  11  -4  -4    2.00    0.56 
  10  -4  -4    6.69    0.72 
   9  -4  -4    8.46    0.84 
   8  -4  -4    6.80    0.71 
   7  -4  -4    5.79    0.60 
   6  -4  -4    0.71    0.29 
   5  -4  -4    7.25    0.53 
   5  -4  -4    6.87    0.33 
   4  -4  -4    1.04    0.28 
   4  -4  -4    1.06    0.15 
   3  -4  -4   11.58    0.51 
   2  -4  -4   35.80    1.30 
   1  -4  -4    0.95    0.19 
   0  -4  -4   -0.03    0.13 
  -1  -4  -4    0.58    0.19 
  -2  -4  -4    0.61    0.21 
  -3  -4  -4    7.10    0.46 
  -4  -4  -4    4.08    0.37 
  -5  -4  -4    2.95    0.36 
  -6  -4  -4    0.24    0.21 
  -7  -4  -4    0.83    0.29 
  -8  -4  -4    2.69    0.39 
  -9  -4  -4    0.29    0.17 
 -10  -4  -4    1.30    0.26 
  14  -5  -4    0.25    0.46 
  14  -5  -4    0.65    0.27 
  13  -5  -4    0.17    0.27 
  13  -5  -4    0.18    0.46 
  12  -5  -4    0.44    0.45 
  11  -5  -4   -0.28    0.40 
  10  -5  -4    0.93    0.49 
   9  -5  -4    9.62    0.85 
   8  -5  -4    5.68    0.66 
   7  -5  -4    0.63    0.38 
   6  -5  -4    1.15    0.15 
   6  -5  -4    1.08    0.33 
   5  -5  -4   -0.31    0.22 
   5  -5  -4   -0.09    0.10 
   4  -5  -4   17.07    0.94 
   4  -5  -4   17.31    0.71 
   3  -5  -4    0.42    0.16 
   2  -5  -4    0.37    0.16 
   1  -5  -4    1.08    0.22 
   0  -5  -4    0.04    0.16 
  -1  -5  -4    2.66    0.32 
  -2  -5  -4    0.01    0.18 
  -3  -5  -4    2.21    0.33 
  -4  -5  -4    1.92    0.32 
  -5  -5  -4    0.78    0.28 
  -6  -5  -4    2.29    0.38 
  -7  -5  -4    0.70    0.25 
  -8  -5  -4    1.26    0.25 
  -9  -5  -4    0.78    0.19 
  14  -6  -4    0.29    0.50 
  14  -6  -4    1.16    0.32 
  13  -6  -4    0.77    0.53 
  12  -6  -4   -0.04    0.43 
  11  -6  -4    0.72    0.50 
  10  -6  -4    2.63    0.59 
   9  -6  -4   24.76    1.39 
   8  -6  -4    2.04    0.51 
   7  -6  -4    1.93    0.44 
   6  -6  -4    2.39    0.45 
   6  -6  -4    2.27    0.23 
   5  -6  -4    0.04    0.13 
   5  -6  -4    0.13    0.32 
   4  -6  -4    4.68    0.54 
   4  -6  -4    4.75    0.34 
   3  -6  -4    6.80    0.43 
   2  -6  -4    2.17    0.29 
   1  -6  -4    2.08    0.30 
   0  -6  -4    0.77    0.25 
  -1  -6  -4    0.94    0.28 
  -2  -6  -4    3.43    0.41 
  -3  -6  -4    6.72    0.50 
  -4  -6  -4    2.50    0.37 
  -5  -6  -4    0.22    0.20 
  -6  -6  -4    0.67    0.27 
  -7  -6  -4    1.13    0.25 
  -8  -6  -4    0.35    0.15 
  14  -7  -4    0.39    0.53 
  13  -7  -4    1.03    0.56 
  12  -7  -4   -0.02    0.47 
  11  -7  -4    0.09    0.46 
  10  -7  -4    8.10    0.89 
   9  -7  -4   21.26    1.27 
   8  -7  -4    0.74    0.44 
   7  -7  -4    0.21    0.35 
   6  -7  -4    0.22    0.36 
   6  -7  -4   -0.16    0.14 
   5  -7  -4   -0.03    0.15 
   5  -7  -4   -0.03    0.33 
   4  -7  -4   10.01    0.56 
   4  -7  -4   10.10    0.75 
   3  -7  -4    2.68    0.34 
   2  -7  -4    2.74    0.35 
   1  -7  -4    0.97    0.28 
   0  -7  -4    3.69    0.42 
  -1  -7  -4   12.70    0.72 
  -2  -7  -4    0.07    0.22 
  -3  -7  -4    0.64    0.27 
  -4  -7  -4    2.04    0.38 
  -5  -7  -4    0.36    0.23 
  -6  -7  -4    0.51    0.22 
  -7  -7  -4    0.75    0.21 
  14  -8  -4   -0.02    0.53 
  13  -8  -4    0.43    0.51 
  12  -8  -4    0.40    0.54 
  11  -8  -4    0.19    0.51 
  10  -8  -4    2.39    0.63 
   9  -8  -4    5.11    0.70 
   8  -8  -4    0.39    0.39 
   7  -8  -4    4.12    0.58 
   6  -8  -4    2.61    0.51 
   6  -8  -4    4.01    0.38 
   5  -8  -4   -0.15    0.32 
   5  -8  -4    0.50    0.20 
   4  -8  -4    0.98    0.41 
   4  -8  -4    0.92    0.24 
   3  -8  -4    3.65    0.41 
   2  -8  -4   -0.10    0.20 
   1  -8  -4    0.62    0.27 
   0  -8  -4    3.88    0.46 
  -1  -8  -4    0.06    0.24 
  -2  -8  -4   -0.06    0.22 
  -3  -8  -4    1.71    0.40 
  -4  -8  -4    0.72    0.27 
  -5  -8  -4    0.00    0.15 
  -6  -8  -4    2.05    0.35 
  14  -9  -4    0.60    0.57 
  13  -9  -4   -0.09    0.49 
  12  -9  -4   -0.21    0.55 
  11  -9  -4   -0.16    0.48 
  10  -9  -4   -0.18    0.45 
   9  -9  -4   -0.34    0.38 
   8  -9  -4    1.66    0.47 
   7  -9  -4    5.78    0.68 
   6  -9  -4    1.95    0.48 
   5  -9  -4    2.26    0.49 
   5  -9  -4    1.64    0.31 
   4  -9  -4    4.06    0.43 
   4  -9  -4    2.64    0.52 
   3  -9  -4    1.84    0.33 
   2  -9  -4   -0.01    0.18 
   1  -9  -4    0.23    0.22 
   0  -9  -4    0.07    0.23 
  -1  -9  -4    1.69    0.38 
  -2  -9  -4    0.57    0.29 
  -3  -9  -4    0.82    0.33 
  -4  -9  -4    0.42    0.19 
  -5  -9  -4    0.82    0.20 
  13 -10  -4    0.86    0.61 
  12 -10  -4    0.58    0.62 
  11 -10  -4    0.83    0.59 
  10 -10  -4    0.04    0.40 
   9 -10  -4    0.64    0.42 
   8 -10  -4    0.16    0.34 
   7 -10  -4    1.15    0.44 
   6 -10  -4    0.89    0.41 
   5 -10  -4    1.00    0.27 
   5 -10  -4    0.82    0.42 
   4 -10  -4    2.53    0.54 
   4 -10  -4    2.92    0.41 
   3 -10  -4    4.68    0.67 
   3 -10  -4    5.23    0.53 
   2 -10  -4    0.16    0.24 
   1 -10  -4    0.85    0.31 
   0 -10  -4   -0.01    0.22 
  -1 -10  -4    0.07    0.24 
  -2 -10  -4    0.05    0.23 
  -3 -10  -4    0.21    0.26 
  -4 -10  -4    0.65    0.18 
  13 -11  -4    0.59    0.62 
  12 -11  -4    0.88    0.58 
  11 -11  -4    1.90    0.58 
  10 -11  -4    0.36    0.41 
   9 -11  -4    0.59    0.41 
   8 -11  -4   -0.18    0.31 
   7 -11  -4    1.38    0.48 
   6 -11  -4    4.73    0.68 
   5 -11  -4    0.03    0.37 
   5 -11  -4    0.19    0.25 
   4 -11  -4    0.14    0.38 
   4 -11  -4    0.08    0.23 
   3 -11  -4    0.76    0.45 
   3 -11  -4    0.85    0.32 
   2 -11  -4    1.07    0.34 
   1 -11  -4   -0.02    0.23 
   0 -11  -4    0.38    0.30 
  -1 -11  -4    0.82    0.32 
  -2 -11  -4    1.11    0.37 
  12 -12  -4    0.43    0.40 
  11 -12  -4    0.01    0.39 
  10 -12  -4   -0.30    0.36 
   9 -12  -4    0.34    0.34 
   8 -12  -4    0.04    0.30 
   7 -12  -4   -0.31    0.29 
   6 -12  -4    0.53    0.42 
   5 -12  -4    0.59    0.39 
   5 -12  -4    0.54    0.25 
   4 -12  -4    0.44    0.37 
   4 -12  -4    0.18    0.24 
   3 -12  -4    1.06    0.38 
   3 -12  -4    0.86    0.33 
   2 -12  -4    0.64    0.29 
   1 -12  -4    0.24    0.25 
   0 -12  -4    0.28    0.23 
  -1 -12  -4    1.05    0.38 
  10 -13  -4    0.45    0.36 
   9 -13  -4    0.31    0.33 
   8 -13  -4   -0.03    0.25 
   7 -13  -4    0.30    0.32 
   6 -13  -4    0.52    0.32 
   5 -13  -4    1.48    0.39 
   4 -13  -4    2.15    0.47 
   4 -13  -4    1.74    0.40 
   3 -13  -4    2.67    0.49 
   3 -13  -4    1.30    0.35 
   2 -13  -4    1.34    0.33 
   2 -13  -4    1.00    0.34 
   6 -14  -4    0.32    0.30 
   3 -16   5    1.48    0.37 
   4 -16   5    0.99    0.33 
   5 -16   5    0.51    0.28 
   6 -16   5    1.30    0.32 
   7 -16   5    0.19    0.22 
   0 -15   5    2.05    0.40 
   1 -15   5    2.55    0.49 
   2 -15   5    0.18    0.23 
   3 -15   5    1.66    0.39 
   4 -15   5    1.39    0.37 
   5 -15   5    0.39    0.25 
   6 -15   5    1.28    0.34 
   7 -15   5    1.89    0.38 
  -2 -14   5    0.98    0.23 
  -1 -14   5    1.73    0.35 
   0 -14   5    0.65    0.29 
   1 -14   5    2.56    0.47 
   2 -14   5   -0.17    0.23 
   3 -14   5    1.19    0.33 
   4 -14   5    1.30    0.34 
   5 -14   5    0.51    0.28 
   6 -14   5    4.50    0.52 
   7 -14   5    2.47    0.38 
   8 -14   5    0.30    0.19 
   9 -14   5    0.12    0.35 
  10 -14   5    0.38    0.39 
  11 -14   5    0.27    0.33 
  -3 -13   5    0.72    0.21 
  -2 -13   5    0.79    0.20 
  -1 -13   5    2.45    0.41 
   0 -13   5    1.01    0.35 
   1 -13   5    1.34    0.37 
   2 -13   5    0.36    0.26 
   3 -13   5    0.20    0.24 
   4 -13   5    1.56    0.35 
   5 -13   5   -0.07    0.19 
   6 -13   5    7.41    0.57 
   7 -13   5    1.52    0.49 
   7 -13   5    1.43    0.30 
   8 -13   5    0.29    0.43 
   8 -13   5    0.46    0.20 
   9 -13   5    0.57    0.43 
  10 -13   5    0.06    0.39 
  11 -13   5    0.11    0.36 
  12 -13   5    1.22    0.37 
  -5 -12   5    1.42    0.29 
  -4 -12   5    0.88    0.22 
  -3 -12   5    0.39    0.18 
  -2 -12   5    1.74    0.38 
  -1 -12   5    0.45    0.29 
   0 -12   5    1.55    0.38 
   1 -12   5    1.03    0.34 
   2 -12   5    0.43    0.26 
   3 -12   5    0.27    0.22 
   4 -12   5    0.73    0.28 
   5 -12   5    3.05    0.39 
   6 -12   5   21.54    1.03 
   6 -12   5   21.50    1.27 
   7 -12   5    3.39    0.40 
   7 -12   5    3.43    0.60 
   8 -12   5    0.15    0.43 
   8 -12   5    0.35    0.18 
   9 -12   5    0.09    0.42 
  10 -12   5    0.25    0.43 
  11 -12   5    0.18    0.39 
  12 -12   5    0.78    0.34 
  13 -12   5    2.04    0.39 
  -6 -11   5    1.04    0.23 
  -5 -11   5    0.63    0.21 
  -4 -11   5    0.61    0.23 
  -3 -11   5    1.83    0.39 
  -2 -11   5    0.40    0.25 
  -1 -11   5    2.38    0.41 
   0 -11   5   12.41    0.77 
   1 -11   5   14.18    0.81 
   2 -11   5    3.52    0.43 
   3 -11   5    7.46    0.55 
   4 -11   5    4.72    0.47 
   4 -11   5    4.85    0.51 
   5 -11   5    8.43    0.57 
   5 -11   5    9.15    0.69 
   6 -11   5   10.22    0.78 
   6 -11   5    8.29    0.55 
   7 -11   5    1.57    0.28 
   7 -11   5    1.80    0.50 
   8 -11   5    2.35    0.30 
   8 -11   5    2.07    0.51 
   9 -11   5    0.19    0.42 
  10 -11   5    0.36    0.40 
  11 -11   5    0.47    0.38 
  12 -11   5    0.76    0.38 
  13 -11   5    0.73    0.30 
  -7 -10   5    0.48    0.16 
  -6 -10   5    0.06    0.16 
  -5 -10   5    0.30    0.21 
  -4 -10   5    0.58    0.27 
  -3 -10   5    0.34    0.24 
  -2 -10   5    0.33    0.23 
  -1 -10   5   12.11    0.74 
   0 -10   5    4.94    0.52 
   1 -10   5    2.95    0.40 
   2 -10   5    5.89    0.47 
   3 -10   5    3.50    0.45 
   3 -10   5    3.56    0.41 
   4 -10   5    4.76    0.42 
   4 -10   5    3.89    0.40 
   5 -10   5    1.02    0.25 
   5 -10   5    1.10    0.43 
   6 -10   5    5.29    0.41 
   6 -10   5    6.64    0.67 
   7 -10   5    3.20    0.34 
   7 -10   5    3.65    0.56 
   8 -10   5    4.26    0.34 
   8 -10   5    4.04    0.61 
   9 -10   5    0.08    0.42 
   9 -10   5    0.76    0.19 
  10 -10   5    0.20    0.38 
  11 -10   5    0.43    0.37 
  12 -10   5    0.46    0.34 
  13 -10   5    0.63    0.28 
  14 -10   5    1.34    0.25 
   8   9  -5    1.98    0.32 
  -8  -9   5    1.36    0.27 
   7   9  -5    2.02    0.41 
  -7  -9   5    1.05    0.24 
   6   9  -5    3.53    0.63 
  -6  -9   5    2.22    0.39 
   5   9  -5    0.40    0.37 
  -5  -9   5   -0.11    0.19 
   4   9  -5    8.38    0.83 
  -4  -9   5    9.35    0.64 
  -3  -9   5    2.15    0.37 
  -2  -9   5    2.60    0.41 
  -1  -9   5    0.01    0.19 
   0  -9   5    1.13    0.28 
   1  -9   5    0.38    0.21 
   1  -9   5    0.38    0.20 
   2  -9   5    4.21    0.41 
   2  -9   5    4.03    0.36 
   3  -9   5    3.28    0.36 
   3  -9   5    4.06    0.44 
   4  -9   5    0.14    0.18 
   4  -9   5    0.00    0.09 
   5  -9   5    5.54    0.40 
   5  -9   5    6.50    0.62 
   6  -9   5    7.92    0.47 
   6  -9   5    8.95    0.73 
   7  -9   5    1.17    0.47 
   7  -9   5    1.37    0.22 
   8  -9   5    0.48    0.43 
   8  -9   5    0.70    0.19 
   9  -9   5    4.04    0.62 
   9  -9   5    4.26    0.33 
  10  -9   5    0.03    0.39 
  11  -9   5    0.03    0.39 
  12  -9   5    0.67    0.34 
  13  -9   5    1.79    0.37 
  14  -9   5    2.10    0.35 
   9   8  -5    2.34    0.39 
   8   8  -5    1.48    0.32 
   7   8  -5    0.96    0.39 
  -7  -8   5    0.96    0.25 
   6   8  -5    0.55    0.40 
  -6  -8   5    1.14    0.29 
   5   8  -5    0.24    0.37 
  -5  -8   5   -0.13    0.19 
   4   8  -5   -0.10    0.34 
  -4  -8   5   -0.06    0.18 
   3   8  -5    3.68    0.64 
  -3  -8   5    3.82    0.44 
   2   8  -5    2.85    0.59 
  -2  -8   5    3.64    0.43 
   1   8  -5    1.29    0.46 
  -1  -8   5    1.13    0.27 
   0  -8   5    0.45    0.20 
   1  -8   5    4.87    0.37 
   2  -8   5    5.09    0.41 
   2  -8   5    4.89    0.37 
   3  -8   5    0.48    0.27 
   3  -8   5    0.46    0.17 
   4  -8   5    0.27    0.19 
   4  -8   5    1.68    0.23 
   5  -8   5   13.08    0.82 
   5  -8   5   13.27    0.64 
   6  -8   5   21.99    1.14 
   6  -8   5   19.58    0.86 
   7  -8   5    0.87    0.19 
   7  -8   5    0.65    0.44 
   8  -8   5    2.02    0.26 
   8  -8   5    1.90    0.51 
   9  -8   5    5.79    0.38 
   9  -8   5    5.79    0.69 
  10  -8   5    0.76    0.42 
  11  -8   5    0.33    0.41 
  12  -8   5    0.87    0.38 
  13  -8   5    1.39    0.35 
  14  -8   5    2.51    0.38 
  10   7  -5    1.82    0.32 
   9   7  -5    1.45    0.31 
   8   7  -5    0.54    0.32 
  -8  -7   5    0.60    0.18 
   7   7  -5    1.29    0.50 
  -7  -7   5    1.24    0.29 
   6   7  -5   -0.09    0.35 
  -6  -7   5    0.30    0.20 
   5   7  -5    1.94    0.52 
  -5  -7   5    1.63    0.33 
   4   7  -5    7.27    0.82 
  -4  -7   5    6.57    0.51 
   3   7  -5    1.02    0.44 
  -3  -7   5    1.24    0.28 
   2   7  -5    1.14    0.44 
  -2  -7   5    0.73    0.25 
   1   7  -5    5.20    0.62 
  -1  -7   5    4.98    0.40 
   0   7  -5    3.06    0.49 
   0  -7   5    2.98    0.31 
   1  -7   5    2.39    0.28 
   2  -7   5    3.46    0.35 
   2  -7   5    3.18    0.28 
   3  -7   5    2.85    0.35 
   3  -7   5    2.27    0.26 
   4  -7   5    2.74    0.27 
   4  -7   5    2.40    0.38 
   5  -7   5    2.14    0.24 
   5  -7   5    2.22    0.42 
   6  -7   5   11.51    0.56 
   6  -7   5   11.53    0.80 
   7  -7   5   -0.38    0.34 
   7  -7   5    0.02    0.11 
   8  -7   5    1.48    0.22 
   8  -7   5    1.40    0.47 
   9  -7   5    3.83    0.58 
   9  -7   5    2.83    0.26 
  10  -7   5   -0.02    0.35 
  11  -7   5    0.31    0.37 
  12  -7   5    0.24    0.31 
  13  -7   5    1.94    0.41 
  14  -7   5    2.11    0.34 
  10   6  -5    1.07    0.24 
   9   6  -5    1.13    0.37 
   8   6  -5    0.73    0.44 
  -8  -6   5    0.08    0.15 
   7   6  -5    0.23    0.37 
  -7  -6   5    0.66    0.21 
   6   6  -5    0.25    0.41 
  -6  -6   5   -0.02    0.15 
   5   6  -5   -0.23    0.39 
  -5  -6   5    0.33    0.19 
   4   6  -5   13.50    0.97 
  -4  -6   5   14.11    0.71 
   3   6  -5    0.21    0.38 
  -3  -6   5    0.92    0.22 
   2   6  -5    3.67    0.54 
  -2  -6   5    3.79    0.36 
   1   6  -5   10.57    0.75 
  -1  -6   5    9.80    0.52 
   0   6  -5    3.13    0.47 
   0  -6   5    3.05    0.27 
  -1   6  -5    7.53    0.59 
   1  -6   5    8.77    0.46 
   2  -6   5   16.19    0.71 
   2  -6   5   16.42    0.77 
   3  -6   5    7.02    0.39 
   3  -6   5    7.15    0.46 
   4  -6   5    0.61    0.28 
   4  -6   5    0.58    0.14 
   5  -6   5    6.62    0.56 
   5  -6   5    5.98    0.36 
   6  -6   5    8.93    0.45 
   6  -6   5    7.74    0.65 
   7  -6   5    3.28    0.26 
   7  -6   5    3.62    0.55 
   8  -6   5   -0.05    0.08 
   8  -6   5   -0.24    0.35 
   9  -6   5    0.40    0.38 
   9  -6   5    0.47    0.14 
  10  -6   5    0.83    0.19 
  10  -6   5    0.85    0.40 
  11  -6   5    0.22    0.35 
  12  -6   5    1.15    0.39 
  13  -6   5    1.52    0.33 
  14  -6   5    1.39    0.24 
  11   5  -5    1.50    0.32 
  10   5  -5    1.45    0.43 
   9   5  -5    0.12    0.35 
   8   5  -5    4.52    0.68 
  -8  -5   5    3.65    0.34 
   7   5  -5    0.58    0.45 
  -7  -5   5    0.22    0.17 
   6   5  -5    0.72    0.45 
  -6  -5   5    1.41    0.26 
   5   5  -5    3.73    0.61 
   5   5  -5    2.74    0.27 
  -5  -5   5    3.31    0.35 
   4   5  -5    1.77    0.46 
  -4  -5   5    1.95    0.27 
   3   5  -5    9.08    0.72 
  -3  -5   5    9.30    0.51 
   2   5  -5    6.13    0.57 
  -2  -5   5    5.89    0.37 
   1   5  -5   10.21    0.70 
  -1  -5   5    9.84    0.50 
   0   5  -5    4.27    0.49 
   0  -5   5    4.42    0.30 
  -1   5  -5    1.31    0.30 
   1  -5   5    1.44    0.19 
   2  -5   5    4.65    0.33 
   2  -5   5    4.20    0.28 
   4  -5   5    2.03    0.21 
   4  -5   5    1.72    0.31 
   5  -5   5   15.37    0.86 
   5  -5   5   16.09    0.68 
   6  -5   5    8.68    0.66 
   6  -5   5    8.72    0.45 
   7  -5   5   10.43    0.51 
   7  -5   5    9.24    0.73 
   8  -5   5    0.45    0.14 
   8  -5   5    0.10    0.36 
   9  -5   5    5.23    0.64 
   9  -5   5    5.32    0.35 
  10  -5   5    0.12    0.33 
  10  -5   5    0.09    0.13 
  11  -5   5    0.19    0.29 
  12  -5   5    1.20    0.37 
  13  -5   5    1.88    0.34 
  14  -5   5    1.18    0.38 
  12   4  -5    1.99    0.32 
  11   4  -5    2.02    0.46 
  10   4  -5    0.79    0.43 
   9   4  -5    1.50    0.47 
   8   4  -5   -0.02    0.36 
  -8  -4   5    0.22    0.14 
   7   4  -5    0.22    0.19 
   7   4  -5   -0.11    0.39 
  -7  -4   5    0.20    0.14 
   6   4  -5    3.00    0.57 
   6   4  -5    2.11    0.29 
  -6  -4   5    2.58    0.30 
   5   4  -5   -0.10    0.32 
   5   4  -5    0.23    0.16 
  -5  -4   5    0.45    0.16 
   4   4  -5    8.28    0.64 
  -4  -4   5    7.88    0.45 
   3   4  -5    9.46    0.66 
  -3  -4   5    8.79    0.46 
   2   4  -5    0.84    0.31 
  -2  -4   5    0.49    0.14 
   1   4  -5    0.52    0.25 
  -1  -4   5    0.70    0.14 
   0   4  -5    3.74    0.39 
   0  -4   5    3.60    0.25 
  -1   4  -5    7.74    0.51 
   1  -4   5    7.83    0.39 
   1  -4   5    8.02    0.39 
  -2   4  -5  122.51    4.80 
   2  -4   5  124.62    4.05 
   2  -4   5  120.10    4.72 
   3  -4   5    5.61    0.32 
   3  -4   5    5.21    0.39 
   4  -4   5   51.06    1.79 
   4  -4   5   51.24    2.14 
   5  -4   5   11.56    0.68 
   5  -4   5   10.23    0.50 
   6  -4   5   -0.06    0.25 
   6  -4   5    0.22    0.11 
   7  -4   5   -0.27    0.28 
   7  -4   5    0.18    0.11 
   8  -4   5    7.32    0.42 
   8  -4   5    7.77    0.67 
   9  -4   5    2.13    0.48 
   9  -4   5    2.27    0.29 
 -10   4  -5    0.46    0.21 
  10  -4   5    0.60    0.33 
  11  -4   5    0.54    0.32 
  12  -4   5    3.03    0.50 
  13  -4   5    1.46    0.51 
  12   3  -5    1.13    0.28 
  11   3  -5    2.37    0.51 
  10   3  -5    0.29    0.39 
   9   3  -5    0.27    0.35 
   8   3  -5    0.04    0.20 
   8   3  -5    0.34    0.38 
  -8  -3   5   -0.02    0.08 
   7   3  -5    0.38    0.25 
   7   3  -5    0.33    0.40 
  -7  -3   5    0.50    0.13 
   6   3  -5    0.32    0.23 
   6   3  -5    0.95    0.39 
  -6  -3   5    0.05    0.06 
   5   3  -5    8.17    0.63 
   5   3  -5    6.47    0.44 
  -5  -3   5    7.33    0.40 
   4   3  -5   40.39    1.77 
  -4  -3   5   37.10    1.39 
   3   3  -5   47.16    2.02 
  -3  -3   5   45.45    1.63 
   2   3  -5   23.48    1.14 
  -2  -3   5   24.26    0.92 
   1   3  -5   21.38    1.04 
  -1  -3   5   23.05    0.85 
   0   3  -5    7.43    0.48 
   0  -3   5    7.32    0.36 
  -1   3  -5   58.45    2.52 
   1  -3   5   66.01    2.47 
   1  -3   5   63.68    2.13 
  -2   3  -5   19.03    0.86 
   2  -3   5   19.17    0.75 
   2  -3   5   19.98    0.87 
   3  -3   5   10.70    0.48 
   3  -3   5   10.33    0.58 
   4  -3   5   23.11    1.11 
   4  -3   5   24.55    0.92 
   5  -3   5    2.21    0.34 
   5  -3   5    2.34    0.23 
   6  -3   5   12.04    0.58 
   6  -3   5   13.61    0.79 
   7  -3   5    0.69    0.16 
   7  -3   5    0.73    0.33 
   8  -3   5    3.22    0.51 
   8  -3   5    3.03    0.30 
  -9   3  -5    4.64    0.37 
   9  -3   5    5.45    0.62 
 -10   3  -5    0.50    0.22 
  10  -3   5    0.23    0.30 
  11  -3   5    0.65    0.41 
  12  -3   5    3.02    0.60 
  13  -3   5    0.97    0.36 
  13   2  -5    1.13    0.25 
  12   2  -5    1.64    0.41 
  11   2  -5    1.86    0.48 
  10   2  -5    0.14    0.28 
  10   2  -5    0.28    0.37 
   9   2  -5    0.21    0.27 
   9   2  -5   -0.04    0.33 
   8   2  -5    1.37    0.35 
   8   2  -5    1.95    0.48 
   7   2  -5   -0.10    0.37 
   7   2  -5   -0.03    0.26 
  -7  -2   5    0.10    0.10 
   6   2  -5    0.01    0.32 
   6   2  -5   -0.13    0.23 
  -6  -2   5   -0.04    0.08 
   5   2  -5    1.14    0.33 
   5   2  -5    1.35    0.25 
  -5  -2   5    1.20    0.17 
   4   2  -5    0.02    0.24 
   4   2  -5    0.15    0.17 
  -4  -2   5    0.01    0.02 
   3   2  -5  130.08    5.03 
  -3  -2   5  124.15    4.17 
   2   2  -5    0.45    0.22 
  -2  -2   5    0.39    0.10 
   1   2  -5    2.54    0.30 
  -1  -2   5    2.38    0.17 
   0   2  -5   60.89    2.46 
   0  -2   5   61.54    2.07 
  -1   2  -5    4.08    0.30 
   1  -2   5    4.70    0.25 
   1  -2   5    3.34    0.24 
  -2   2  -5   19.85    0.85 
   2  -2   5   19.90    0.92 
   2  -2   5   20.88    0.78 
   3  -2   5    1.49    0.17 
   3  -2   5    1.42    0.23 
   4  -2   5   29.01    1.08 
   4  -2   5   27.91    1.30 
   5  -2   5   12.04    0.71 
   5  -2   5   11.86    0.55 
   6  -2   5    8.28    0.62 
   6  -2   5    8.07    0.44 
   7  -2   5    1.91    0.40 
  -8   2  -5    5.65    0.41 
   8  -2   5    5.39    0.57 
  -9   2  -5    2.60    0.35 
   9  -2   5    3.13    0.51 
 -10   2  -5    0.49    0.20 
  10  -2   5    0.19    0.33 
  11  -2   5    2.01    0.52 
  12  -2   5    1.11    0.46 
  13  -2   5    0.81    0.44 
  13   1  -5    0.91    0.27 
  12   1  -5    0.43    0.34 
  11   1  -5    1.95    0.51 
  11   1  -5    2.52    0.47 
  10   1  -5    1.37    0.45 
  10   1  -5    1.07    0.37 
   9   1  -5    0.41    0.32 
   9   1  -5    0.26    0.40 
   8   1  -5    1.80    0.47 
   8   1  -5    2.05    0.43 
   7   1  -5   10.14    0.69 
   7   1  -5   10.03    0.73 
  -7  -1   5   10.72    0.47 
   6   1  -5   -0.18    0.25 
   6   1  -5    0.15    0.25 
  -6  -1   5    0.08    0.08 
   5   1  -5    3.66    0.38 
   5   1  -5    3.64    0.37 
  -5  -1   5    3.39    0.21 
   4   1  -5    5.19    0.43 
   4   1  -5    5.36    0.38 
  -4  -1   5    5.50    0.27 
   3   1  -5   34.83    1.41 
   3   1  -5   34.47    1.51 
   2   1  -5    8.85    0.43 
   2   1  -5    7.45    0.48 
  -2  -1   5    7.69    0.34 
   1   1  -5    0.09    0.15 
  -1  -1   5    0.24    0.07 
   0   1  -5   10.85    0.53 
   0  -1   5   10.05    0.44 
   1  -1   5   32.13    1.37 
   1  -1   5   32.58    1.16 
  -2   1  -5   38.82    1.56 
   2  -1   5   39.18    1.40 
   2  -1   5   40.49    1.67 
   3  -1   5   11.09    0.64 
   3  -1   5   11.62    0.52 
   4  -1   5    3.51    0.38 
   4  -1   5    2.60    0.22 
   5  -1   5    0.67    0.15 
   5  -1   5    0.36    0.22 
  -6   1  -5    0.71    0.20 
   6  -1   5    0.53    0.27 
  -7   1  -5    1.87    0.29 
   7  -1   5    2.14    0.41 
  -8   1  -5    3.93    0.39 
   8  -1   5    4.49    0.57 
  -9   1  -5    4.09    0.37 
   9  -1   5    4.37    0.56 
 -10   1  -5    1.88    0.31 
  10  -1   5    1.38    0.45 
  11  -1   5    0.26    0.34 
  12  -1   5    0.35    0.32 
  13   0  -5    1.07    0.32 
  12   0  -5    0.79    0.38 
  12   0  -5    0.36    0.39 
  11   0  -5    0.38    0.38 
  11   0  -5    0.60    0.47 
  10   0  -5    0.83    0.39 
  10   0  -5    0.99    0.41 
   9   0  -5    3.12    0.53 
   9   0  -5    2.68    0.50 
   8   0  -5   13.37    0.85 
   7   0  -5    0.51    0.35 
   7   0  -5    0.23    0.31 
   6   0  -5   12.89    0.77 
   6   0  -5   13.51    0.78 
  -6   0   5   13.73    0.50 
   5   0  -5    3.24    0.35 
   5   0  -5    3.44    0.37 
  -5   0   5    3.24    0.17 
   4   0  -5    6.32    0.43 
  -4   0   5    6.47    0.28 
   3   0  -5   62.95    2.43 
  -3   0   5   58.44    2.01 
  -2   0   5    3.15    0.18 
  -1   0   5    1.40    0.14 
   0   0   5   19.08    0.73 
   1   0   5   20.44    0.79 
   2   0   5   28.78    1.08 
   2   0   5   28.99    1.30 
   3   0   5    3.01    0.23 
   3   0   5    2.90    0.30 
  -4   0  -5    2.07    0.27 
   4   0   5    2.54    0.33 
  -5   0  -5    0.51    0.19 
   5   0   5    0.18    0.21 
  -6   0  -5    0.15    0.19 
   6   0   5    0.17    0.21 
  -7   0  -5    2.54    0.33 
   7   0   5    2.01    0.42 
  -8   0  -5    2.69    0.35 
   8   0   5    2.59    0.47 
  -9   0  -5    1.59    0.30 
   9   0   5    1.33    0.41 
 -10   0  -5    1.52    0.28 
  10   0   5    1.28    0.41 
  11   0   5    0.02    0.29 
  12   0   5    0.53    0.30 
  14  -1  -5    1.40    0.33 
  13  -1  -5    0.69    0.38 
  13  -1  -5    0.72    0.32 
  12  -1  -5    0.56    0.34 
  12  -1  -5    0.19    0.35 
  11  -1  -5    0.36    0.34 
  11  -1  -5    0.00    0.38 
  10  -1  -5    0.87    0.43 
  10  -1  -5    0.76    0.37 
   9  -1  -5   10.92    0.79 
   9  -1  -5    9.51    0.73 
   8  -1  -5   11.69    0.78 
   8  -1  -5   12.03    0.81 
   7  -1  -5    1.14    0.34 
   7  -1  -5    1.24    0.40 
   6  -1  -5    6.67    0.54 
   5  -1  -5   10.55    0.64 
  -5   1   5   11.47    0.42 
   4  -1  -5    0.36    0.20 
  -4   1   5    0.30    0.06 
   3  -1  -5    1.70    0.26 
  -3   1   5    1.63    0.13 
  -2   1   5   35.71    1.25 
  -1   1   5   21.45    0.81 
   0   1   5   22.87    0.87 
   1   1   5   -0.01    0.06 
  -2  -1  -5   14.36    0.64 
  -3  -1  -5   11.21    0.56 
   3   1   5   11.41    0.67 
  -4  -1  -5    0.32    0.18 
   4   1   5    0.44    0.21 
  -5  -1  -5    2.38    0.31 
   5   1   5    1.84    0.35 
  -6  -1  -5   -0.24    0.16 
   6   1   5   -0.09    0.21 
  -7  -1  -5    4.93    0.41 
   7   1   5    4.71    0.51 
  -8  -1  -5   -0.15    0.18 
   8   1   5   -0.17    0.24 
  -9  -1  -5    0.22    0.18 
   9   1   5    0.15    0.28 
 -10  -1  -5    0.47    0.17 
  10   1   5    0.47    0.34 
  11   1   5    1.13    0.40 
  14  -2  -5    1.24    0.45 
  14  -2  -5    0.82    0.31 
  13  -2  -5    0.51    0.32 
  13  -2  -5    0.73    0.42 
  12  -2  -5   -0.09    0.25 
  12  -2  -5   -0.27    0.40 
  11  -2  -5    0.40    0.32 
  11  -2  -5   -0.18    0.39 
  10  -2  -5    3.22    0.59 
  10  -2  -5    3.85    0.55 
   9  -2  -5    4.05    0.63 
   9  -2  -5    3.89    0.56 
   8  -2  -5    9.59    0.79 
   7  -2  -5    1.41    0.40 
   6  -2  -5    0.22    0.25 
   5  -2  -5   -0.01    0.07 
   5  -2  -5   -0.04    0.19 
   4  -2  -5    1.43    0.28 
   3  -2  -5    3.86    0.36 
   2  -2  -5    0.19    0.10 
   1  -2  -5    0.22    0.12 
   0  -2  -5   33.77    1.25 
  -1  -2  -5   13.79    0.62 
  -2  -2  -5    2.62    0.29 
  -3  -2  -5    0.41    0.17 
  -4  -2  -5    2.92    0.34 
   4   2   5    3.66    0.44 
  -5  -2  -5    3.22    0.37 
   5   2   5    3.20    0.45 
  -6  -2  -5    4.30    0.40 
   6   2   5    4.69    0.49 
  -7  -2  -5    6.12    0.47 
   7   2   5    6.14    0.57 
  -8  -2  -5    1.16    0.29 
   8   2   5    1.57    0.41 
  -9  -2  -5    0.43    0.20 
   9   2   5    0.21    0.30 
 -10  -2  -5    0.47    0.17 
  10   2   5   -0.11    0.28 
  11   2   5    1.40    0.40 
  14  -3  -5    0.38    0.42 
  14  -3  -5    0.89    0.30 
  13  -3  -5    0.05    0.47 
  13  -3  -5    0.29    0.29 
  12  -3  -5    0.29    0.43 
  12  -3  -5    0.30    0.33 
  11  -3  -5    1.22    0.41 
  11  -3  -5    1.91    0.55 
  10  -3  -5    9.63    0.81 
   9  -3  -5    0.43    0.46 
   8  -3  -5    4.55    0.63 
   7  -3  -5    1.27    0.39 
   6  -3  -5    0.32    0.27 
   5  -3  -5    0.21    0.23 
   5  -3  -5    0.20    0.09 
   4  -3  -5    0.43    0.24 
   4  -3  -5    0.60    0.12 
   3  -3  -5   -0.01    0.09 
   2  -3  -5    3.05    0.25 
   1  -3  -5   43.21    1.55 
   0  -3  -5    4.66    0.33 
  -1  -3  -5    0.86    0.20 
  -2  -3  -5    3.94    0.37 
  -3  -3  -5   -0.12    0.15 
  -4  -3  -5    3.64    0.39 
  -5  -3  -5    0.03    0.19 
  -6  -3  -5    0.45    0.24 
   6   3   5    0.45    0.31 
  -7  -3  -5    2.29    0.36 
   7   3   5    3.22    0.49 
  -8  -3  -5    1.12    0.28 
   8   3   5    1.78    0.43 
  -9  -3  -5    0.38    0.20 
   9   3   5   -0.04    0.23 
 -10  -3  -5    0.28    0.16 
  10   3   5    0.73    0.33 
  14  -4  -5    0.89    0.32 
  14  -4  -5    0.57    0.49 
  13  -4  -5    0.63    0.30 
  13  -4  -5    0.17    0.45 
  12  -4  -5    0.95    0.39 
  12  -4  -5    1.47    0.51 
  11  -4  -5    0.11    0.43 
  10  -4  -5    2.04    0.56 
   9  -4  -5    0.44    0.45 
   8  -4  -5    9.39    0.79 
   7  -4  -5    4.09    0.56 
   6  -4  -5   11.59    0.74 
   5  -4  -5   11.59    0.72 
   5  -4  -5   10.91    0.47 
   4  -4  -5    0.06    0.23 
   4  -4  -5   -0.05    0.09 
   3  -4  -5    0.39    0.15 
   2  -4  -5    2.18    0.26 
   1  -4  -5   16.10    0.72 
   0  -4  -5    1.98    0.27 
  -1  -4  -5    0.14    0.17 
  -2  -4  -5    1.09    0.25 
  -3  -4  -5   -0.16    0.17 
  -4  -4  -5    0.82    0.25 
  -5  -4  -5    0.10    0.21 
  -6  -4  -5   -0.22    0.16 
  -7  -4  -5    2.52    0.38 
  -8  -4  -5    2.05    0.33 
  -9  -4  -5    0.70    0.19 
  14  -5  -5    1.07    0.28 
  14  -5  -5    0.84    0.53 
  13  -5  -5    0.08    0.26 
  13  -5  -5   -0.12    0.41 
  12  -5  -5    0.44    0.45 
  11  -5  -5    0.63    0.47 
  10  -5  -5   -0.32    0.40 
   9  -5  -5    0.58    0.48 
   8  -5  -5    3.62    0.58 
   7  -5  -5    0.28    0.34 
   6  -5  -5    9.59    0.71 
   5  -5  -5    9.88    0.70 
   5  -5  -5    9.78    0.47 
   4  -5  -5    5.22    0.51 
   4  -5  -5    5.66    0.35 
   3  -5  -5    2.28    0.27 
   2  -5  -5   24.29    0.99 
   1  -5  -5    3.90    0.35 
   0  -5  -5    4.75    0.39 
  -1  -5  -5   11.96    0.65 
  -2  -5  -5    0.81    0.27 
  -3  -5  -5   -0.03    0.18 
  -4  -5  -5    5.02    0.44 
  -5  -5  -5    0.14    0.20 
  -6  -5  -5    0.32    0.23 
  -7  -5  -5    1.23    0.28 
  -8  -5  -5    0.87    0.23 
  -9  -5  -5    0.99    0.20 
  14  -6  -5    1.11    0.31 
  14  -6  -5    0.07    0.45 
  13  -6  -5    0.18    0.46 
  12  -6  -5    0.43    0.50 
  11  -6  -5    0.19    0.49 
  10  -6  -5    0.73    0.50 
   9  -6  -5    1.00    0.49 
   8  -6  -5    6.66    0.72 
   7  -6  -5    1.06    0.39 
   6  -6  -5    9.47    0.73 
   6  -6  -5    8.33    0.44 
   5  -6  -5   10.07    0.52 
   5  -6  -5    9.89    0.74 
   4  -6  -5    0.18    0.17 
   4  -6  -5    0.19    0.32 
   3  -6  -5   12.38    0.63 
   2  -6  -5    4.78    0.39 
   1  -6  -5    1.33    0.28 
   0  -6  -5    2.17    0.34 
  -1  -6  -5    2.27    0.35 
  -2  -6  -5   -0.11    0.20 
  -3  -6  -5    2.65    0.39 
  -4  -6  -5   -0.11    0.19 
  -5  -6  -5    1.25    0.31 
  -6  -6  -5    0.77    0.23 
  -7  -6  -5    0.69    0.21 
  -8  -6  -5    2.00    0.32 
  14  -7  -5    0.16    0.51 
  13  -7  -5   -0.38    0.46 
  12  -7  -5   -0.14    0.48 
  11  -7  -5   -0.07    0.49 
  10  -7  -5    2.00    0.59 
   9  -7  -5    0.17    0.39 
   8  -7  -5    2.46    0.50 
   7  -7  -5    0.32    0.37 
   6  -7  -5    1.83    0.49 
   5  -7  -5    1.23    0.25 
   5  -7  -5    1.83    0.46 
   4  -7  -5    8.65    0.72 
   4  -7  -5    8.91    0.53 
   3  -7  -5    7.39    0.49 
   2  -7  -5    3.04    0.38 
   1  -7  -5    1.43    0.31 
   0  -7  -5    3.16    0.41 
  -1  -7  -5    1.16    0.31 
  -2  -7  -5    2.68    0.40 
  -3  -7  -5    0.24    0.23 
  -4  -7  -5    0.82    0.30 
  -5  -7  -5    3.60    0.46 
  -6  -7  -5    0.55    0.20 
  -7  -7  -5    0.50    0.20 
  14  -8  -5   -0.31    0.49 
  13  -8  -5   -0.20    0.50 
  12  -8  -5    0.27    0.54 
  11  -8  -5   -0.09    0.49 
  10  -8  -5    0.68    0.49 
   9  -8  -5    1.86    0.54 
   8  -8  -5    0.59    0.41 
   7  -8  -5    1.77    0.47 
   6  -8  -5    0.63    0.37 
   5  -8  -5    0.00    0.16 
   5  -8  -5    0.29    0.33 
   4  -8  -5    0.47    0.38 
   4  -8  -5    0.78    0.24 
   3  -8  -5    0.63    0.25 
   2  -8  -5    0.64    0.25 
   1  -8  -5    1.70    0.35 
   0  -8  -5   -0.12    0.20 
  -1  -8  -5    0.19    0.24 
  -2  -8  -5    1.08    0.34 
  -3  -8  -5    0.62    0.31 
  -4  -8  -5    2.33    0.39 
  -5  -8  -5    1.10    0.27 
  -6  -8  -5    0.93    0.20 
  13  -9  -5    0.16    0.55 
  12  -9  -5   -0.05    0.54 
  11  -9  -5   -0.33    0.52 
  10  -9  -5   -0.28    0.45 
   9  -9  -5    0.16    0.42 
   8  -9  -5   -0.37    0.33 
   7  -9  -5    0.57    0.36 
   6  -9  -5   -0.28    0.30 
   5  -9  -5    5.70    0.47 
   5  -9  -5    4.95    0.65 
   4  -9  -5    0.41    0.37 
   4  -9  -5    0.37    0.23 
   3  -9  -5    0.48    0.24 
   2  -9  -5   -0.11    0.21 
   1  -9  -5    1.87    0.38 
   0  -9  -5    0.20    0.25 
  -1  -9  -5   -0.26    0.22 
  -2  -9  -5   -0.14    0.25 
  -3  -9  -5    2.02    0.46 
  -4  -9  -5    0.63    0.22 
  13 -10  -5   -0.35    0.54 
  12 -10  -5    1.19    0.64 
  11 -10  -5    1.45    0.63 
  10 -10  -5    0.17    0.47 
   9 -10  -5    0.10    0.36 
   8 -10  -5   -0.25    0.29 
   7 -10  -5   -0.09    0.35 
   6 -10  -5    0.67    0.43 
   5 -10  -5    0.16    0.23 
   5 -10  -5    0.18    0.37 
   4 -10  -5    1.23    0.46 
   4 -10  -5    1.81    0.36 
   3 -10  -5    1.65    0.37 
   2 -10  -5   -0.15    0.18 
   1 -10  -5    0.15    0.22 
   0 -10  -5    0.44    0.29 
  -1 -10  -5    0.46    0.30 
  -2 -10  -5    0.05    0.23 
  -3 -10  -5    1.15    0.32 
  12 -11  -5   -0.27    0.57 
  11 -11  -5   -0.04    0.48 
  10 -11  -5   -0.17    0.34 
   9 -11  -5   -0.07    0.31 
   8 -11  -5    0.05    0.30 
   7 -11  -5    0.32    0.36 
   6 -11  -5    1.00    0.44 
   5 -11  -5    1.16    0.47 
   4 -11  -5    1.43    0.51 
   4 -11  -5    1.36    0.35 
   3 -11  -5    3.37    0.47 
   3 -11  -5    2.78    0.56 
   2 -11  -5    0.30    0.25 
   1 -11  -5   -0.14    0.24 
   0 -11  -5   -0.30    0.23 
  -1 -11  -5    0.85    0.36 
  -2 -11  -5    0.33    0.29 
  11 -12  -5   -0.21    0.34 
  10 -12  -5    0.59    0.38 
   9 -12  -5    0.43    0.33 
   8 -12  -5    0.28    0.33 
   7 -12  -5    1.46    0.44 
   6 -12  -5    1.60    0.45 
   5 -12  -5    0.40    0.32 
   4 -12  -5    0.90    0.40 
   4 -12  -5    0.80    0.30 
   3 -12  -5    0.92    0.30 
   3 -12  -5    0.27    0.25 
   2 -12  -5    0.05    0.23 
   1 -12  -5    0.37    0.27 
   0 -12  -5    0.77    0.30 
   9 -13  -5    0.64    0.28 
   8 -13  -5    1.13    0.36 
   7 -13  -5    0.80    0.30 
   6 -13  -5    0.76    0.33 
   5 -13  -5    1.02    0.36 
   4 -13  -5    0.69    0.29 
   4 -13  -5    0.56    0.30 
   3 -13  -5    0.24    0.25 
   3 -13  -5    1.31    0.31 
   3 -16   6    0.19    0.26 
   4 -16   6    0.53    0.28 
   5 -16   6    0.54    0.26 
   6 -16   6    0.68    0.26 
   7 -16   6   -0.07    0.17 
   0 -15   6    0.50    0.23 
   1 -15   6    0.73    0.32 
   2 -15   6    2.48    0.48 
   3 -15   6    0.45    0.29 
   4 -15   6    2.72    0.47 
   5 -15   6    0.79    0.29 
   6 -15   6    0.99    0.31 
   7 -15   6    0.34    0.22 
   8 -15   6    0.96    0.29 
  -2 -14   6    0.93    0.20 
  -1 -14   6    1.20    0.24 
   0 -14   6    0.55    0.31 
   1 -14   6    0.35    0.23 
   2 -14   6    1.30    0.36 
   3 -14   6    0.08    0.25 
   4 -14   6    1.95    0.41 
   5 -14   6    2.79    0.45 
   6 -14   6    0.60    0.25 
   7 -14   6    2.55    0.40 
   8 -14   6    1.38    0.29 
  11 -14   6    1.63    0.37 
  -4 -13   6    2.34    0.36 
  -3 -13   6    1.74    0.30 
  -2 -13   6    0.60    0.19 
  -1 -13   6    0.88    0.24 
   0 -13   6    1.31    0.37 
   1 -13   6    0.88    0.33 
   2 -13   6    0.87    0.30 
   3 -13   6   -0.04    0.20 
   4 -13   6    1.35    0.34 
   5 -13   6    4.65    0.53 
   6 -13   6    0.35    0.20 
   7 -13   6    2.40    0.36 
   8 -13   6    1.09    0.25 
   9 -13   6    0.12    0.37 
  10 -13   6    0.58    0.39 
  11 -13   6    2.17    0.47 
  12 -13   6    2.14    0.38 
  -5 -12   6    1.09    0.24 
  -4 -12   6    0.30    0.15 
  -3 -12   6    0.44    0.22 
  -2 -12   6    1.26    0.33 
  -1 -12   6    0.65    0.27 
   0 -12   6    0.06    0.21 
   1 -12   6    0.58    0.29 
   2 -12   6    0.42    0.26 
   3 -12   6    0.01    0.20 
   4 -12   6    1.13    0.31 
   5 -12   6    2.50    0.38 
   6 -12   6   -0.16    0.16 
   7 -12   6    5.34    0.44 
   7 -12   6    5.93    0.69 
   8 -12   6    0.45    0.38 
   8 -12   6    0.26    0.17 
   9 -12   6    0.56    0.42 
   9 -12   6    0.59    0.18 
  10 -12   6    1.16    0.43 
  11 -12   6    0.67    0.37 
  12 -12   6    0.93    0.29 
  -6 -11   6    2.01    0.30 
  -5 -11   6    1.06    0.23 
  -4 -11   6    0.10    0.18 
  -3 -11   6    1.91    0.39 
  -2 -11   6    5.28    0.57 
  -1 -11   6   -0.10    0.19 
   0 -11   6    0.07    0.22 
   1 -11   6   -0.03    0.18 
   2 -11   6    2.80    0.42 
   3 -11   6    9.94    0.64 
   4 -11   6    0.21    0.21 
   5 -11   6    0.61    0.19 
   5 -11   6    0.44    0.22 
   6 -11   6    1.10    0.44 
   6 -11   6    1.40    0.29 
   7 -11   6    5.89    0.44 
   7 -11   6    7.40    0.67 
   8 -11   6    1.12    0.25 
   8 -11   6    1.47    0.47 
   9 -11   6    0.73    0.21 
   9 -11   6    0.69    0.43 
  10 -11   6    1.78    0.52 
  11 -11   6    0.91    0.39 
  12 -11   6    1.45    0.37 
  13 -11   6    1.63    0.32 
  -7 -10   6    0.39    0.18 
  -6 -10   6    0.67    0.21 
  -5 -10   6    0.18    0.16 
  -4 -10   6    0.37    0.24 
  -3 -10   6    7.44    0.58 
  -2 -10   6    0.13    0.22 
  -1 -10   6    8.65    0.61 
   0 -10   6    2.51    0.37 
   1 -10   6   13.55    0.75 
   2 -10   6    3.06    0.39 
   3 -10   6    1.69    0.32 
   4 -10   6    2.97    0.45 
   4 -10   6    1.68    0.30 
   5 -10   6    0.06    0.18 
   5 -10   6    0.07    0.15 
   6 -10   6    0.54    0.37 
   6 -10   6    0.13    0.16 
   7 -10   6    7.25    0.67 
   7 -10   6    6.25    0.43 
   8 -10   6    4.01    0.34 
   8 -10   6    4.70    0.63 
   9 -10   6    0.28    0.38 
   9 -10   6    0.07    0.13 
  10 -10   6    0.81    0.42 
  11 -10   6    0.40    0.36 
  12 -10   6    1.11    0.40 
  13 -10   6    1.72    0.34 
   8   9  -6    1.72    0.33 
  -8  -9   6    0.36    0.14 
   7   9  -6    1.24    0.34 
  -7  -9   6    0.39    0.17 
   6   9  -6    0.53    0.36 
  -6  -9   6    0.25    0.18 
   5   9  -6    2.06    0.55 
  -5  -9   6    1.20    0.31 
   4   9  -6    2.01    0.54 
  -4  -9   6    2.00    0.36 
   3   9  -6   15.33    1.12 
  -3  -9   6   16.33    0.87 
   2   9  -6    6.96    0.75 
  -2  -9   6    7.57    0.55 
  -1  -9   6    7.14    0.53 
   0  -9   6    9.43    0.58 
   1  -9   6    2.80    0.37 
   2  -9   6    0.01    0.17 
   3  -9   6    1.98    0.36 
   3  -9   6    2.10    0.31 
   4  -9   6    5.89    0.56 
   4  -9   6    5.78    0.42 
   5  -9   6    0.98    0.22 
   5  -9   6    0.74    0.39 
   6  -9   6    1.94    0.27 
   6  -9   6    1.75    0.48 
   7  -9   6    5.37    0.39 
   7  -9   6    6.14    0.64 
   8  -9   6   12.08    0.86 
   8  -9   6   10.93    0.60 
   9  -9   6    0.15    0.38 
   9  -9   6    0.24    0.14 
  10  -9   6    1.12    0.45 
  11  -9   6    0.48    0.34 
  12  -9   6    0.60    0.28 
  13  -9   6    1.23    0.25 
   8   8  -6    0.91    0.27 
  -8  -8   6    0.36    0.14 
   7   8  -6    1.12    0.37 
  -7  -8   6    0.98    0.25 
   6   8  -6    0.25    0.37 
  -6  -8   6    0.31    0.20 
   5   8  -6    0.37    0.39 
  -5  -8   6   -0.05    0.17 
   4   8  -6    1.45    0.47 
  -4  -8   6    1.50    0.31 
   3   8  -6   11.48    0.93 
  -3  -8   6   11.77    0.69 
   2   8  -6   10.02    0.86 
  -2  -8   6   10.05    0.62 
   1   8  -6    6.37    0.75 
  -1  -8   6    4.10    0.38 
   0   8  -6    0.59    0.38 
   0  -8   6    1.04    0.24 
   1  -8   6    3.23    0.35 
   2  -8   6    0.10    0.13 
   3  -8   6    3.27    0.30 
   3  -8   6    3.41    0.40 
   4  -8   6    4.84    0.46 
   4  -8   6    4.58    0.35 
   5  -8   6    0.46    0.17 
   5  -8   6    0.73    0.36 
   6  -8   6    0.71    0.19 
   6  -8   6    0.69    0.40 
   7  -8   6    6.32    0.65 
   7  -8   6    5.87    0.40 
   8  -8   6    6.78    0.66 
   8  -8   6    6.92    0.44 
   9  -8   6    0.31    0.14 
   9  -8   6    0.11    0.35 
  10  -8   6    0.92    0.41 
  11  -8   6    0.65    0.39 
  12  -8   6    0.83    0.32 
  13  -8   6    1.69    0.35 
  10   7  -6    1.99    0.36 
   9   7  -6    1.53    0.33 
   8   7  -6    0.40    0.34 
  -8  -7   6    0.27    0.16 
   7   7  -6    0.81    0.45 
  -7  -7   6    0.79    0.21 
   6   7  -6    4.43    0.69 
  -6  -7   6    4.09    0.43 
   5   7  -6    0.10    0.38 
  -5  -7   6    0.12    0.17 
   4   7  -6    0.46    0.43 
  -4  -7   6    0.77    0.25 
   3   7  -6    5.43    0.73 
  -3  -7   6    5.39    0.43 
   2   7  -6    8.31    0.74 
  -2  -7   6    6.67    0.46 
   1   7  -6    0.14    0.34 
  -1  -7   6    0.11    0.15 
   0   7  -6    1.30    0.40 
   0  -7   6    1.39    0.24 
  -1   7  -6    2.74    0.47 
   1  -7   6    3.05    0.32 
   2  -7   6    2.69    0.29 
   3  -7   6    0.14    0.21 
   3  -7   6    0.04    0.11 
   4  -7   6    0.25    0.10 
   4  -7   6    0.28    0.12 
   5  -7   6    0.57    0.34 
   5  -7   6    0.90    0.18 
   6  -7   6   -0.14    0.31 
   6  -7   6   -0.04    0.11 
   7  -7   6    3.44    0.29 
   7  -7   6    3.70    0.56 
   8  -7   6    0.92    0.42 
   8  -7   6    1.48    0.25 
   9  -7   6    1.49    0.25 
   9  -7   6    1.37    0.45 
  10  -7   6    3.12    0.56 
  10  -7   6    3.60    0.37 
  11  -7   6   -0.05    0.29 
  12  -7   6    1.29    0.38 
  13  -7   6    0.92    0.22 
  11   6  -6    1.81    0.28 
  10   6  -6    1.53    0.38 
   9   6  -6    1.15    0.37 
   8   6  -6    0.10    0.36 
  -8  -6   6    0.33    0.15 
   7   6  -6    1.24    0.49 
  -7  -6   6    0.83    0.22 
   6   6  -6    2.61    0.56 
  -6  -6   6    2.09    0.30 
   5   6  -6    2.76    0.60 
  -5  -6   6    3.48    0.37 
   4   6  -6    1.07    0.47 
  -4  -6   6    2.56    0.32 
   3   6  -6    3.17    0.58 
  -3  -6   6    3.20    0.34 
   2   6  -6    7.35    0.68 
  -2  -6   6    7.76    0.46 
   1   6  -6    8.93    0.71 
  -1  -6   6    8.74    0.50 
   0   6  -6    7.02    0.61 
   0  -6   6    7.55    0.44 
  -1   6  -6    1.17    0.34 
   1  -6   6    1.18    0.19 
   2  -6   6    1.24    0.20 
   2  -6   6    1.55    0.21 
   3  -6   6    9.47    0.48 
   3  -6   6    8.92    0.54 
   4  -6   6   26.70    1.23 
   4  -6   6   26.39    1.04 
   5  -6   6    0.58    0.15 
   5  -6   6    0.67    0.31 
   6  -6   6    0.97    0.19 
   6  -6   6    0.53    0.35 
   7  -6   6    3.29    0.53 
   7  -6   6    2.95    0.27 
   8  -6   6    0.43    0.17 
   8  -6   6    0.21    0.36 
   9  -6   6    2.02    0.46 
   9  -6   6    2.49    0.31 
  10  -6   6    1.29    0.42 
  10  -6   6    1.34    0.26 
  11  -6   6   -0.11    0.29 
  12  -6   6    1.00    0.30 
  13  -6   6    1.55    0.31 
  11   5  -6    0.97    0.26 
  10   5  -6    0.74    0.35 
   9   5  -6    0.66    0.42 
   8   5  -6    1.57    0.51 
  -8  -5   6    1.41    0.22 
   7   5  -6    2.21    0.53 
  -7  -5   6    1.93    0.27 
   6   5  -6    1.76    0.51 
  -6  -5   6    1.86    0.27 
   5   5  -6    0.10    0.39 
  -5  -5   6   -0.12    0.11 
   4   5  -6    9.00    0.76 
  -4  -5   6    8.29    0.48 
   3   5  -6    7.42    0.67 
  -3  -5   6    6.93    0.42 
   2   5  -6   13.29    0.87 
  -2  -5   6   12.99    0.62 
   1   5  -6    1.67    0.40 
  -1  -5   6    1.87    0.24 
   0   5  -6   15.33    0.89 
   0  -5   6   15.33    0.67 
  -1   5  -6   68.58    2.86 
   1  -5   6   68.09    2.37 
  -2   5  -6   28.30    1.32 
   2  -5   6   27.93    1.20 
   2  -5   6   28.84    1.08 
   4  -5   6   11.28    0.67 
   4  -5   6   12.42    0.56 
   5  -5   6   -0.26    0.22 
   5  -5   6    0.01    0.09 
   6  -5   6   13.99    0.65 
   6  -5   6   14.18    0.85 
   7  -5   6    0.46    0.15 
   7  -5   6    0.29    0.32 
   8  -5   6    0.31    0.16 
   8  -5   6    0.44    0.35 
   9  -5   6    0.75    0.36 
   9  -5   6    1.32    0.25 
  10  -5   6    0.37    0.35 
  10  -5   6    0.16    0.16 
  11  -5   6    0.36    0.32 
  12  -5   6    0.79    0.25 
  13  -5   6    1.72    0.30 
  12   4  -6    1.85    0.33 
  11   4  -6    0.33    0.26 
  10   4  -6   -0.20    0.29 
   9   4  -6    0.12    0.39 
   7   4  -6    3.84    0.61 
  -7  -4   6    4.72    0.34 
   6   4  -6    0.78    0.40 
  -6  -4   6    0.68    0.18 
   5   4  -6    6.68    0.65 
  -5  -4   6    7.41    0.43 
   4   4  -6    0.19    0.33 
  -4  -4   6    0.19    0.13 
   3   4  -6    5.07    0.52 
  -3  -4   6    4.73    0.33 
   2   4  -6    8.75    0.62 
  -2  -4   6    8.38    0.45 
   1   4  -6   14.27    0.82 
  -1  -4   6   14.58    0.63 
   0   4  -6   48.49    2.10 
   0  -4   6   49.25    1.73 
  -1   4  -6    3.17    0.37 
   1  -4   6    2.66    0.21 
   1  -4   6    2.07    0.19 
  -2   4  -6   29.99    1.34 
   2  -4   6   31.13    1.14 
   2  -4   6   30.65    1.30 
   3  -4   6    0.05    0.09 
   3  -4   6    0.04    0.14 
   4  -4   6    6.97    0.39 
   4  -4   6    7.08    0.49 
   5  -4   6    3.88    0.41 
   5  -4   6    4.39    0.30 
   6  -4   6   11.17    0.55 
   6  -4   6   11.13    0.73 
   7  -4   6    3.35    0.28 
   7  -4   6    3.15    0.49 
   8  -4   6    1.83    0.27 
   8  -4   6    1.78    0.43 
   9  -4   6    0.39    0.18 
   9  -4   6    0.45    0.33 
 -10   4  -6    0.60    0.23 
  10  -4   6    0.41    0.33 
  11  -4   6    0.29    0.27 
  12  -4   6    1.37    0.31 
  12   3  -6    1.47    0.34 
  11   3  -6    0.58    0.36 
  10   3  -6    0.13    0.33 
   9   3  -6    0.15    0.37 
   8   3  -6    7.47    0.72 
   7   3  -6    2.33    0.36 
   7   3  -6    3.06    0.56 
  -7  -3   6    3.08    0.26 
   6   3  -6    0.29    0.36 
   6   3  -6    0.11    0.22 
  -6  -3   6    0.11    0.05 
   5   3  -6    7.07    0.62 
   5   3  -6    5.82    0.42 
  -5  -3   6    7.17    0.39 
   4   3  -6    2.81    0.45 
  -4  -3   6    2.52    0.25 
   3   3  -6    4.35    0.46 
  -3  -3   6    4.41    0.28 
   2   3  -6    2.06    0.34 
  -2  -3   6    2.02    0.21 
   1   3  -6    8.33    0.55 
  -1  -3   6    9.19    0.42 
   0   3  -6   27.81    1.24 
   0  -3   6   27.10    1.02 
  -1   3  -6    0.62    0.21 
   1  -3   6    0.65    0.13 
   1  -3   6    0.49    0.12 
  -2   3  -6    3.71    0.32 
   2  -3   6    4.11    0.27 
   2  -3   6    4.00    0.31 
   3  -3   6   11.07    0.61 
   3  -3   6   10.41    0.50 
   4  -3   6   19.75    0.81 
   4  -3   6   20.18    0.99 
   5  -3   6    2.92    0.39 
   5  -3   6    2.58    0.23 
   6  -3   6    6.57    0.57 
   6  -3   6    6.95    0.41 
   7  -3   6    1.14    0.36 
   7  -3   6    1.24    0.23 
   8  -3   6    1.00    0.23 
   8  -3   6    0.64    0.32 
  -9   3  -6    0.13    0.17 
   9  -3   6   -0.10    0.24 
 -10   3  -6    0.28    0.20 
  10  -3   6    0.62    0.32 
  11  -3   6    1.17    0.32 
  12  -3   6    0.82    0.26 
  13  -3   6    0.59    0.30 
  13   2  -6    1.73    0.38 
  12   2  -6    0.96    0.34 
  11   2  -6    0.65    0.39 
  10   2  -6   -0.30    0.33 
   9   2  -6   -0.31    0.32 
   9   2  -6   -0.20    0.23 
   8   2  -6    1.65    0.49 
   8   2  -6    0.91    0.32 
   7   2  -6    0.17    0.28 
   7   2  -6   -0.02    0.38 
  -7  -2   6    0.02    0.08 
   6   2  -6    1.90    0.43 
   6   2  -6    1.37    0.31 
  -6  -2   6    2.41    0.23 
   5   2  -6    4.67    0.48 
   5   2  -6    4.65    0.40 
  -5  -2   6    5.12    0.30 
   4   2  -6    1.34    0.34 
   4   2  -6    1.26    0.24 
   3   2  -6    9.39    0.61 
   3   2  -6    8.91    0.47 
  -3  -2   6    9.84    0.43 
   2   2  -6   -0.10    0.19 
  -2  -2   6    0.01    0.06 
   1   2  -6    3.11    0.31 
  -1  -2   6    3.37    0.22 
   0   2  -6   14.77    0.72 
   0  -2   6   14.06    0.59 
  -1   2  -6    1.07    0.21 
   1  -2   6    1.05    0.17 
   1  -2   6    1.24    0.16 
  -2   2  -6    3.21    0.26 
   2  -2   6    3.58    0.24 
   2  -2   6    3.72    0.30 
   3  -2   6   21.97    1.05 
   3  -2   6   22.28    0.87 
   4  -2   6    2.95    0.36 
   4  -2   6    2.57    0.26 
   5  -2   6   -0.15    0.17 
   5  -2   6   -0.06    0.08 
   6  -2   6    0.46    0.15 
   6  -2   6    0.39    0.27 
   7  -2   6    5.25    0.57 
  -8   2  -6    0.59    0.23 
   8  -2   6    0.37    0.29 
  -9   2  -6    0.74    0.25 
   9  -2   6    0.97    0.36 
 -10   2  -6    0.23    0.20 
  10  -2   6    0.27    0.24 
  11  -2   6    0.36    0.37 
  12  -2   6    0.60    0.39 
  13   1  -6    3.06    0.52 
  12   1  -6    0.29    0.32 
  11   1  -6    0.10    0.36 
  10   1  -6    1.00    0.44 
  10   1  -6    1.46    0.40 
   9   1  -6    0.94    0.37 
   9   1  -6    0.99    0.40 
   8   1  -6   -0.30    0.35 
   8   1  -6   -0.01    0.31 
   7   1  -6    1.70    0.39 
   7   1  -6    1.39    0.41 
  -7  -1   6    1.77    0.16 
   6   1  -6    0.29    0.29 
   6   1  -6   -0.04    0.28 
  -6  -1   6    0.22    0.08 
   5   1  -6    8.39    0.55 
   5   1  -6    9.05    0.62 
  -5  -1   6    9.68    0.40 
   4   1  -6    0.95    0.27 
   4   1  -6    0.65    0.21 
  -4  -1   6    0.51    0.10 
   3   1  -6    8.71    0.55 
   3   1  -6    8.67    0.47 
  -3  -1   6    8.22    0.37 
   2   1  -6    0.96    0.24 
  -2  -1   6    0.76    0.11 
   1   1  -6   27.50    1.20 
  -1  -1   6   26.53    0.98 
   0  -1   6   48.37    1.68 
   1  -1   6    0.51    0.11 
   2  -1   6   33.28    1.44 
   2  -1   6   32.14    1.21 
   3  -1   6   11.61    0.67 
   3  -1   6   12.53    0.57 
   4  -1   6    0.12    0.11 
   4  -1   6    0.14    0.19 
   5  -1   6    1.81    0.34 
   5  -1   6    1.43    0.21 
  -6   1  -6    0.89    0.25 
   6  -1   6    0.63    0.27 
  -7   1  -6    4.70    0.40 
   7  -1   6    5.14    0.57 
  -8   1  -6    0.50    0.22 
   8  -1   6    0.27    0.24 
  -9   1  -6    2.24    0.34 
   9  -1   6    1.94    0.44 
 -10   1  -6    0.28    0.22 
  10  -1   6    0.16    0.30 
 -11   1  -6    0.45    0.18 
  11  -1   6    0.34    0.35 
  12  -1   6    0.79    0.34 
  13   0  -6    3.17    0.53 
  12   0  -6    0.69    0.43 
  11   0  -6    0.54    0.40 
  11   0  -6    0.28    0.39 
  10   0  -6    1.17    0.43 
  10   0  -6    1.12    0.42 
   9   0  -6    2.02    0.46 
   9   0  -6    1.71    0.43 
   8   0  -6   -0.12    0.36 
   8   0  -6   -0.13    0.31 
   7   0  -6   10.49    0.71 
   7   0  -6    9.71    0.70 
   6   0  -6    2.45    0.39 
   6   0  -6    1.84    0.37 
  -6   0   6    1.88    0.13 
   5   0  -6    2.06    0.36 
   5   0  -6    3.06    0.37 
  -5   0   6    2.48    0.15 
   4   0  -6    6.33    0.44 
  -4   0   6    6.79    0.30 
  -2   0   6    0.36    0.09 
  -1   0   6    4.05    0.24 
   0   0   6    9.55    0.45 
   1   0   6   13.34    0.59 
   2   0   6    3.92    0.27 
   3   0   6   11.10    0.54 
   3   0   6   11.47    0.68 
  -4   0  -6    2.23    0.30 
   4   0   6    2.97    0.38 
  -5   0  -6   -0.02    0.17 
   5   0   6    0.03    0.18 
  -6   0  -6    4.96    0.41 
   6   0   6    4.72    0.54 
  -7   0  -6    1.55    0.30 
   7   0   6    1.07    0.34 
  -8   0  -6    3.56    0.42 
   8   0   6    3.35    0.51 
  -9   0  -6    4.54    0.42 
   9   0   6    4.35    0.60 
 -10   0  -6    3.69    0.43 
  10   0   6    3.36    0.58 
 -11   0  -6    0.67    0.19 
  11   0   6    0.65    0.33 
  14  -1  -6    0.79    0.27 
  13  -1  -6    2.12    0.46 
  12  -1  -6    0.79    0.41 
  12  -1  -6   -0.07    0.29 
  11  -1  -6   -0.07    0.29 
  11  -1  -6    0.08    0.38 
  10  -1  -6    1.50    0.42 
  10  -1  -6    2.02    0.49 
   9  -1  -6    0.09    0.31 
   9  -1  -6    0.91    0.44 
   8  -1  -6    0.65    0.36 
   8  -1  -6    0.75    0.39 
   7  -1  -6    0.55    0.36 
   7  -1  -6    0.66    0.33 
   6  -1  -6    1.06    0.34 
  -6   1   6    1.31    0.09 
   5  -1  -6    1.28    0.27 
  -5   1   6    1.33    0.10 
   4  -1  -6    1.43    0.28 
  -4   1   6    1.52    0.12 
  -2   1   6    0.29    0.08 
  -1   1   6   11.75    0.52 
   0   1   6   45.72    1.63 
   1   1   6   17.18    0.73 
  -2  -1  -6   37.46    1.41 
  -3  -1  -6    1.46    0.25 
  -4  -1  -6   -0.16    0.16 
   4   1   6    0.04    0.19 
  -5  -1  -6    0.25    0.21 
   5   1   6    0.17    0.23 
  -6  -1  -6    8.04    0.53 
   6   1   6    7.85    0.64 
  -7  -1  -6   -0.02    0.20 
   7   1   6    0.01    0.23 
  -8  -1  -6    0.36    0.24 
   8   1   6    0.28    0.29 
  -9  -1  -6    2.38    0.35 
   9   1   6    1.85    0.46 
 -10  -1  -6    1.40    0.27 
  10   1   6    1.77    0.48 
 -11  -1  -6    0.61    0.17 
  11   1   6    0.56    0.33 
  14  -2  -6    0.63    0.24 
  13  -2  -6    0.64    0.35 
  13  -2  -6    1.60    0.51 
  12  -2  -6    0.13    0.43 
  12  -2  -6    0.05    0.30 
  11  -2  -6   -0.22    0.30 
  11  -2  -6   -0.05    0.41 
  10  -2  -6    0.12    0.32 
  10  -2  -6    0.65    0.43 
   9  -2  -6    5.00    0.61 
   9  -2  -6    5.65    0.68 
   8  -2  -6    1.06    0.45 
   7  -2  -6    0.71    0.37 
   6  -2  -6   -0.13    0.25 
   5  -2  -6    2.87    0.39 
   4  -2  -6    0.63    0.25 
  -4   2   6    0.82    0.11 
  -3   2   6    0.08    0.04 
   1  -2  -6   50.19    1.77 
   0  -2  -6   72.97    2.52 
  -1  -2  -6   18.53    0.81 
  -2  -2  -6    3.50    0.32 
  -3  -2  -6    4.71    0.38 
  -4  -2  -6    1.81    0.31 
  -5  -2  -6    8.75    0.57 
   5   2   6    8.82    0.69 
  -6  -2  -6    0.83    0.27 
   6   2   6    0.44    0.29 
  -7  -2  -6    0.32    0.21 
   7   2   6    0.34    0.30 
  -8  -2  -6    1.70    0.32 
   8   2   6    1.28    0.40 
  -9  -2  -6    0.46    0.20 
   9   2   6    0.17    0.30 
 -10  -2  -6    0.91    0.20 
  10   2   6    0.69    0.33 
  14  -3  -6   -0.16    0.40 
  14  -3  -6    1.38    0.35 
  13  -3  -6    0.99    0.37 
  13  -3  -6    0.59    0.47 
  12  -3  -6    0.12    0.28 
  12  -3  -6   -0.28    0.40 
  11  -3  -6   -0.40    0.38 
  11  -3  -6   -0.04    0.28 
  10  -3  -6    2.13    0.54 
   9  -3  -6    3.60    0.61 
   8  -3  -6    0.63    0.44 
   7  -3  -6    0.27    0.35 
   6  -3  -6    1.31    0.35 
   6  -3  -6    1.11    0.14 
   5  -3  -6    0.71    0.30 
   5  -3  -6    1.23    0.16 
   4  -3  -6    1.92    0.36 
   4  -3  -6    1.90    0.20 
   3  -3  -6    2.91    0.24 
   2  -3  -6    0.88    0.19 
   1  -3  -6   22.88    0.93 
   0  -3  -6   23.12    0.96 
  -1  -3  -6    0.15    0.16 
  -2  -3  -6    1.48    0.28 
  -3  -3  -6    3.70    0.40 
  -4  -3  -6    2.71    0.36 
  -5  -3  -6    0.14    0.19 
  -6  -3  -6    0.13    0.20 
  -7  -3  -6    0.74    0.27 
  -8  -3  -6    0.76    0.24 
  -9  -3  -6    0.55    0.18 
 -10  -3  -6    2.01    0.27 
  14  -4  -6    0.78    0.27 
  14  -4  -6    0.32    0.49 
  13  -4  -6    0.29    0.47 
  13  -4  -6    0.41    0.28 
  12  -4  -6   -0.21    0.43 
  12  -4  -6    0.52    0.34 
  11  -4  -6    2.01    0.58 
  10  -4  -6   10.16    0.87 
   9  -4  -6   -0.44    0.41 
   8  -4  -6    0.98    0.46 
   7  -4  -6    0.92    0.39 
   6  -4  -6   12.94    0.83 
   5  -4  -6    1.29    0.37 
   5  -4  -6    1.85    0.22 
   4  -4  -6    0.31    0.27 
   4  -4  -6    0.34    0.15 
   3  -4  -6    1.17    0.22 
   2  -4  -6    3.77    0.33 
   1  -4  -6    2.71    0.32 
   0  -4  -6    0.10    0.19 
  -1  -4  -6   21.05    0.95 
  -2  -4  -6    2.88    0.37 
  -3  -4  -6    0.17    0.21 
  -4  -4  -6    6.20    0.48 
  -5  -4  -6    1.58    0.32 
  -6  -4  -6    1.46    0.31 
  -7  -4  -6    0.55    0.21 
  -8  -4  -6    0.55    0.21 
  -9  -4  -6    1.28    0.25 
  14  -5  -6    0.26    0.49 
  14  -5  -6    0.48    0.26 
  13  -5  -6    0.93    0.36 
  13  -5  -6   -0.04    0.44 
  12  -5  -6   -0.13    0.44 
  11  -5  -6    0.48    0.50 
  10  -5  -6    6.32    0.80 
   9  -5  -6    0.11    0.39 
   8  -5  -6    1.52    0.46 
   7  -5  -6    0.83    0.39 
   6  -5  -6    0.61    0.36 
   5  -5  -6    1.27    0.22 
   5  -5  -6    0.65    0.37 
   4  -5  -6    1.78    0.26 
   4  -5  -6    1.89    0.44 
   3  -5  -6    0.27    0.18 
   2  -5  -6    0.76    0.22 
   1  -5  -6    1.12    0.26 
   0  -5  -6    5.17    0.43 
  -1  -5  -6    1.79    0.33 
  -2  -5  -6   12.02    0.69 
  -3  -5  -6    0.87    0.29 
  -4  -5  -6    6.35    0.50 
  -5  -5  -6    1.16    0.31 
  -6  -5  -6    1.10    0.26 
  -7  -5  -6    0.54    0.19 
  -8  -5  -6    0.97    0.23 
  14  -6  -6    1.18    0.27 
  14  -6  -6    0.70    0.54 
  13  -6  -6    0.21    0.51 
  12  -6  -6   -0.04    0.48 
  11  -6  -6    1.12    0.54 
  10  -6  -6    3.48    0.67 
   9  -6  -6   -0.39    0.37 
   8  -6  -6    0.14    0.36 
   7  -6  -6    0.74    0.39 
   6  -6  -6    0.48    0.38 
   5  -6  -6    3.30    0.54 
   5  -6  -6    3.59    0.35 
   4  -6  -6   -0.26    0.31 
   4  -6  -6    0.08    0.17 
   3  -6  -6    1.14    0.27 
   2  -6  -6    2.61    0.36 
   1  -6  -6   -0.06    0.21 
   0  -6  -6    0.08    0.22 
  -1  -6  -6    4.30    0.46 
  -2  -6  -6    1.88    0.34 
  -3  -6  -6    0.03    0.21 
  -4  -6  -6    1.58    0.35 
  -5  -6  -6    0.30    0.23 
  -6  -6  -6    0.41    0.16 
  -7  -6  -6    1.20    0.24 
  14  -7  -6   -0.34    0.46 
  13  -7  -6   -0.20    0.47 
  12  -7  -6    0.93    0.56 
  11  -7  -6    1.85    0.62 
  10  -7  -6   -0.14    0.46 
   9  -7  -6    0.40    0.43 
   8  -7  -6    0.42    0.37 
   7  -7  -6    0.39    0.38 
   6  -7  -6    4.28    0.60 
   5  -7  -6    2.16    0.30 
   5  -7  -6    2.47    0.51 
   4  -7  -6    1.47    0.28 
   4  -7  -6    1.37    0.45 
   3  -7  -6    2.28    0.35 
   2  -7  -6    0.29    0.23 
   1  -7  -6    1.47    0.32 
   0  -7  -6   -0.22    0.19 
  -1  -7  -6    0.21    0.22 
  -2  -7  -6    2.92    0.44 
  -3  -7  -6   -0.48    0.22 
  -4  -7  -6    0.01    0.16 
  -5  -7  -6    0.84    0.21 
  -6  -7  -6    0.42    0.20 
  13  -8  -6   -0.20    0.52 
  12  -8  -6    0.37    0.55 
  11  -8  -6    0.07    0.53 
  10  -8  -6    0.97    0.54 
   9  -8  -6    0.80    0.49 
   8  -8  -6    0.01    0.36 
   7  -8  -6    1.42    0.46 
   6  -8  -6    0.07    0.36 
   5  -8  -6    0.08    0.37 
   5  -8  -6    0.32    0.19 
   4  -8  -6    0.87    0.27 
   4  -8  -6    1.37    0.44 
   3  -8  -6    0.47    0.24 
   2  -8  -6    0.73    0.28 
   1  -8  -6    0.60    0.27 
   0  -8  -6    0.02    0.23 
  -1  -8  -6    0.38    0.28 
  -2  -8  -6    1.57    0.41 
  -3  -8  -6   -0.01    0.26 
  -4  -8  -6    1.98    0.36 
  -5  -8  -6    1.20    0.24 
  13  -9  -6   -0.41    0.54 
  12  -9  -6   -0.18    0.56 
  11  -9  -6   -0.28    0.51 
  10  -9  -6   -0.06    0.44 
   9  -9  -6    0.88    0.48 
   8  -9  -6    1.87    0.51 
   7  -9  -6    0.17    0.38 
   6  -9  -6    0.29    0.38 
   5  -9  -6    0.81    0.26 
   5  -9  -6    0.35    0.38 
   4  -9  -6    1.82    0.36 
   4  -9  -6    1.69    0.49 
   3  -9  -6    1.18    0.31 
   2  -9  -6    1.16    0.33 
   1  -9  -6    1.76    0.39 
   0  -9  -6    0.23    0.24 
  -1  -9  -6   -0.33    0.19 
  -2  -9  -6   -0.01    0.25 
  -3  -9  -6   -0.23    0.25 
  -4  -9  -6    0.39    0.28 
  12 -10  -6   -0.05    0.57 
  11 -10  -6    0.43    0.55 
  10 -10  -6   -0.05    0.46 
   9 -10  -6    0.09    0.41 
   8 -10  -6    0.10    0.40 
   7 -10  -6   -0.23    0.32 
   6 -10  -6   -0.26    0.31 
   5 -10  -6    1.65    0.45 
   4 -10  -6    1.51    0.46 
   4 -10  -6    0.99    0.31 
   3 -10  -6   -0.16    0.19 
   2 -10  -6    0.17    0.24 
   1 -10  -6    0.22    0.25 
   0 -10  -6    0.21    0.27 
  -1 -10  -6   -0.08    0.26 
  -2 -10  -6    0.79    0.32 
  11 -11  -6    0.83    0.57 
  10 -11  -6    0.77    0.53 
   9 -11  -6   -0.21    0.30 
   8 -11  -6    0.42    0.35 
   7 -11  -6    0.02    0.33 
   6 -11  -6    0.32    0.32 
   5 -11  -6    0.43    0.36 
   4 -11  -6    0.41    0.26 
   4 -11  -6    1.50    0.44 
   3 -11  -6    0.22    0.26 
   3 -11  -6    0.67    0.37 
   2 -11  -6   -0.10    0.24 
   1 -11  -6   -0.14    0.22 
   0 -11  -6    0.85    0.33 
  10 -12  -6    0.66    0.33 
   9 -12  -6    0.40    0.29 
   8 -12  -6    0.76    0.35 
   7 -12  -6    0.26    0.32 
   6 -12  -6    1.00    0.36 
   5 -12  -6    1.02    0.35 
   4 -12  -6   -0.26    0.22 
   4 -12  -6    0.57    0.28 
   3 -12  -6    0.58    0.27 
   3 -12  -6    0.34    0.27 
   2 -12  -6    0.07    0.23 
   3 -16   7    0.34    0.26 
   4 -16   7   -0.03    0.20 
   5 -16   7    0.17    0.24 
   6 -16   7    0.26    0.22 
   7 -16   7    0.39    0.22 
   0 -15   7    0.33    0.22 
   1 -15   7    0.78    0.28 
   2 -15   7    1.72    0.41 
   3 -15   7    1.70    0.43 
   4 -15   7    0.39    0.27 
   5 -15   7    0.73    0.32 
   6 -15   7    0.74    0.26 
   7 -15   7    0.38    0.21 
   8 -15   7    0.45    0.23 
  -2 -14   7    2.23    0.35 
  -1 -14   7    1.08    0.22 
   0 -14   7    0.42    0.27 
   1 -14   7    0.01    0.24 
   2 -14   7    0.38    0.29 
   3 -14   7    1.21    0.36 
   4 -14   7    0.19    0.25 
   5 -14   7    0.19    0.24 
   6 -14   7    0.35    0.21 
   7 -14   7    2.55    0.39 
   8 -14   7    0.34    0.18 
  -4 -13   7    0.84    0.20 
  -3 -13   7    2.55    0.39 
  -2 -13   7    3.47    0.45 
  -1 -13   7    1.18    0.29 
   0 -13   7   -0.05    0.18 
   1 -13   7    0.58    0.30 
   2 -13   7    2.35    0.42 
   3 -13   7    1.58    0.39 
   4 -13   7    0.82    0.30 
   5 -13   7    1.20    0.33 
   6 -13   7    0.79    0.27 
   7 -13   7    0.89    0.26 
   8 -13   7    0.61    0.21 
   9 -13   7    0.75    0.20 
  10 -13   7    1.02    0.33 
  11 -13   7    1.11    0.31 
  12 -13   7    2.19    0.32 
  -5 -12   7    0.95    0.20 
  -4 -12   7    0.54    0.17 
  -3 -12   7    0.46    0.20 
  -2 -12   7    1.12    0.30 
  -1 -12   7    4.27    0.52 
   0 -12   7   -0.09    0.19 
   1 -12   7    0.04    0.22 
   2 -12   7    1.21    0.34 
   3 -12   7    4.19    0.50 
   4 -12   7    3.26    0.44 
   5 -12   7    5.87    0.49 
   6 -12   7    4.69    0.43 
   7 -12   7    1.20    0.27 
   8 -12   7    0.64    0.36 
   8 -12   7    0.76    0.20 
   9 -12   7    0.88    0.41 
   9 -12   7    1.05    0.25 
  10 -12   7    1.13    0.41 
  11 -12   7    1.40    0.38 
  12 -12   7    2.07    0.36 
  -6 -11   7    0.88    0.19 
  -5 -11   7    0.72    0.19 
  -4 -11   7    0.42    0.17 
  -3 -11   7    0.58    0.24 
  -2 -11   7    7.05    0.57 
  -1 -11   7    8.07    0.61 
   0 -11   7    2.02    0.38 
   1 -11   7    0.80    0.30 
   2 -11   7    2.79    0.41 
   3 -11   7    0.22    0.20 
   4 -11   7    3.81    0.43 
   5 -11   7    4.46    0.45 
   6 -11   7    2.98    0.36 
   7 -11   7   -0.38    0.33 
   7 -11   7   -0.07    0.14 
   8 -11   7   -0.01    0.35 
   8 -11   7   -0.04    0.15 
   9 -11   7    0.71    0.41 
   9 -11   7    0.59    0.19 
  10 -11   7    1.64    0.44 
  11 -11   7    0.66    0.30 
  12 -11   7    2.04    0.37 
  13 -11   7    3.19    0.33 
   7  10  -7    1.46    0.27 
  -7 -10   7    0.80    0.19 
   6  10  -7    0.94    0.26 
  -6 -10   7    0.64    0.17 
   5  10  -7    0.83    0.36 
  -5 -10   7    0.70    0.21 
   4  10  -7    2.67    0.60 
  -4 -10   7    2.09    0.38 
   3  10  -7    4.67    0.78 
  -3 -10   7    5.40    0.48 
  -2 -10   7   10.15    0.65 
  -1 -10   7    0.34    0.24 
   0 -10   7    0.32    0.23 
   1 -10   7    0.02    0.20 
   2 -10   7    0.12    0.19 
   3 -10   7    4.11    0.43 
   4 -10   7   -0.24    0.14 
   5 -10   7    4.18    0.50 
   5 -10   7    4.11    0.40 
   6 -10   7    4.65    0.55 
   6 -10   7    2.90    0.34 
   7 -10   7    0.72    0.22 
   7 -10   7    1.18    0.38 
   8 -10   7    0.75    0.22 
   8 -10   7    0.52    0.39 
   9 -10   7    0.90    0.22 
   9 -10   7    0.83    0.39 
  10 -10   7    0.20    0.34 
  11 -10   7    0.44    0.33 
  12 -10   7    1.55    0.33 
   8   9  -7    2.73    0.46 
   7   9  -7    1.17    0.30 
  -7  -9   7    0.83    0.22 
   6   9  -7   -0.10    0.28 
  -6  -9   7    0.40    0.17 
   5   9  -7    1.19    0.48 
  -5  -9   7    1.20    0.29 
   4   9  -7    1.81    0.54 
  -4  -9   7    1.89    0.35 
   3   9  -7    4.19    0.69 
  -3  -9   7    3.10    0.41 
   2   9  -7    0.44    0.43 
  -2  -9   7    0.11    0.19 
   1   9  -7    0.32    0.40 
  -1  -9   7    0.23    0.20 
   0  -9   7    0.37    0.22 
   1  -9   7    0.13    0.18 
   2  -9   7    0.05    0.17 
   3  -9   7    0.69    0.22 
   4  -9   7    2.18    0.31 
   4  -9   7    2.71    0.41 
   6  -9   7    1.49    0.26 
   6  -9   7    1.62    0.41 
   7  -9   7    8.00    0.67 
   7  -9   7    7.79    0.49 
   8  -9   7    1.56    0.43 
   8  -9   7    1.53    0.27 
   9  -9   7    0.87    0.22 
   9  -9   7    0.97    0.41 
  10  -9   7    0.32    0.17 
  10  -9   7    0.36    0.36 
  11  -9   7    1.89    0.44 
  12  -9   7    1.43    0.29 
  13  -9   7    1.27    0.27 
   9   8  -7    2.81    0.44 
   8   8  -7    1.73    0.39 
   7   8  -7    1.16    0.40 
  -7  -8   7    0.97    0.23 
   6   8  -7    0.08    0.38 
  -6  -8   7    0.29    0.18 
   5   8  -7    0.90    0.45 
  -5  -8   7    0.59    0.23 
   4   8  -7    0.11    0.37 
  -4  -8   7    0.26    0.20 
   3   8  -7   11.71    0.94 
  -3  -8   7   10.13    0.63 
   2   8  -7    0.95    0.49 
  -2  -8   7    1.04    0.27 
   1   8  -7    0.10    0.39 
  -1  -8   7    0.28    0.20 
   0   8  -7    0.25    0.38 
   0  -8   7    0.16    0.18 
   1  -8   7   -0.10    0.12 
   2  -8   7    0.09    0.15 
   3  -8   7   -0.08    0.20 
   3  -8   7   -0.06    0.12 
   4  -8   7    4.89    0.37 
   4  -8   7    4.89    0.47 
   5  -8   7   16.43    0.76 
   5  -8   7   16.08    0.91 
   6  -8   7    8.23    0.49 
   6  -8   7    8.05    0.67 
   7  -8   7    4.27    0.55 
   7  -8   7    3.20    0.34 
   8  -8   7    3.23    0.35 
   8  -8   7    3.29    0.53 
   9  -8   7    1.50    0.43 
   9  -8   7    1.39    0.26 
  10  -8   7    0.50    0.18 
  10  -8   7    0.59    0.35 
  11  -8   7    0.59    0.33 
  12  -8   7    0.95    0.27 
  13  -8   7    1.16    0.21 
  10   7  -7    1.64    0.27 
   9   7  -7    3.15    0.54 
   8   7  -7    1.26    0.49 
   7   7  -7    0.36    0.39 
  -7  -7   7    0.48    0.19 
   6   7  -7    2.89    0.63 
  -6  -7   7    2.57    0.34 
   5   7  -7    4.48    0.68 
  -5  -7   7    3.94    0.37 
   4   7  -7   -0.13    0.42 
  -4  -7   7    0.04    0.16 
   3   7  -7   11.94    0.98 
  -3  -7   7   12.30    0.67 
   2   7  -7    5.34    0.74 
  -2  -7   7    5.96    0.45 
   1   7  -7    4.71    0.67 
  -1  -7   7    4.25    0.37 
   0   7  -7    0.38    0.37 
   0  -7   7    0.62    0.19 
  -1   7  -7    4.83    0.60 
   1  -7   7    4.58    0.35 
   2  -7   7    0.11    0.12 
   3  -7   7    4.93    0.39 
   3  -7   7    4.60    0.34 
   4  -7   7    3.51    0.30 
   5  -7   7    9.95    0.54 
   5  -7   7    9.76    0.67 
   6  -7   7   13.74    0.85 
   6  -7   7   13.32    0.66 
   7  -7   7    4.36    0.35 
   7  -7   7    4.39    0.56 
   8  -7   7    6.24    0.59 
   8  -7   7    5.47    0.41 
   9  -7   7    0.20    0.17 
   9  -7   7    0.03    0.30 
  10  -7   7    0.61    0.23 
  10  -7   7    0.18    0.32 
  11  -7   7    1.03    0.37 
  12  -7   7    0.81    0.24 
  13  -7   7    0.92    0.20 
  10   6  -7    1.18    0.29 
   9   6  -7    1.61    0.46 
   8   6  -7    0.49    0.39 
   7   6  -7    0.33    0.40 
  -7  -6   7    0.12    0.14 
   6   6  -7    9.43    0.84 
  -6  -6   7    9.87    0.56 
   5   6  -7    1.69    0.54 
  -5  -6   7    1.55    0.26 
   4   6  -7    0.79    0.49 
  -4  -6   7    0.82    0.22 
   3   6  -7    5.38    0.73 
  -3  -6   7    5.40    0.41 
   2   6  -7   28.18    1.51 
  -2  -6   7   28.32    1.16 
   1   6  -7   11.28    0.85 
  -1  -6   7   12.12    0.61 
   0   6  -7    0.94    0.37 
   0  -6   7    1.33    0.21 
  -1   6  -7    0.25    0.27 
   1  -6   7    0.29    0.13 
  -2   6  -7    4.45    0.44 
   2  -6   7    4.25    0.31 
   2  -6   7    4.49    0.32 
   3  -6   7    0.10    0.11 
   3  -6   7    0.17    0.17 
   4  -6   7    3.44    0.38 
   4  -6   7    2.83    0.29 
   5  -6   7    7.82    0.46 
   5  -6   7    8.80    0.60 
   6  -6   7   19.66    0.84 
   6  -6   7   17.20    1.00 
   7  -6   7    3.33    0.34 
   7  -6   7    3.73    0.51 
   8  -6   7    2.42    0.45 
   8  -6   7    2.10    0.29 
   9  -6   7    0.02    0.30 
   9  -6   7    0.09    0.16 
  10  -6   7    1.84    0.47 
  10  -6   7    1.58    0.30 
  11  -6   7    1.33    0.38 
  13  -6   7    1.43    0.26 
  11   5  -7    2.06    0.40 
  10   5  -7    0.29    0.27 
   9   5  -7    1.36    0.51 
   8   5  -7    0.59    0.45 
   7   5  -7    0.63    0.42 
  -7  -5   7    0.93    0.20 
   6   5  -7    2.41    0.55 
  -6  -5   7    2.74    0.32 
   5   5  -7    0.00    0.41 
  -5  -5   7   -0.08    0.12 
   4   5  -7    0.95    0.46 
  -4  -5   7    0.99    0.22 
   3   5  -7    7.05    0.75 
  -3  -5   7    6.15    0.41 
   2   5  -7   10.35    0.78 
  -2  -5   7    9.65    0.52 
   1   5  -7   -0.03    0.28 
  -1  -5   7   -0.06    0.09 
   0   5  -7    0.22    0.28 
   0  -5   7    0.08    0.10 
  -1   5  -7    2.31    0.40 
   1  -5   7    2.24    0.24 
   1  -5   7    2.25    0.24 
  -2   5  -7    2.53    0.36 
   2  -5   7    2.51    0.25 
   2  -5   7    2.69    0.26 
   4  -5   7    4.04    0.41 
   4  -5   7    3.35    0.28 
   5  -5   7   26.79    1.08 
   5  -5   7   26.41    1.27 
   6  -5   7   18.24    0.82 
   6  -5   7   18.06    1.01 
   7  -5   7   13.36    0.86 
   7  -5   7   13.45    0.67 
   8  -5   7    2.52    0.33 
   8  -5   7    2.83    0.47 
   9  -5   7    0.29    0.17 
   9  -5   7    0.63    0.34 
  10  -5   7    2.35    0.35 
  10  -5   7    2.40    0.51 
  11  -5   7    2.50    0.46 
  12  -5   7    1.08    0.25 
  12   4  -7    1.73    0.32 
  11   4  -7    1.54    0.36 
  10   4  -7    0.50    0.37 
   9   4  -7    0.50    0.41 
   8   4  -7    0.23    0.39 
   7   4  -7   -0.21    0.34 
  -7  -4   7    0.12    0.08 
   6   4  -7    2.09    0.53 
  -6  -4   7    3.32    0.30 
   5   4  -7   -0.10    0.36 
  -5  -4   7    0.26    0.13 
   4   4  -7   -0.12    0.30 
  -4  -4   7    0.17    0.13 
   3   4  -7    0.35    0.33 
  -3  -4   7    0.63    0.15 
   2   4  -7    1.24    0.34 
  -2  -4   7    1.50    0.21 
   1   4  -7    0.40    0.27 
  -1  -4   7    0.22    0.11 
   0   4  -7   24.78    1.20 
   0  -4   7   24.46    0.96 
  -1   4  -7    2.42    0.36 
   1  -4   7    2.20    0.23 
   1  -4   7    2.08    0.19 
  -2   4  -7   20.41    0.99 
   2  -4   7   21.43    0.85 
   2  -4   7   20.20    0.94 
  -3   4  -7    4.10    0.30 
   3  -4   7    4.18    0.35 
   3  -4   7    3.83    0.28 
   4  -4   7    2.94    0.36 
   4  -4   7    2.65    0.24 
   5  -4   7    7.97    0.45 
   5  -4   7    7.50    0.57 
   6  -4   7    0.14    0.14 
   6  -4   7    0.05    0.27 
   7  -4   7    2.76    0.46 
   7  -4   7    3.34    0.35 
   8  -4   7    0.50    0.31 
   8  -4   7    0.94    0.24 
   9  -4   7    0.85    0.25 
   9  -4   7    1.26    0.38 
 -10   4  -7    3.13    0.40 
  10  -4   7    3.22    0.55 
  11  -4   7    2.85    0.48 
  12  -4   7    1.36    0.27 
  12   3  -7    1.67    0.37 
  11   3  -7    1.41    0.39 
  10   3  -7    0.79    0.41 
   9   3  -7    0.33    0.40 
   8   3  -7   -0.06    0.37 
   7   3  -7    1.72    0.50 
  -7  -3   7    1.49    0.21 
   6   3  -7    9.58    0.77 
  -6  -3   7    7.89    0.44 
   5   3  -7   11.07    0.83 
  -5  -3   7   10.51    0.52 
   4   3  -7   11.19    0.79 
  -4  -3   7   11.81    0.55 
   3   3  -7    2.75    0.46 
  -3  -3   7    2.69    0.22 
   2   3  -7    1.08    0.33 
  -2  -3   7    0.66    0.13 
  -2  -3   7    0.66    0.13 
   1   3  -7    0.60    0.26 
  -1  -3   7    0.26    0.10 
   0   3  -7    4.29    0.40 
   0  -3   7    4.81    0.30 
  -1   3  -7    2.25    0.31 
   1  -3   7    2.44    0.23 
  -2   3  -7    0.89    0.21 
   2  -3   7    0.77    0.18 
   2  -3   7    0.78    0.15 
  -3   3  -7    1.07    0.16 
   3  -3   7    0.76    0.21 
   3  -3   7    0.89    0.16 
   4  -3   7    0.92    0.17 
   4  -3   7    0.63    0.24 
   5  -3   7    5.48    0.37 
   5  -3   7    5.59    0.50 
   6  -3   7   -0.03    0.24 
   6  -3   7    0.09    0.14 
   7  -3   7    3.00    0.46 
   7  -3   7    3.72    0.38 
   8  -3   7    2.37    0.32 
   8  -3   7    2.12    0.42 
  -9   3  -7    0.36    0.22 
   9  -3   7    0.99    0.36 
 -10   3  -7    4.60    0.43 
  10  -3   7    6.01    0.59 
 -11   3  -7    1.90    0.33 
  11  -3   7    2.24    0.42 
  12  -3   7    1.01    0.21 
  13   2  -7    0.89    0.25 
  12   2  -7    0.95    0.31 
  11   2  -7    1.15    0.45 
  10   2  -7    0.24    0.38 
   9   2  -7    0.02    0.37 
   8   2  -7    1.15    0.47 
   7   2  -7    0.86    0.32 
   7   2  -7    0.51    0.40 
   6   2  -7    9.15    0.73 
   6   2  -7    8.40    0.58 
  -6  -2   7   10.71    0.47 
   5   2  -7   24.23    1.28 
  -5  -2   7   25.54    0.95 
   4   2  -7    0.07    0.20 
   4   2  -7    0.13    0.28 
  -4  -2   7    0.04    0.08 
   3   2  -7    4.71    0.33 
   3   2  -7    4.49    0.43 
  -3  -2   7    4.83    0.27 
   2   2  -7    0.58    0.17 
   2   2  -7    0.53    0.26 
  -2  -2   7    0.70    0.13 
   1   2  -7    0.01    0.19 
  -1  -2   7   -0.09    0.06 
   0   2  -7    8.86    0.54 
   0  -2   7    9.48    0.44 
  -1   2  -7    2.63    0.29 
   1  -2   7    2.46    0.21 
  -2   2  -7    3.14    0.29 
   2  -2   7    3.49    0.31 
   2  -2   7    3.26    0.25 
   3  -2   7    2.85    0.34 
   3  -2   7    2.37    0.25 
   4  -2   7    0.11    0.19 
   4  -2   7    0.20    0.12 
   5  -2   7    2.03    0.37 
   5  -2   7    2.26    0.27 
   6  -2   7    1.57    0.26 
   6  -2   7    1.27    0.34 
   7  -2   7    0.55    0.28 
  -8   2  -7    3.63    0.41 
   8  -2   7    2.36    0.45 
  -9   2  -7   -0.20    0.19 
   9  -2   7    0.22    0.25 
 -10   2  -7    3.96    0.46 
  10  -2   7    4.11    0.54 
 -11   2  -7    0.95    0.26 
  11  -2   7    1.87    0.33 
  12  -2   7    0.08    0.24 
  13   1  -7    0.58    0.23 
  12   1  -7    0.89    0.39 
  11   1  -7    0.68    0.45 
  10   1  -7    0.16    0.45 
   9   1  -7    0.66    0.38 
   9   1  -7    0.80    0.35 
   8   1  -7   -0.25    0.31 
   8   1  -7    0.07    0.34 
   7   1  -7    8.10    0.66 
   7   1  -7    7.08    0.60 
   6   1  -7    4.36    0.50 
   6   1  -7    4.31    0.55 
  -6  -1   7    5.02    0.26 
   5   1  -7    0.39    0.31 
   5   1  -7    0.53    0.27 
  -5  -1   7    0.51    0.11 
   4   1  -7   11.10    0.67 
   4   1  -7   11.18    0.57 
  -4  -1   7    9.10    0.43 
   3   1  -7   12.31    0.63 
   3   1  -7   12.03    0.71 
  -3  -1   7   11.64    0.50 
   2   1  -7    3.10    0.38 
  -2  -1   7    2.98    0.21 
   1   1  -7    2.38    0.33 
  -1  -1   7    2.14    0.18 
   0   1  -7   14.91    0.74 
   0  -1   7   14.80    0.63 
   1  -1   7   52.87    1.86 
  -2   1  -7   16.87    0.77 
   2  -1   7   17.08    0.73 
   3  -1   7    0.58    0.15 
   3  -1   7    0.63    0.21 
   4  -1   7    9.58    0.62 
   4  -1   7    7.57    0.46 
   5  -1   7    4.13    0.33 
   5  -1   7    4.33    0.44 
  -6   1  -7    0.33    0.23 
   6  -1   7   -0.16    0.22 
  -7   1  -7    1.84    0.33 
   7  -1   7    1.83    0.37 
  -8   1  -7    4.66    0.43 
   8  -1   7    4.91    0.52 
  -9   1  -7    0.25    0.22 
   9  -1   7    0.24    0.24 
 -10   1  -7    1.13    0.28 
  10  -1   7    0.79    0.27 
  11  -1   7    0.94    0.40 
  13   0  -7    0.77    0.33 
  12   0  -7   -0.15    0.32 
  11   0  -7    0.05    0.34 
  10   0  -7    2.40    0.54 
  10   0  -7    2.14    0.48 
   9   0  -7    0.62    0.38 
   9   0  -7    0.23    0.31 
   8   0  -7    3.02    0.50 
   8   0  -7    2.77    0.50 
   7   0  -7    2.55    0.46 
   7   0  -7    3.49    0.52 
   6   0  -7    3.53    0.50 
   6   0  -7    3.04    0.45 
  -6   0   7    3.66    0.20 
   5   0  -7    7.52    0.53 
   5   0  -7    5.95    0.53 
  -5   0   7    7.38    0.33 
   4   0  -7    8.25    0.53 
  -4   0   7    8.54    0.38 
   3   0  -7    3.42    0.35 
  -3   0   7    2.65    0.19 
  -2   0   7    0.19    0.08 
  -1   0   7    0.23    0.09 
   0   0   7   10.38    0.50 
   1   0   7   43.63    1.59 
   2   0   7    1.67    0.22 
   3   0   7    4.30    0.42 
   3   0   7    4.36    0.32 
  -4   0  -7    1.60    0.29 
   4   0   7    1.31    0.30 
  -5   0  -7    4.34    0.39 
   5   0   7    4.56    0.47 
  -6   0  -7    1.41    0.30 
   6   0   7    1.37    0.34 
  -7   0  -7    5.05    0.49 
   7   0   7    4.28    0.54 
  -8   0  -7    0.71    0.27 
   8   0   7    0.61    0.31 
  -9   0  -7    0.25    0.22 
   9   0   7    0.15    0.33 
 -10   0  -7    1.03    0.22 
  10   0   7    0.16    0.28 
 -11   0  -7    0.41    0.17 
  11   0   7    0.46    0.27 
  13  -1  -7    0.63    0.27 
  12  -1  -7    0.06    0.33 
  11  -1  -7    0.53    0.45 
  11  -1  -7   -0.09    0.33 
  10  -1  -7    1.03    0.39 
  10  -1  -7    0.94    0.46 
   9  -1  -7   -0.08    0.37 
   9  -1  -7   -0.07    0.27 
   8  -1  -7    0.04    0.31 
   8  -1  -7    0.00    0.42 
   7  -1  -7    2.50    0.44 
   6  -1  -7    3.14    0.46 
  -6   1   7    3.19    0.18 
   5  -1  -7    1.59    0.34 
  -5   1   7    2.06    0.15 
   4  -1  -7    1.88    0.32 
  -4   1   7    1.85    0.15 
  -3   1   7    1.86    0.16 
  -2   1   7    1.61    0.18 
  -1   1   7   -0.04    0.06 
   0   1   7    3.64    0.27 
   1   1   7   15.88    0.71 
  -2  -1  -7    2.39    0.31 
  -3  -1  -7    1.12    0.26 
  -4  -1  -7    0.50    0.23 
  -5  -1  -7    0.13    0.21 
   5   1   7   -0.25    0.18 
  -6  -1  -7    1.23    0.29 
   6   1   7    0.82    0.31 
  -7  -1  -7   -0.27    0.19 
   7   1   7    0.00    0.21 
  -8  -1  -7    0.76    0.27 
   8   1   7   -0.02    0.27 
  -9  -1  -7    1.02    0.26 
   9   1   7    1.47    0.45 
 -10  -1  -7    1.52    0.26 
  10   1   7    1.05    0.40 
  14  -2  -7    0.86    0.27 
  13  -2  -7    0.45    0.26 
  13  -2  -7    0.72    0.46 
  12  -2  -7    0.71    0.34 
  12  -2  -7    0.71    0.47 
  11  -2  -7   -0.33    0.40 
  11  -2  -7    0.33    0.34 
  10  -2  -7   -0.16    0.41 
  10  -2  -7    0.12    0.30 
   9  -2  -7    0.01    0.29 
   9  -2  -7   -0.06    0.44 
   8  -2  -7    2.85    0.55 
   7  -2  -7    0.43    0.36 
   6  -2  -7    0.48    0.28 
   5  -2  -7    2.81    0.42 
  -5   2   7    2.95    0.19 
   4  -2  -7    3.77    0.46 
  -4   2   7    4.08    0.24 
  -3   2   7    0.19    0.08 
   1  -2  -7    8.09    0.45 
   0  -2  -7    1.89    0.26 
  -1  -2  -7    0.68    0.21 
  -2  -2  -7    3.04    0.36 
  -3  -2  -7    4.51    0.40 
  -4  -2  -7    0.08    0.20 
  -5  -2  -7    1.65    0.33 
  -6  -2  -7    1.92    0.36 
  -7  -2  -7    1.83    0.35 
  -8  -2  -7    0.94    0.27 
   8   2   7    0.45    0.36 
  -9  -2  -7    2.54    0.38 
   9   2   7    1.55    0.48 
 -10  -2  -7    1.02    0.19 
  10   2   7    1.01    0.37 
  14  -3  -7    0.84    0.26 
  14  -3  -7    0.44    0.48 
  13  -3  -7    0.66    0.51 
  13  -3  -7    0.82    0.31 
  12  -3  -7    1.54    0.45 
  12  -3  -7    1.38    0.53 
  11  -3  -7    0.05    0.43 
  11  -3  -7    0.01    0.30 
  10  -3  -7    0.75    0.49 
   9  -3  -7    1.30    0.50 
   8  -3  -7    0.56    0.43 
   7  -3  -7    2.21    0.47 
   6  -3  -7    1.22    0.35 
   5  -3  -7    0.72    0.32 
   5  -3  -7    0.92    0.17 
   4  -3  -7    0.10    0.26 
   4  -3  -7    0.64    0.18 
   3  -3  -7    0.14    0.14 
   2  -3  -7    0.40    0.17 
   1  -3  -7   10.23    0.55 
   0  -3  -7   16.43    0.78 
  -1  -3  -7   10.24    0.59 
  -2  -3  -7    5.53    0.45 
  -3  -3  -7   -0.26    0.19 
  -4  -3  -7    1.69    0.32 
  -5  -3  -7    0.18    0.19 
  -6  -3  -7    0.52    0.25 
  -7  -3  -7    0.63    0.23 
  -8  -3  -7    1.30    0.27 
  -9  -3  -7    0.32    0.15 
  14  -4  -7    1.55    0.34 
  14  -4  -7    0.24    0.48 
  13  -4  -7    1.22    0.37 
  13  -4  -7    1.28    0.54 
  12  -4  -7    0.38    0.30 
  12  -4  -7    0.16    0.46 
  11  -4  -7    0.24    0.47 
  10  -4  -7   -0.16    0.45 
   9  -4  -7    0.14    0.41 
   8  -4  -7    2.71    0.53 
   7  -4  -7    6.20    0.60 
   6  -4  -7    0.74    0.36 
   5  -4  -7    3.63    0.30 
   5  -4  -7    3.97    0.53 
   4  -4  -7   -0.13    0.30 
   4  -4  -7    0.24    0.17 
   3  -4  -7    1.71    0.27 
   2  -4  -7    0.00    0.16 
   1  -4  -7   13.45    0.69 
   0  -4  -7    8.32    0.55 
  -1  -4  -7   10.79    0.64 
  -2  -4  -7    0.11    0.21 
  -3  -4  -7    2.41    0.37 
  -4  -4  -7    0.61    0.24 
  -5  -4  -7    0.63    0.26 
  -6  -4  -7    1.53    0.33 
  -7  -4  -7    0.38    0.17 
  -8  -4  -7    1.56    0.29 
  14  -5  -7    0.37    0.48 
  14  -5  -7    0.58    0.24 
  13  -5  -7    0.63    0.25 
  13  -5  -7    0.57    0.50 
  12  -5  -7   -0.07    0.44 
  11  -5  -7    1.24    0.54 
  10  -5  -7    0.55    0.52 
   9  -5  -7   -0.19    0.41 
   8  -5  -7    3.39    0.54 
   7  -5  -7    0.21    0.35 
   6  -5  -7    1.02    0.42 
   5  -5  -7    4.13    0.56 
   5  -5  -7    3.89    0.36 
   4  -5  -7    7.14    0.66 
   4  -5  -7    8.54    0.49 
   2  -5  -7    5.70    0.45 
   1  -5  -7    9.92    0.61 
   0  -5  -7   19.50    0.94 
  -1  -5  -7    0.74    0.27 
  -2  -5  -7    1.57    0.33 
  -3  -5  -7    0.19    0.22 
  -4  -5  -7    0.58    0.26 
  -5  -5  -7    2.10    0.35 
  -6  -5  -7    0.62    0.18 
  -7  -5  -7    1.61    0.29 
  14  -6  -7    0.35    0.51 
  14  -6  -7    0.47    0.18 
  13  -6  -7    0.05    0.50 
  12  -6  -7    0.11    0.46 
  11  -6  -7   -0.28    0.46 
  10  -6  -7    0.35    0.48 
   9  -6  -7    0.20    0.42 
   8  -6  -7    0.75    0.37 
   7  -6  -7    0.37    0.36 
   6  -6  -7    0.51    0.38 
   5  -6  -7    0.99    0.25 
   5  -6  -7    0.94    0.41 
   4  -6  -7   -0.02    0.34 
   4  -6  -7    0.10    0.19 
   3  -6  -7    6.48    0.47 
   2  -6  -7    0.77    0.28 
   1  -6  -7    1.53    0.34 
   0  -6  -7    1.10    0.31 
  -1  -6  -7    2.88    0.41 
  -2  -6  -7    0.15    0.23 
  -3  -6  -7    1.86    0.38 
  -4  -6  -7    0.88    0.26 
  -5  -6  -7    1.55    0.31 
  -6  -6  -7    2.11    0.35 
  13  -7  -7    0.32    0.57 
  12  -7  -7    0.85    0.58 
  11  -7  -7    0.32    0.54 
  10  -7  -7   -0.18    0.43 
   9  -7  -7   -0.17    0.38 
   8  -7  -7    0.22    0.37 
   7  -7  -7    0.02    0.34 
   6  -7  -7    1.10    0.41 
   5  -7  -7    1.96    0.29 
   5  -7  -7    1.84    0.47 
   4  -7  -7    0.81    0.25 
   4  -7  -7    0.47    0.39 
   3  -7  -7    0.27    0.23 
   2  -7  -7    0.55    0.27 
   1  -7  -7    1.79    0.35 
   0  -7  -7    1.14    0.33 
  -1  -7  -7    1.50    0.37 
  -2  -7  -7    0.52    0.32 
  -3  -7  -7    3.15    0.49 
  -4  -7  -7    0.14    0.26 
  -5  -7  -7    1.09    0.26 
  13  -8  -7    0.58    0.60 
  12  -8  -7    0.15    0.55 
  11  -8  -7   -0.32    0.46 
  10  -8  -7    0.81    0.50 
   9  -8  -7    1.81    0.52 
   8  -8  -7    0.99    0.45 
   7  -8  -7    0.15    0.37 
   6  -8  -7    0.54    0.42 
   5  -8  -7    0.25    0.38 
   4  -8  -7   -0.44    0.32 
   4  -8  -7    0.16    0.20 
   3  -8  -7    0.08    0.21 
   2  -8  -7    0.34    0.25 
   1  -8  -7    0.31    0.25 
   0  -8  -7    0.69    0.28 
  -1  -8  -7    0.21    0.27 
  -2  -8  -7    2.32    0.46 
  -3  -8  -7    1.97    0.45 
  -4  -8  -7    0.15    0.24 
  12  -9  -7   -0.10    0.56 
  11  -9  -7   -0.44    0.48 
  10  -9  -7   -0.28    0.45 
   9  -9  -7    0.53    0.48 
   8  -9  -7    0.05    0.39 
   7  -9  -7    0.48    0.42 
   6  -9  -7   -0.10    0.38 
   5  -9  -7   -0.22    0.33 
   4  -9  -7    0.04    0.22 
   4  -9  -7   -0.32    0.32 
   3  -9  -7    0.20    0.24 
   2  -9  -7    0.09    0.23 
   1  -9  -7    0.11    0.23 
   0  -9  -7    0.00    0.27 
  -1  -9  -7    0.26    0.28 
  -2  -9  -7    1.23    0.39 
  -3  -9  -7    0.22    0.28 
  11 -10  -7    0.04    0.54 
  10 -10  -7   -0.27    0.43 
   9 -10  -7   -0.13    0.38 
   8 -10  -7    0.13    0.39 
   7 -10  -7    0.26    0.44 
   6 -10  -7   -0.05    0.27 
   5 -10  -7    0.56    0.38 
   4 -10  -7    1.54    0.35 
   4 -10  -7    1.32    0.41 
   3 -10  -7    0.64    0.28 
   2 -10  -7    2.71    0.46 
   1 -10  -7    3.11    0.50 
   0 -10  -7    0.47    0.30 
  -1 -10  -7    0.36    0.25 
  10 -11  -7   -0.32    0.44 
   9 -11  -7    0.24    0.43 
   8 -11  -7   -0.32    0.26 
   7 -11  -7    0.66    0.32 
   6 -11  -7    0.77    0.38 
   5 -11  -7    1.43    0.41 
   4 -11  -7    1.57    0.42 
   3 -11  -7    1.36    0.37 
   3 -11  -7    0.12    0.23 
   2 -11  -7    0.46    0.28 
   1 -11  -7    0.75    0.29 
   8 -12  -7    0.70    0.35 
   7 -12  -7    0.67    0.28 
   6 -12  -7    0.83    0.30 
   5 -12  -7    0.89    0.33 
   4 -12  -7    0.26    0.24 
   4 -16   8    0.73    0.29 
   5 -16   8    0.36    0.23 
   6 -16   8    0.50    0.22 
   0 -15   8    1.27    0.29 
   1 -15   8    1.13    0.29 
   2 -15   8    0.29    0.29 
   3 -15   8    1.56    0.41 
   4 -15   8    2.58    0.47 
   5 -15   8    0.49    0.26 
   6 -15   8    0.27    0.23 
   7 -15   8   -0.08    0.17 
   8 -15   8    0.58    0.21 
  -2 -14   8    0.83    0.21 
  -1 -14   8    0.62    0.19 
   0 -14   8    0.37    0.16 
   1 -14   8    2.39    0.51 
   2 -14   8    0.92    0.37 
   3 -14   8    0.82    0.32 
   4 -14   8    1.62    0.37 
   5 -14   8   -0.15    0.17 
   6 -14   8    0.31    0.19 
   7 -14   8    1.34    0.30 
   8 -14   8    0.53    0.22 
   9 -14   8    0.27    0.20 
  -3 -13   8    1.33    0.26 
  -2 -13   8    0.81    0.22 
  -1 -13   8    0.88    0.25 
   0 -13   8    4.39    0.53 
   1 -13   8    1.63    0.39 
   2 -13   8    0.49    0.29 
   3 -13   8    1.94    0.40 
   4 -13   8    2.24    0.40 
   5 -13   8   -0.09    0.17 
   6 -13   8    0.23    0.21 
   7 -13   8    0.50    0.20 
   8 -13   8    0.30    0.17 
   9 -13   8    0.59    0.22 
  -5 -12   8    0.88    0.19 
  -4 -12   8    1.36    0.27 
  -3 -12   8    2.13    0.36 
  -2 -12   8    1.83    0.36 
  -1 -12   8    1.20    0.33 
   0 -12   8    6.04    0.62 
   1 -12   8    0.41    0.29 
   2 -12   8    1.62    0.37 
   3 -12   8    0.54    0.27 
   4 -12   8    0.91    0.28 
   5 -12   8   -0.09    0.17 
   6 -12   8   -0.01    0.16 
   7 -12   8    0.04    0.15 
   8 -12   8    0.26    0.16 
   9 -12   8    0.32    0.17 
  10 -12   8    1.11    0.32 
  11 -12   8    1.58    0.31 
  12 -12   8    1.60    0.26 
  -6 -11   8    0.59    0.14 
   5  11  -8    1.63    0.31 
  -5 -11   8    0.69    0.17 
   4  11  -8    3.27    0.63 
  -4 -11   8    3.28    0.43 
  -3 -11   8    0.76    0.24 
  -2 -11   8    1.06    0.31 
  -1 -11   8    1.45    0.37 
   0 -11   8    1.05    0.32 
   1 -11   8    1.60    0.35 
   2 -11   8    0.13    0.22 
   3 -11   8    0.23    0.18 
   4 -11   8    0.04    0.17 
   5 -11   8    0.34    0.20 
   6 -11   8    2.59    0.35 
   7 -11   8    1.27    0.27 
   8 -11   8    0.43    0.19 
   8 -11   8    1.24    0.37 
   9 -11   8    0.71    0.21 
   9 -11   8    1.04    0.36 
  10 -11   8    0.50    0.28 
  11 -11   8    1.01    0.25 
  12 -11   8    1.66    0.25 
   7  10  -8    2.60    0.41 
  -7 -10   8    1.34    0.24 
   6  10  -8    1.34    0.32 
  -6 -10   8    0.73    0.19 
   5  10  -8    2.08    0.48 
  -5 -10   8    1.25    0.27 
   4  10  -8    1.53    0.63 
  -4 -10   8    1.69    0.34 
   3  10  -8    0.20    0.42 
  -3 -10   8    0.34    0.23 
   2  10  -8    0.16    0.36 
  -2 -10   8    0.74    0.28 
   1  10  -8   19.12    1.32 
  -1 -10   8   18.62    0.98 
   0 -10   8   13.96    0.80 
   1 -10   8    0.31    0.22 
   2 -10   8    0.82    0.25 
   3 -10   8    0.25    0.19 
   4 -10   8    1.64    0.29 
   5 -10   8    0.10    0.15 
   6 -10   8    1.16    0.24 
   6 -10   8    2.35    0.32 
   7 -10   8    1.14    0.26 
   7 -10   8    2.50    0.44 
   8 -10   8    0.29    0.17 
   8 -10   8    0.30    0.34 
   9 -10   8    0.05    0.17 
   9 -10   8    0.19    0.30 
  10 -10   8    0.89    0.34 
  10 -10   8    0.26    0.16 
  11 -10   8    1.63    0.35 
   8   9  -8    1.72    0.34 
   7   9  -8    2.08    0.39 
  -7  -9   8    0.44    0.15 
   6   9  -8    0.83    0.42 
  -6  -9   8    0.29    0.17 
   5   9  -8    1.72    0.55 
  -5  -9   8    1.43    0.30 
   4   9  -8    5.14    0.79 
  -4  -9   8    4.90    0.45 
   3   9  -8    0.24    0.42 
  -3  -9   8   -0.11    0.19 
   2   9  -8    2.88    0.64 
  -2  -9   8    2.16    0.36 
   1   9  -8   11.51    0.95 
  -1  -9   8    9.25    0.62 
   0   9  -8    3.99    0.67 
   0  -9   8    4.04    0.44 
   1  -9   8    0.34    0.19 
   2  -9   8    0.65    0.22 
   3  -9   8    0.24    0.17 
   4  -9   8    7.25    0.48 
   5  -9   8    0.09    0.24 
   5  -9   8    0.10    0.14 
   6  -9   8    2.77    0.34 
   6  -9   8    4.11    0.49 
   7  -9   8    0.63    0.33 
   7  -9   8    0.81    0.24 
   8  -9   8    0.56    0.19 
   8  -9   8    0.91    0.36 
   9  -9   8    0.19    0.15 
   9  -9   8    0.44    0.31 
  10  -9   8    0.63    0.30 
  10  -9   8    0.10    0.13 
  11  -9   8    1.14    0.33 
  12  -9   8    1.53    0.26 
   9   8  -8    1.23    0.32 
   8   8  -8    0.70    0.23 
   7   8  -8    1.35    0.46 
  -7  -8   8    1.66    0.27 
   6   8  -8    0.04    0.38 
  -6  -8   8    0.25    0.17 
   5   8  -8    4.06    0.70 
  -5  -8   8    3.91    0.43 
   4   8  -8    9.53    0.87 
  -4  -8   8    8.42    0.59 
   3   8  -8   -0.06    0.39 
  -3  -8   8    0.02    0.19 
   2   8  -8   -0.80    0.37 
  -2  -8   8    0.08    0.18 
   1   8  -8    1.87    0.59 
  -1  -8   8    2.04    0.33 
   0   8  -8    2.74    0.60 
   0  -8   8    1.99    0.31 
  -1   8  -8   -0.27    0.30 
   1  -8   8   -0.02    0.14 
   2  -8   8    0.23    0.16 
   3  -8   8    1.42    0.23 
   3  -8   8    1.36    0.24 
   4  -8   8    8.26    0.55 
   4  -8   8    8.44    0.51 
   5  -8   8    0.58    0.15 
   5  -8   8    1.59    0.26 
   6  -8   8    1.79    0.28 
   6  -8   8    1.73    0.39 
   7  -8   8    0.20    0.16 
   7  -8   8    0.24    0.28 
   8  -8   8    0.54    0.20 
   8  -8   8    0.42    0.30 
   9  -8   8    1.13    0.27 
   9  -8   8    1.18    0.36 
  10  -8   8    0.26    0.18 
  10  -8   8    0.22    0.27 
  11  -8   8    1.10    0.30 
  12  -8   8    1.16    0.25 
  13  -8   8    2.42    0.25 
  10   7  -8    2.46    0.42 
   9   7  -8    1.22    0.32 
   8   7  -8    1.48    0.44 
   7   7  -8    1.44    0.52 
  -7  -7   8    1.39    0.27 
   6   7  -8   -0.31    0.39 
  -6  -7   8    0.10    0.16 
   5   7  -8    1.53    0.56 
  -5  -7   8    1.77    0.31 
   4   7  -8    3.48    0.67 
  -4  -7   8    3.85    0.41 
   3   7  -8    0.63    0.50 
  -3  -7   8    0.60    0.23 
   2   7  -8    3.77    0.66 
  -2  -7   8    3.44    0.38 
   1   7  -8    3.55    0.62 
  -1  -7   8    3.88    0.38 
   0   7  -8   -0.21    0.35 
   0  -7   8    0.22    0.17 
  -1   7  -8    0.20    0.34 
   1  -7   8    0.42    0.17 
  -2   7  -8   -0.07    0.28 
   2  -7   8   -0.08    0.10 
   3  -7   8    2.87    0.31 
   3  -7   8    2.39    0.29 
   4  -7   8    0.14    0.14 
   4  -7   8   -0.20    0.16 
   5  -7   8   11.11    0.70 
   5  -7   8   11.18    0.60 
   6  -7   8    1.99    0.29 
   6  -7   8    2.38    0.42 
   7  -7   8    1.25    0.37 
   7  -7   8    1.84    0.28 
   8  -7   8    0.38    0.18 
   8  -7   8    0.54    0.30 
   9  -7   8    3.79    0.41 
   9  -7   8    4.59    0.58 
  10  -7   8    0.22    0.26 
  10  -7   8    0.40    0.20 
  11  -7   8    0.95    0.29 
  12  -7   8    1.44    0.28 
  10   6  -8    1.01    0.26 
   9   6  -8    0.61    0.36 
   8   6  -8    0.64    0.43 
   7   6  -8    0.08    0.38 
  -7  -6   8    0.13    0.14 
   6   6  -8   -0.25    0.37 
  -6  -6   8    0.14    0.15 
   5   6  -8   10.46    0.92 
  -5  -6   8   11.71    0.64 
  -4  -6   8   12.36    0.67 
   3   6  -8    4.04    0.68 
  -3  -6   8    3.85    0.39 
   2   6  -8    2.34    0.57 
  -2  -6   8    2.96    0.32 
   1   6  -8    6.69    0.67 
  -1  -6   8    6.81    0.44 
   0   6  -8    6.41    0.64 
   0  -6   8    6.62    0.42 
  -1   6  -8    0.70    0.37 
   1  -6   8    0.51    0.15 
  -2   6  -8   16.93    0.94 
   2  -6   8   15.22    0.72 
   2  -6   8   15.91    0.75 
   3  -6   8    3.35    0.32 
   3  -6   8    3.82    0.33 
   4  -6   8    0.73    0.19 
   4  -6   8    0.63    0.23 
   5  -6   8    1.79    0.36 
   5  -6   8    1.81    0.26 
   6  -6   8    3.45    0.36 
   6  -6   8    4.19    0.49 
   7  -6   8    1.35    0.25 
   7  -6   8    1.02    0.33 
   8  -6   8    1.01    0.26 
   8  -6   8    0.63    0.33 
   9  -6   8    0.85    0.36 
   9  -6   8    0.92    0.26 
  10  -6   8    0.43    0.31 
  10  -6   8    0.44    0.19 
  11  -6   8    0.85    0.23 
  12  -6   8    1.85    0.33 
  11   5  -8    1.13    0.25 
  10   5  -8    1.17    0.34 
   9   5  -8   -0.11    0.34 
   8   5  -8    0.58    0.45 
   7   5  -8   -0.22    0.35 
  -7  -5   8    0.28    0.14 
   6   5  -8   -0.28    0.29 
  -6  -5   8    0.02    0.13 
   5   5  -8    9.94    0.86 
  -5  -5   8   11.01    0.60 
   4   5  -8    7.27    0.72 
  -4  -5   8    7.47    0.47 
   3   5  -8    3.63    0.58 
  -3  -5   8    4.06    0.33 
   2   5  -8    4.65    0.59 
  -2  -5   8    4.31    0.33 
   1   5  -8   30.83    1.52 
  -1  -5   8   29.14    1.17 
   0  -5   8    0.10    0.11 
  -1   5  -8   11.17    0.75 
   1  -5   8   10.85    0.55 
  -2   5  -8    4.53    0.45 
   2  -5   8    4.77    0.34 
   2  -5   8    4.54    0.33 
  -3   5  -8    0.00    0.17 
   3  -5   8    0.11    0.12 
   3  -5   8    0.15    0.06 
   4  -5   8    0.11    0.18 
   4  -5   8    0.19    0.15 
   5  -5   8    0.17    0.13 
   5  -5   8    0.00    0.20 
   6  -5   8    2.90    0.44 
   6  -5   8    2.67    0.32 
   7  -5   8   11.22    0.78 
   7  -5   8   11.73    0.63 
   8  -5   8   -0.05    0.15 
   8  -5   8    0.16    0.25 
   9  -5   8    0.78    0.35 
   9  -5   8    0.63    0.22 
  10  -5   8    0.04    0.16 
  10  -5   8    0.93    0.35 
 -11   5  -8    0.87    0.26 
  11  -5   8    0.52    0.27 
  12  -5   8    2.64    0.41 
  11   4  -8    1.06    0.32 
  10   4  -8    0.03    0.33 
   9   4  -8    0.47    0.42 
   8   4  -8    0.19    0.39 
   7   4  -8    0.73    0.43 
   6   4  -8    0.02    0.39 
  -6  -4   8    0.08    0.11 
   5   4  -8    4.21    0.64 
  -5  -4   8    4.85    0.35 
   4   4  -8    0.76    0.44 
  -4  -4   8    1.27    0.21 
   3   4  -8    3.62    0.53 
  -3  -4   8    3.01    0.27 
   2   4  -8    9.22    0.68 
  -2  -4   8    9.07    0.47 
   1   4  -8   16.05    0.92 
  -1  -4   8   16.07    0.70 
   0   4  -8    1.08    0.34 
   0  -4   8    1.26    0.19 
  -1   4  -8    0.94    0.29 
   1  -4   8    0.83    0.17 
  -2   4  -8    0.23    0.23 
   2  -4   8    0.14    0.08 
   2  -4   8    0.17    0.12 
  -3   4  -8   -0.04    0.14 
   3  -4   8   -0.02    0.10 
   3  -4   8   -0.07    0.14 
   4  -4   8    0.10    0.20 
   4  -4   8    0.01    0.11 
   5  -4   8    1.22    0.31 
   5  -4   8    1.30    0.23 
   6  -4   8   18.60    0.88 
   6  -4   8   19.74    1.07 
   7  -4   8    5.79    0.55 
   7  -4   8    5.25    0.42 
   8  -4   8    0.05    0.17 
   8  -4   8    0.45    0.29 
   9  -4   8    0.11    0.26 
   9  -4   8    0.20    0.18 
 -10   4  -8    0.15    0.22 
  10  -4   8    0.30    0.24 
 -11   4  -8    0.62    0.21 
  11  -4   8    0.98    0.23 
  12  -4   8    1.07    0.20 
  12   3  -8    1.61    0.37 
  11   3  -8    0.77    0.36 
  10   3  -8    0.04    0.36 
   9   3  -8   -0.13    0.35 
   8   3  -8    1.06    0.44 
   7   3  -8    3.45    0.59 
   6   3  -8   -0.40    0.42 
  -6  -3   8   -0.03    0.09 
   5   3  -8    3.62    0.62 
  -5  -3   8    4.72    0.32 
   4   3  -8    0.02    0.36 
  -4  -3   8    0.30    0.12 
   3   3  -8    0.02    0.35 
  -3  -3   8    0.08    0.09 
   2   3  -8   12.23    0.81 
  -2  -3   8   13.30    0.58 
   1   3  -8   11.58    0.73 
  -1  -3   8   11.01    0.53 
   0   3  -8    9.52    0.62 
   0  -3   8    9.98    0.48 
  -1   3  -8    0.44    0.23 
   1  -3   8    0.15    0.11 
  -2   3  -8    8.19    0.51 
   2  -3   8    8.14    0.50 
   2  -3   8    8.36    0.45 
  -3   3  -8    0.46    0.17 
   3  -3   8    0.57    0.16 
   3  -3   8    0.80    0.22 
   4  -3   8    0.77    0.19 
   4  -3   8    0.63    0.24 
   5  -3   8    0.71    0.30 
   5  -3   8    1.09    0.23 
   6  -3   8    9.93    0.71 
   6  -3   8   10.26    0.58 
   7  -3   8    5.97    0.45 
   7  -3   8    5.84    0.56 
   8  -3   8    0.22    0.19 
   8  -3   8    0.64    0.30 
  -9   3  -8    1.26    0.32 
   9  -3   8    1.48    0.37 
 -10   3  -8   -0.02    0.20 
  10  -3   8    0.29    0.20 
 -11   3  -8    0.22    0.17 
  11  -3   8    0.87    0.21 
  12  -3   8    2.27    0.25 
  12   2  -8    1.16    0.35 
  11   2  -8    0.84    0.40 
  10   2  -8    0.26    0.37 
   9   2  -8    0.51    0.41 
   8   2  -8    4.16    0.68 
   7   2  -8    0.12    0.38 
   6   2  -8   10.68    0.79 
   6   2  -8    9.08    0.64 
  -6  -2   8   10.98    0.49 
   5   2  -8    0.24    0.38 
   5   2  -8    0.42    0.27 
  -5  -2   8    0.40    0.10 
   4   2  -8    8.08    0.51 
   4   2  -8    7.96    0.64 
  -4  -2   8    8.85    0.42 
   3   2  -8    3.85    0.33 
   3   2  -8    3.66    0.47 
  -3  -2   8    4.11    0.27 
   2   2  -8   21.39    1.09 
  -2  -2   8   22.20    0.86 
   1   2  -8    0.35    0.24 
  -1  -2   8    0.73    0.14 
   0   2  -8    3.58    0.36 
   0  -2   8    3.85    0.27 
  -1   2  -8    0.37    0.21 
   1  -2   8    0.35    0.13 
  -2   2  -8    4.89    0.37 
   2  -2   8    5.15    0.33 
   3  -2   8    1.91    0.30 
   3  -2   8    1.90    0.24 
   4  -2   8    0.74    0.20 
   4  -2   8    0.79    0.27 
   5  -2   8    0.99    0.29 
   5  -2   8    0.88    0.22 
   6  -2   8    2.23    0.39 
   6  -2   8    2.46    0.32 
   7  -2   8    1.99    0.41 
  -8   2  -8    0.64    0.27 
   8  -2   8    1.41    0.38 
  -9   2  -8    1.32    0.33 
   9  -2   8    1.41    0.36 
 -10   2  -8    0.61    0.21 
  10  -2   8    0.48    0.18 
 -11   2  -8    0.76    0.21 
  11  -2   8    1.48    0.24 
  13   1  -8    0.45    0.22 
  12   1  -8    1.19    0.35 
  11   1  -8    1.09    0.45 
  10   1  -8    0.41    0.37 
   9   1  -8    0.19    0.36 
   8   1  -8    0.81    0.35 
   8   1  -8    0.40    0.36 
   7   1  -8   -0.26    0.33 
   7   1  -8   -0.22    0.30 
   6   1  -8    0.23    0.35 
   6   1  -8    0.30    0.32 
  -6  -1   8    0.44    0.09 
   5   1  -8    0.37    0.34 
   5   1  -8    0.87    0.29 
  -5  -1   8    0.72    0.12 
   4   1  -8    1.18    0.27 
   4   1  -8    0.73    0.32 
   3   1  -8    0.27    0.20 
   3   1  -8    0.23    0.26 
  -3  -1   8    0.38    0.11 
   2   1  -8   10.98    0.68 
  -2  -1   8   11.22    0.51 
   1   1  -8    1.82    0.32 
  -1  -1   8    1.88    0.21 
   0   1  -8    8.40    0.52 
   0  -1   8    8.29    0.43 
  -1   1  -8    1.28    0.24 
   1  -1   8    1.58    0.21 
  -2   1  -8   10.66    0.57 
   2  -1   8   11.02    0.55 
   3  -1   8    2.83    0.38 
   3  -1   8    2.63    0.29 
   4  -1   8    5.74    0.50 
   4  -1   8    5.81    0.41 
   5  -1   8    1.12    0.31 
   5  -1   8    1.05    0.24 
  -6   1  -8    0.79    0.28 
   6  -1   8    0.91    0.31 
  -7   1  -8    0.13    0.22 
   7  -1   8    0.25    0.23 
  -8   1  -8    0.61    0.27 
   8  -1   8    0.69    0.31 
  -9   1  -8    0.91    0.29 
   9  -1   8    1.74    0.35 
 -10   1  -8    0.42    0.18 
  10  -1   8    0.74    0.20 
 -11   1  -8    1.29    0.24 
  11  -1   8    1.72    0.31 
  13   0  -8    1.15    0.32 
  12   0  -8    0.46    0.32 
  11   0  -8    0.68    0.39 
  10   0  -8    0.09    0.34 
   9   0  -8    3.95    0.59 
   9   0  -8    4.43    0.58 
   8   0  -8    1.00    0.40 
   8   0  -8    0.99    0.39 
   7   0  -8   -0.22    0.34 
   7   0  -8    0.06    0.32 
   6   0  -8    0.12    0.33 
   6   0  -8    0.48    0.31 
  -6   0   8    0.48    0.09 
   5   0  -8    0.75    0.34 
   5   0  -8    0.79    0.29 
  -5   0   8    1.09    0.13 
  -4   0   8    1.46    0.13 
   3   0  -8    1.87    0.31 
  -3   0   8    1.69    0.18 
  -2   0   8    1.55    0.19 
  -1   0   8    0.74    0.16 
   0   0   8    0.49    0.14 
   1   0   8   15.77    0.71 
   2   0   8   10.46    0.56 
   3   0   8   -0.12    0.09 
  -4   0  -8    9.72    0.59 
  -5   0  -8    3.43    0.40 
   5   0   8    3.68    0.48 
  -6   0  -8    0.23    0.22 
   6   0   8    0.09    0.21 
  -7   0  -8    0.25    0.24 
   7   0   8    0.20    0.28 
  -8   0  -8    1.69    0.35 
   8   0   8    0.92    0.29 
  -9   0  -8    1.99    0.37 
   9   0   8    2.75    0.43 
 -10   0  -8    0.14    0.14 
  10   0   8    0.30    0.25 
  13  -1  -8    1.25    0.34 
  12  -1  -8    0.36    0.31 
  11  -1  -8    0.38    0.32 
  10  -1  -8   -0.08    0.40 
  10  -1  -8   -0.02    0.30 
   9  -1  -8    5.15    0.62 
   9  -1  -8    5.02    0.65 
   8  -1  -8    0.76    0.40 
   8  -1  -8    0.54    0.34 
   7  -1  -8    0.87    0.38 
   7  -1  -8    0.26    0.33 
   6  -1  -8    6.43    0.61 
   5  -1  -8   -0.05    0.25 
  -5   1   8    0.06    0.07 
   4  -1  -8    3.26    0.42 
  -4   1   8    2.82    0.20 
  -3   1   8    0.19    0.09 
  -2   1   8    5.11    0.32 
  -1   1   8    1.98    0.23 
   0   1   8    1.45    0.21 
   1   1   8    4.56    0.33 
  -2  -1  -8   10.53    0.60 
  -3  -1  -8    4.28    0.43 
  -4  -1  -8    5.39    0.46 
  -5  -1  -8    1.42    0.31 
  -6  -1  -8    0.11    0.21 
  -7  -1  -8   -0.10    0.21 
   7   1   8    0.02    0.20 
  -8  -1  -8   -0.01    0.18 
   8   1   8    0.46    0.21 
  -9  -1  -8    1.03    0.22 
   9   1   8    0.40    0.32 
 -10  -1  -8    0.67    0.20 
  10   1   8    0.71    0.30 
  13  -2  -8    1.15    0.30 
  12  -2  -8   -0.36    0.38 
  12  -2  -8   -0.02    0.24 
  11  -2  -8   -0.36    0.23 
  11  -2  -8    0.09    0.43 
  10  -2  -8    0.56    0.36 
  10  -2  -8    0.94    0.48 
   9  -2  -8    5.44    0.58 
   9  -2  -8    6.51    0.68 
   8  -2  -8    3.64    0.57 
   7  -2  -8   -0.07    0.37 
   6  -2  -8    5.67    0.54 
   5  -2  -8    0.08    0.27 
  -5   2   8    0.19    0.08 
   4  -2  -8    3.15    0.44 
  -3   2   8    0.07    0.07 
   1  -2  -8    4.16    0.34 
   0  -2  -8    4.40    0.37 
  -1  -2  -8    3.16    0.37 
  -2  -2  -8    5.65    0.46 
  -3  -2  -8   -0.08    0.21 
  -4  -2  -8    4.38    0.46 
  -5  -2  -8    0.98    0.29 
  -6  -2  -8    1.73    0.36 
  -7  -2  -8    0.24    0.22 
  -8  -2  -8    0.76    0.21 
  -9  -2  -8    0.75    0.18 
  13  -3  -8   -0.21    0.47 
  13  -3  -8    0.60    0.27 
  12  -3  -8    0.08    0.43 
  12  -3  -8    0.13    0.24 
  11  -3  -8    0.03    0.44 
  11  -3  -8   -0.05    0.28 
  10  -3  -8   -0.32    0.42 
   9  -3  -8    4.34    0.66 
   8  -3  -8    5.11    0.65 
   7  -3  -8    0.00    0.31 
   6  -3  -8    2.24    0.45 
   5  -3  -8    3.77    0.51 
   5  -3  -8    3.15    0.27 
   4  -3  -8    0.99    0.21 
   4  -3  -8    1.07    0.36 
   3  -3  -8    0.09    0.14 
   2  -3  -8    6.27    0.42 
   1  -3  -8    2.96    0.35 
   0  -3  -8    8.34    0.54 
  -1  -3  -8    4.50    0.45 
  -2  -3  -8    3.83    0.43 
  -3  -3  -8    0.04    0.23 
  -4  -3  -8    0.35    0.22 
  -5  -3  -8    3.97    0.47 
  -6  -3  -8    0.73    0.25 
  -7  -3  -8    2.45    0.38 
  -8  -3  -8    0.78    0.19 
  13  -4  -8   -0.36    0.45 
  13  -4  -8    0.48    0.25 
  12  -4  -8    0.28    0.48 
  12  -4  -8    1.17    0.35 
  11  -4  -8    0.57    0.52 
  10  -4  -8    2.18    0.58 
   9  -4  -8    0.87    0.47 
   8  -4  -8   10.36    0.84 
   7  -4  -8   -0.26    0.31 
   6  -4  -8    2.23    0.48 
   5  -4  -8    2.38    0.48 
   5  -4  -8    2.08    0.29 
   4  -4  -8    1.86    0.45 
   4  -4  -8    1.65    0.28 
   3  -4  -8    7.94    0.50 
   2  -4  -8    1.11    0.27 
   1  -4  -8   27.29    1.18 
   0  -4  -8    0.25    0.25 
  -1  -4  -8    1.02    0.30 
  -2  -4  -8    0.13    0.21 
  -3  -4  -8    0.32    0.26 
  -4  -4  -8    1.95    0.36 
  -5  -4  -8    3.12    0.41 
  -6  -4  -8    0.40    0.21 
  -7  -4  -8    4.46    0.40 
  13  -5  -8    0.13    0.51 
  13  -5  -8    0.66    0.22 
  12  -5  -8   -0.07    0.48 
  11  -5  -8   -0.31    0.44 
  10  -5  -8    0.59    0.49 
   9  -5  -8    1.29    0.50 
   8  -5  -8    2.46    0.54 
   7  -5  -8    2.73    0.51 
   6  -5  -8    5.94    0.61 
   5  -5  -8   -0.11    0.16 
   5  -5  -8    0.00    0.33 
   4  -5  -8    3.22    0.55 
   4  -5  -8    3.96    0.40 
   3  -5  -8    1.21    0.30 
   2  -5  -8    0.12    0.24 
   1  -5  -8    0.41    0.28 
   0  -5  -8    0.57    0.25 
  -1  -5  -8    1.62    0.35 
  -2  -5  -8    0.55    0.27 
  -3  -5  -8    0.17    0.23 
  -4  -5  -8    2.57    0.43 
  -5  -5  -8    2.79    0.41 
  -6  -5  -8    0.85    0.24 
  -7  -5  -8    2.73    0.38 
  13  -6  -8   -0.06    0.50 
  12  -6  -8    0.41    0.50 
  11  -6  -8    0.12    0.50 
  10  -6  -8    0.01    0.42 
   9  -6  -8    0.53    0.45 
   8  -6  -8    0.49    0.38 
   7  -6  -8    0.45    0.37 
   6  -6  -8    0.40    0.36 
   5  -6  -8    0.02    0.17 
   5  -6  -8    0.73    0.38 
   4  -6  -8   -0.08    0.33 
   4  -6  -8    0.13    0.21 
   3  -6  -8    0.30    0.23 
   2  -6  -8    0.16    0.22 
   1  -6  -8    1.57    0.36 
   0  -6  -8    0.76    0.29 
  -1  -6  -8    0.30    0.28 
  -2  -6  -8    0.81    0.32 
  -3  -6  -8    0.44    0.28 
  -4  -6  -8    1.36    0.37 
  -5  -6  -8    0.59    0.21 
  13  -7  -8   -0.10    0.51 
  12  -7  -8    0.53    0.59 
  11  -7  -8    0.64    0.50 
  10  -7  -8   -0.35    0.40 
   9  -7  -8   -0.51    0.36 
   8  -7  -8    0.18    0.38 
   7  -7  -8    0.06    0.36 
   6  -7  -8    6.23    0.67 
   5  -7  -8    4.43    0.64 
   4  -7  -8    0.71    0.27 
   4  -7  -8    0.73    0.40 
   3  -7  -8    2.25    0.38 
   2  -7  -8    0.86    0.30 
   1  -7  -8   -0.11    0.22 
   0  -7  -8    0.49    0.29 
  -1  -7  -8    0.86    0.33 
  -2  -7  -8    1.17    0.38 
  -3  -7  -8    0.71    0.31 
  -4  -7  -8    0.65    0.31 
  12  -8  -8    0.56    0.60 
  11  -8  -8   -0.08    0.45 
  10  -8  -8   -0.44    0.44 
   9  -8  -8   -0.50    0.36 
   8  -8  -8    0.09    0.39 
   7  -8  -8    0.02    0.38 
   6  -8  -8    1.29    0.48 
   5  -8  -8    0.36    0.42 
   4  -8  -8    1.67    0.36 
   4  -8  -8    1.73    0.51 
   3  -8  -8    0.87    0.31 
   2  -8  -8    0.25    0.26 
   1  -8  -8   -0.13    0.22 
   0  -8  -8    0.99    0.35 
  -1  -8  -8    1.26    0.37 
  -2  -8  -8    0.28    0.27 
  -3  -8  -8   -0.12    0.22 
  11  -9  -8    0.16    0.55 
  10  -9  -8   -0.07    0.48 
   9  -9  -8   -0.05    0.38 
   8  -9  -8   -0.08    0.40 
   7  -9  -8    0.36    0.43 
   6  -9  -8    0.34    0.46 
   5  -9  -8    0.61    0.44 
   4  -9  -8    0.15    0.21 
   4  -9  -8    0.65    0.43 
   3  -9  -8    0.20    0.23 
   2  -9  -8    0.30    0.26 
   1  -9  -8   -0.31    0.21 
   0  -9  -8   -0.03    0.24 
  -1  -9  -8    0.60    0.31 
  -2  -9  -8    0.13    0.25 
  10 -10  -8   -0.26    0.42 
   9 -10  -8   -0.10    0.39 
   8 -10  -8   -0.40    0.41 
   7 -10  -8   -0.15    0.42 
   6 -10  -8   -0.43    0.39 
   5 -10  -8    0.30    0.30 
   4 -10  -8    0.31    0.28 
   3 -10  -8    0.18    0.24 
   2 -10  -8   -0.27    0.21 
   1 -10  -8    0.23    0.25 
   0 -10  -8    2.07    0.43 
   9 -11  -8   -0.65    0.33 
   8 -11  -8    0.70    0.49 
   7 -11  -8    0.39    0.37 
   6 -11  -8    1.03    0.38 
   5 -11  -8    1.29    0.36 
   4 -11  -8    1.00    0.30 
   3 -11  -8    0.37    0.24 
   3 -11  -8    1.05    0.30 
   1 -15   9    1.61    0.39 
   2 -15   9    2.51    0.46 
   3 -15   9    0.11    0.23 
   4 -15   9    0.95    0.30 
   5 -15   9    0.06    0.23 
   6 -15   9    0.65    0.26 
   7 -15   9    0.63    0.22 
   8 -15   9    0.31    0.17 
  -2 -14   9    1.02    0.22 
  -1 -14   9    1.41    0.31 
   0 -14   9    0.59    0.20 
   1 -14   9    1.06    0.36 
   2 -14   9    1.83    0.42 
   3 -14   9    0.22    0.24 
   4 -14   9    1.40    0.36 
   5 -14   9    0.71    0.27 
   6 -14   9    0.36    0.21 
   7 -14   9    0.72    0.24 
   8 -14   9    0.27    0.17 
   9 -14   9    0.17    0.18 
  -3 -13   9    0.82    0.21 
  -2 -13   9    2.76    0.40 
  -1 -13   9    0.61    0.20 
   0 -13   9    1.94    0.38 
   1 -13   9    2.95    0.50 
   2 -13   9    1.55    0.37 
   3 -13   9    0.38    0.23 
   4 -13   9    2.70    0.44 
   5 -13   9    0.74    0.25 
   6 -13   9    0.90    0.27 
   7 -13   9    0.58    0.22 
   8 -13   9    0.04    0.16 
   9 -13   9    0.33    0.19 
  -5 -12   9    0.95    0.22 
  -4 -12   9    0.38    0.14 
  -3 -12   9    1.01    0.24 
  -2 -12   9    0.27    0.19 
  -1 -12   9    0.24    0.20 
   0 -12   9    0.41    0.24 
   1 -12   9    4.21    0.52 
   2 -12   9    1.81    0.36 
   3 -12   9    1.11    0.32 
   4 -12   9    4.99    0.52 
   5 -12   9    1.49    0.30 
   6 -12   9    0.56    0.24 
   7 -12   9    0.65    0.22 
   8 -12   9    0.22    0.18 
   9 -12   9    0.40    0.19 
   6  11  -9    2.11    0.33 
  -6 -11   9    1.34    0.23 
   5  11  -9    3.71    0.60 
  -5 -11   9    2.17    0.36 
   4  11  -9    0.36    0.50 
  -4 -11   9    0.95    0.22 
   3  11  -9    1.77    0.63 
  -3 -11   9    2.22    0.38 
   2  11  -9    1.29    0.53 
  -2 -11   9    1.81    0.38 
  -1 -11   9    0.03    0.20 
   0 -11   9    1.99    0.39 
   1 -11   9    0.01    0.17 
   2 -11   9    0.96    0.28 
   3 -11   9    0.34    0.23 
   4 -11   9    0.30    0.20 
   5 -11   9    0.25    0.19 
   6 -11   9    0.10    0.14 
   7 -11   9    0.90    0.24 
   8 -11   9    0.31    0.20 
   9 -11   9    0.63    0.21 
  10 -11   9    1.78    0.30 
  10 -11   9    1.83    0.32 
  11 -11   9    1.61    0.26 
   7  10  -9    1.17    0.22 
  -7 -10   9    0.86    0.19 
   6  10  -9    4.70    0.67 
  -6 -10   9    4.33    0.40 
   5  10  -9    2.94    0.73 
  -5 -10   9    3.31    0.43 
   4  10  -9    2.36    0.67 
  -4 -10   9    1.84    0.36 
   3  10  -9    3.48    0.73 
  -3 -10   9    3.52    0.46 
   2  10  -9    2.04    0.61 
  -2 -10   9    1.57    0.34 
   1  10  -9    0.36    0.42 
  -1 -10   9    0.19    0.21 
   0  10  -9    0.15    0.37 
   0 -10   9    0.12    0.18 
   1 -10   9    0.17    0.19 
   2 -10   9    0.06    0.18 
   3 -10   9    0.73    0.22 
   4 -10   9   -0.01    0.14 
   5 -10   9    0.34    0.18 
   6 -10   9    0.08    0.15 
   7 -10   9    3.21    0.37 
   8 -10   9    0.24    0.17 
   8 -10   9    0.58    0.25 
   9 -10   9    1.10    0.25 
   9 -10   9    2.13    0.40 
  10 -10   9    1.80    0.37 
  10 -10   9    0.82    0.24 
  11 -10   9    1.54    0.26 
   8   9  -9    1.74    0.32 
   7   9  -9    1.20    0.29 
  -7  -9   9    0.45    0.15 
   6   9  -9    3.57    0.65 
  -6  -9   9    3.14    0.39 
   5   9  -9    0.53    0.54 
  -5  -9   9    0.62    0.22 
   4   9  -9    0.18    0.43 
  -4  -9   9    0.17    0.20 
   3   9  -9    2.35    0.63 
  -3  -9   9    2.82    0.40 
   2   9  -9    0.52    0.45 
  -2  -9   9    1.11    0.30 
   1   9  -9    3.21    0.64 
  -1  -9   9    3.29    0.42 
   0   9  -9    0.80    0.47 
   0  -9   9    0.55    0.23 
  -1   9  -9    0.91    0.45 
   1  -9   9    0.67    0.23 
   2  -9   9    0.04    0.15 
   3  -9   9    0.04    0.14 
   4  -9   9   -0.10    0.13 
   5  -9   9    0.31    0.18 
   6  -9   9    0.46    0.23 
   6  -9   9    0.40    0.20 
   7  -9   9    6.24    0.53 
   7  -9   9    5.92    0.45 
   8  -9   9    1.54    0.36 
   8  -9   9    1.18    0.26 
   9  -9   9    0.36    0.20 
   9  -9   9    0.84    0.30 
  10  -9   9    1.16    0.28 
  10  -9   9    1.58    0.35 
  11  -9   9    1.10    0.25 
  12  -9   9    1.09    0.25 
   9   8  -9    1.40    0.24 
   8   8  -9    1.79    0.39 
   7   8  -9    0.90    0.38 
  -7  -8   9    0.63    0.18 
   6   8  -9    0.89    0.45 
  -6  -8   9    0.83    0.23 
   5   8  -9    0.23    0.47 
  -5  -8   9    0.20    0.19 
   4   8  -9    0.32    0.44 
  -4  -8   9    0.43    0.23 
   3   8  -9   18.83    1.29 
  -3  -8   9   18.82    0.94 
   2   8  -9    8.11    0.92 
  -2  -8   9    7.78    0.54 
   1   8  -9    4.96    0.75 
  -1  -8   9    4.80    0.41 
   0   8  -9    2.88    0.64 
   0  -8   9    2.75    0.35 
  -1   8  -9    0.46    0.39 
   1  -8   9    0.65    0.21 
   2  -8   9   -0.08    0.12 
   3  -8   9    0.51    0.19 
   4  -8   9    3.17    0.35 
   5  -8   9    2.22    0.30 
   6  -8   9    0.67    0.22 
   6  -8   9    0.97    0.29 
   7  -8   9    3.23    0.43 
   7  -8   9    3.11    0.38 
   8  -8   9    1.08    0.26 
   8  -8   9    1.60    0.36 
   9  -8   9    0.10    0.16 
   9  -8   9    0.22    0.24 
  10  -8   9    0.81    0.26 
  10  -8   9    1.07    0.31 
  11  -8   9    0.80    0.21 
  12  -8   9    1.38    0.24 
   9   7  -9    3.08    0.54 
   8   7  -9    0.69    0.37 
   7   7  -9    0.64    0.42 
  -7  -7   9    0.28    0.13 
   6   7  -9    0.91    0.52 
  -6  -7   9    0.58    0.19 
   5   7  -9    0.57    0.49 
  -5  -7   9    0.41    0.20 
   4   7  -9   -0.21    0.41 
  -4  -7   9    0.26    0.18 
   3   7  -9   37.30    1.98 
  -3  -7   9   38.00    1.53 
   2   7  -9   13.10    1.03 
  -2  -7   9   12.21    0.68 
   1   7  -9    3.89    0.70 
  -1  -7   9    3.82    0.39 
   0   7  -9    0.38    0.41 
   0  -7   9    0.56    0.19 
  -1   7  -9    2.42    0.53 
   1  -7   9    2.29    0.29 
  -2   7  -9    3.45    0.53 
   2  -7   9    3.19    0.33 
   3  -7   9    6.18    0.41 
   3  -7   9    6.19    0.43 
   4  -7   9    1.78    0.27 
   4  -7   9    2.46    0.32 
   5  -7   9   -0.09    0.14 
   5  -7   9    0.03    0.19 
   6  -7   9    0.02    0.20 
   6  -7   9    0.11    0.15 
   7  -7   9    1.23    0.27 
   7  -7   9    1.34    0.33 
   8  -7   9    1.88    0.31 
   8  -7   9    2.40    0.43 
   9  -7   9    0.32    0.24 
   9  -7   9    0.21    0.18 
  10  -7   9    2.68    0.44 
  10  -7   9    1.61    0.32 
  11  -7   9    0.80    0.22 
  12  -7   9    2.20    0.24 
  10   6  -9    2.45    0.48 
   9   6  -9    1.00    0.38 
   8   6  -9    0.72    0.42 
   7   6  -9    0.64    0.46 
  -7  -6   9    0.60    0.16 
   6   6  -9   -0.05    0.45 
  -6  -6   9    0.16    0.13 
   5   6  -9    1.48    0.54 
  -5  -6   9    1.47    0.26 
   4   6  -9    1.29    0.55 
  -4  -6   9    1.48    0.26 
   3   6  -9   51.60    2.42 
  -3  -6   9   49.05    1.89 
   2   6  -9    8.09    0.87 
  -2  -6   9    6.75    0.46 
   1   6  -9    0.43    0.43 
  -1  -6   9    1.10    0.22 
   0   6  -9    0.38    0.39 
   0  -6   9    0.48    0.17 
  -1   6  -9    0.30    0.36 
   1  -6   9    0.03    0.12 
  -2   6  -9    7.64    0.64 
   2  -6   9    7.97    0.44 
   2  -6   9    7.67    0.47 
   3  -6   9   -0.13    0.14 
   3  -6   9    0.21    0.13 
   4  -6   9    0.39    0.17 
   4  -6   9    0.55    0.21 
   5  -6   9    0.27    0.22 
   5  -6   9    0.34    0.18 
   6  -6   9    2.72    0.39 
   6  -6   9    2.68    0.33 
   7  -6   9   -0.15    0.21 
   7  -6   9   -0.04    0.14 
   8  -6   9    1.39    0.39 
   8  -6   9    1.59    0.31 
   9  -6   9    1.16    0.37 
   9  -6   9    1.27    0.30 
  10  -6   9    3.40    0.44 
  10  -6   9    4.25    0.55 
  11  -6   9    1.15    0.24 
  11  -6   9    0.28    0.22 
  12  -6   9    1.13    0.26 
  11   5  -9    2.60    0.47 
  10   5  -9    0.44    0.27 
   9   5  -9    0.82    0.48 
   8   5  -9   -0.32    0.31 
   7   5  -9    0.13    0.38 
   6   5  -9   -0.12    0.37 
  -6  -5   9   -0.17    0.10 
   5   5  -9    0.07    0.41 
  -5  -5   9    0.13    0.15 
   4   5  -9    1.92    0.54 
  -4  -5   9    3.35    0.34 
   3   5  -9   11.26    0.89 
  -3  -5   9   11.64    0.60 
   2   5  -9    3.49    0.58 
  -2  -5   9    3.44    0.30 
   1   5  -9    0.42    0.33 
  -1  -5   9   -0.09    0.09 
   0   5  -9    2.26    0.47 
   0  -5   9    1.92    0.26 
  -1   5  -9    5.06    0.54 
   1  -5   9    4.36    0.34 
  -2   5  -9   12.91    0.78 
   2  -5   9   12.04    0.63 
   2  -5   9   11.51    0.60 
  -3   5  -9    2.43    0.35 
   3  -5   9    2.61    0.29 
   4  -5   9    4.56    0.42 
   4  -5   9    4.85    0.37 
   5  -5   9    2.79    0.33 
   5  -5   9    3.00    0.41 
   6  -5   9    1.14    0.31 
   6  -5   9    0.82    0.22 
   7  -5   9    0.92    0.30 
   7  -5   9    0.84    0.26 
   8  -5   9    0.46    0.22 
   8  -5   9    0.84    0.34 
   9  -5   9    1.03    0.30 
   9  -5   9    1.32    0.37 
  10  -5   9    2.96    0.47 
  10  -5   9    2.34    0.38 
 -11   5  -9    0.81    0.25 
  11  -5   9    1.47    0.24 
  12  -5   9    1.05    0.17 
  11   4  -9    1.40    0.36 
  10   4  -9    0.72    0.35 
   9   4  -9    0.21    0.40 
   8   4  -9    1.07    0.47 
   7   4  -9    0.57    0.41 
   6   4  -9    0.93    0.49 
  -6  -4   9    1.30    0.21 
   5   4  -9   -0.51    0.36 
  -5  -4   9   -0.05    0.09 
   4   4  -9    4.51    0.68 
  -4  -4   9    3.39    0.29 
   3   4  -9   15.24    0.99 
  -3  -4   9   14.63    0.68 
   2   4  -9   21.36    1.19 
  -2  -4   9   22.26    0.91 
   1   4  -9    0.38    0.32 
  -1  -4   9    0.63    0.16 
   0   4  -9   11.05    0.74 
   0  -4   9   11.62    0.57 
  -1   4  -9    0.20    0.26 
   1  -4   9    0.14    0.13 
  -2   4  -9    7.28    0.57 
   2  -4   9    7.62    0.45 
   3  -4   9    0.78    0.19 
   3  -4   9    0.64    0.21 
   4  -4   9    0.04    0.13 
   4  -4   9   -0.03    0.18 
   5  -4   9    0.07    0.14 
   5  -4   9    0.09    0.22 
   6  -4   9    4.28    0.46 
   6  -4   9    3.96    0.41 
   7  -4   9    0.54    0.22 
   7  -4   9    0.22    0.25 
   8  -4   9    0.91    0.28 
   8  -4   9    0.84    0.30 
   9  -4   9    0.45    0.22 
   9  -4   9    0.98    0.32 
 -10   4  -9    1.86    0.36 
  10  -4   9    2.05    0.38 
 -11   4  -9    0.56    0.22 
  12   3  -9    1.02    0.30 
  11   3  -9    1.26    0.38 
  10   3  -9    0.56    0.37 
   9   3  -9    0.24    0.37 
   8   3  -9    1.62    0.50 
   7   3  -9    3.45    0.63 
   6   3  -9    2.45    0.57 
  -6  -3   9    1.18    0.17 
   5   3  -9   -0.42    0.42 
  -5  -3   9    0.16    0.11 
   4   3  -9    0.20    0.39 
  -4  -3   9    0.52    0.15 
   3   3  -9    9.57    0.74 
  -3  -3   9   10.38    0.51 
   2   3  -9    3.67    0.52 
  -2  -3   9    3.88    0.29 
   1   3  -9    7.51    0.60 
  -1  -3   9    7.49    0.42 
   0   3  -9    8.29    0.60 
   0  -3   9    8.16    0.45 
  -1   3  -9    0.18    0.24 
   1  -3   9    0.22    0.13 
  -2   3  -9    1.52    0.30 
   2  -3   9    1.91    0.25 
   3  -3   9    0.05    0.12 
   3  -3   9    0.11    0.18 
   4  -3   9    2.03    0.34 
   4  -3   9    1.90    0.28 
   5  -3   9   -0.22    0.19 
   5  -3   9    0.13    0.16 
   6  -3   9    0.10    0.22 
   6  -3   9   -0.12    0.13 
   7  -3   9    1.23    0.34 
   7  -3   9    1.22    0.28 
   8  -3   9    0.27    0.26 
   8  -3   9    0.17    0.18 
  -9   3  -9    0.55    0.25 
   9  -3   9    0.83    0.28 
 -10   3  -9    0.99    0.28 
  10  -3   9    0.60    0.19 
 -11   3  -9    0.64    0.20 
  11  -3   9    0.92    0.20 
  12   2  -9    1.07    0.32 
  11   2  -9    0.11    0.26 
  10   2  -9    0.38    0.39 
   9   2  -9    0.58    0.43 
   8   2  -9    8.94    0.79 
   7   2  -9   12.77    0.94 
   6   2  -9    0.15    0.42 
  -6  -2   9    0.28    0.10 
   5   2  -9    2.16    0.36 
   5   2  -9    2.56    0.52 
   4   2  -9    9.02    0.70 
   4   2  -9    7.62    0.51 
  -4  -2   9    9.43    0.44 
   3   2  -9    7.95    0.62 
   3   2  -9    8.21    0.51 
  -3  -2   9    7.77    0.41 
   2   2  -9   -0.22    0.25 
  -2  -2   9    0.01    0.09 
   1   2  -9    2.47    0.38 
  -1  -2   9    2.33    0.25 
   0   2  -9    2.63    0.38 
   0  -2   9    2.68    0.24 
  -1   2  -9    0.86    0.29 
   1  -2   9    0.99    0.18 
  -2   2  -9    0.91    0.25 
   2  -2   9    0.93    0.19 
   3  -2   9    3.02    0.32 
   4  -2   9    1.85    0.34 
   4  -2   9    1.51    0.26 
   5  -2   9    0.13    0.16 
   5  -2   9    0.23    0.25 
   6  -2   9    0.76    0.24 
   6  -2   9    0.95    0.31 
  -7   2  -9    0.82    0.32 
   7  -2   9    1.08    0.33 
  -8   2  -9    0.16    0.24 
   8  -2   9    0.39    0.25 
  -9   2  -9   -0.03    0.19 
   9  -2   9    0.52    0.20 
 -10   2  -9    0.80    0.23 
  10  -2   9    0.56    0.21 
 -11   2  -9    0.38    0.15 
  11  -2   9    1.15    0.19 
  12   1  -9    0.57    0.28 
  11   1  -9    0.10    0.37 
  10   1  -9    0.54    0.39 
   9   1  -9   -0.37    0.31 
   8   1  -9    6.44    0.65 
   7   1  -9    0.19    0.34 
   6   1  -9    3.63    0.57 
   6   1  -9    2.63    0.45 
  -6  -1   9    4.05    0.23 
   5   1  -9    2.42    0.38 
   5   1  -9    3.48    0.53 
  -5  -1   9    2.87    0.21 
   4   1  -9    4.73    0.56 
   4   1  -9    3.74    0.40 
  -4  -1   9    4.47    0.28 
   3   1  -9    2.07    0.41 
   3   1  -9    2.25    0.34 
  -3  -1   9    2.14    0.20 
   2   1  -9   -0.07    0.25 
  -2  -1   9    0.35    0.12 
   1   1  -9    3.82    0.41 
  -1  -1   9    3.73    0.27 
   0   1  -9   21.73    1.08 
   0  -1   9   22.54    0.92 
  -1   1  -9    2.74    0.35 
   1  -1   9    2.56    0.28 
   2  -1   9   10.41    0.56 
   3  -1   9    3.42    0.31 
   4  -1   9    3.97    0.36 
   5  -1   9    0.83    0.23 
   5  -1   9    0.83    0.31 
  -6   1  -9    2.87    0.40 
   6  -1   9    2.54    0.42 
  -7   1  -9   -0.01    0.24 
   7  -1   9    0.18    0.22 
  -8   1  -9    0.22    0.23 
   8  -1   9    0.32    0.22 
  -9   1  -9    0.68    0.25 
   9  -1   9    0.98    0.23 
 -10   1  -9    0.89    0.24 
  10  -1   9    0.98    0.18 
  13   0  -9    0.46    0.27 
  12   0  -9    0.74    0.32 
  11   0  -9    0.35    0.32 
  10   0  -9    0.00    0.33 
   9   0  -9   -0.12    0.31 
   8   0  -9    2.31    0.51 
   8   0  -9    2.70    0.52 
   7   0  -9    0.96    0.38 
   7   0  -9    1.44    0.43 
   6   0  -9   -0.11    0.31 
   6   0  -9    0.27    0.31 
   5   0  -9    0.16    0.32 
   5   0  -9    0.35    0.29 
  -5   0   9    0.53    0.11 
   4   0  -9    3.26    0.41 
  -4   0   9    2.17    0.18 
  -3   0   9    3.33    0.24 
  -2   0   9    0.23    0.10 
  -1   0   9    2.70    0.27 
   0   0   9    3.21    0.27 
   1   0   9    0.34    0.16 
   2   0   9    1.10    0.23 
   3   0   9    1.18    0.24 
  -4   0  -9    0.60    0.25 
  -5   0  -9    1.15    0.30 
  -6   0  -9    0.14    0.24 
   6   0   9    0.14    0.22 
  -7   0  -9    0.38    0.26 
   7   0   9    0.44    0.21 
  -8   0  -9    0.39    0.22 
   8   0   9    0.28    0.19 
  -9   0  -9    0.61    0.17 
   9   0   9    0.63    0.20 
 -10   0  -9    0.45    0.19 
  10   0   9    1.13    0.19 
  13  -1  -9    1.41    0.33 
  12  -1  -9    0.37    0.24 
  11  -1  -9   -0.34    0.21 
  10  -1  -9    0.49    0.36 
   9  -1  -9   -0.15    0.25 
   9  -1  -9   -0.39    0.39 
   8  -1  -9    1.13    0.42 
   8  -1  -9    1.04    0.43 
   7  -1  -9    1.96    0.42 
   7  -1  -9    2.44    0.48 
   6  -1  -9    0.29    0.29 
   5  -1  -9    0.39    0.28 
  -5   1   9    0.45    0.11 
   4  -1  -9    2.01    0.40 
  -4   1   9    0.78    0.14 
  -3   1   9   -0.04    0.06 
  -2   1   9    0.23    0.11 
  -1   1   9    0.77    0.18 
   0   1   9    0.28    0.14 
   1   1   9    0.59    0.19 
  -2  -1  -9    0.80    0.26 
  -3  -1  -9    1.48    0.31 
  -4  -1  -9   -0.05    0.18 
  -5  -1  -9    1.06    0.32 
  -6  -1  -9    0.10    0.20 
  -7  -1  -9    0.13    0.21 
  -8  -1  -9    0.38    0.19 
  -9  -1  -9    1.45    0.27 
  13  -2  -9    1.06    0.35 
  12  -2  -9    0.37    0.26 
  11  -2  -9   -0.02    0.43 
  11  -2  -9    0.07    0.25 
  10  -2  -9    0.02    0.30 
  10  -2  -9   -0.16    0.45 
   9  -2  -9   -0.15    0.38 
   9  -2  -9    0.22    0.31 
   8  -2  -9   -0.22    0.35 
   7  -2  -9    1.64    0.45 
   6  -2  -9    0.82    0.36 
   5  -2  -9    2.41    0.45 
   4  -2  -9    2.16    0.40 
   2  -2  -9    0.14    0.17 
   1  -2  -9    7.02    0.47 
   0  -2  -9    0.03    0.20 
  -1  -2  -9    2.02    0.34 
  -2  -2  -9    1.58    0.33 
  -3  -2  -9    2.77    0.41 
  -4  -2  -9    0.06    0.19 
  -5  -2  -9    0.30    0.23 
  -6  -2  -9    0.46    0.24 
  -7  -2  -9    0.74    0.26 
  -8  -2  -9    0.64    0.20 
  13  -3  -9    0.16    0.19 
  12  -3  -9    0.12    0.46 
  12  -3  -9    0.92    0.29 
  11  -3  -9    0.23    0.30 
  11  -3  -9    0.21    0.47 
  10  -3  -9    0.01    0.26 
  10  -3  -9   -0.10    0.45 
   9  -3  -9    2.54    0.56 
   8  -3  -9    1.59    0.48 
   7  -3  -9    4.67    0.58 
   6  -3  -9    1.12    0.41 
   5  -3  -9    8.91    0.48 
   5  -3  -9    8.75    0.70 
   4  -3  -9    1.40    0.42 
   4  -3  -9    2.22    0.28 
   3  -3  -9    0.91    0.23 
   2  -3  -9    7.54    0.49 
   1  -3  -9   13.75    0.72 
   0  -3  -9   12.83    0.71 
  -1  -3  -9    2.58    0.38 
  -2  -3  -9    2.46    0.39 
  -3  -3  -9    1.60    0.35 
  -4  -3  -9    0.55    0.28 
  -5  -3  -9    0.37    0.23 
  -6  -3  -9    1.81    0.34 
  -7  -3  -9    0.50    0.21 
  -8  -3  -9    0.52    0.18 
  13  -4  -9    0.91    0.27 
  13  -4  -9   -0.31    0.51 
  12  -4  -9    1.00    0.33 
  12  -4  -9    0.23    0.49 
  11  -4  -9   -0.35    0.46 
  10  -4  -9   -0.29    0.44 
   9  -4  -9    5.10    0.68 
   8  -4  -9    1.65    0.48 
   7  -4  -9    3.94    0.58 
   6  -4  -9    0.00    0.31 
   5  -4  -9    3.93    0.35 
   5  -4  -9    3.95    0.56 
   4  -4  -9    1.10    0.42 
   4  -4  -9    2.29    0.31 
   3  -4  -9    9.60    0.57 
   2  -4  -9    0.04    0.18 
   1  -4  -9   12.44    0.71 
   0  -4  -9    3.90    0.45 
  -1  -4  -9    0.81    0.29 
  -2  -4  -9    0.21    0.24 
  -3  -4  -9    0.46    0.28 
  -4  -4  -9    0.12    0.24 
  -5  -4  -9    0.27    0.16 
  -6  -4  -9    1.94    0.34 
  -7  -4  -9    0.80    0.21 
  13  -5  -9   -0.20    0.50 
  13  -5  -9    0.59    0.18 
  12  -5  -9    0.04    0.52 
  11  -5  -9    0.16    0.57 
  10  -5  -9    0.25    0.47 
   9  -5  -9    1.32    0.50 
   8  -5  -9    0.04    0.33 
   7  -5  -9    2.59    0.51 
   6  -5  -9    0.22    0.35 
   5  -5  -9    2.43    0.49 
   4  -5  -9    0.19    0.23 
   3  -5  -9    2.27    0.36 
   2  -5  -9    2.42    0.39 
   1  -5  -9    2.40    0.40 
   0  -5  -9    1.79    0.36 
  -1  -5  -9    0.16    0.25 
  -2  -5  -9    0.71    0.32 
  -3  -5  -9    0.11    0.25 
  -4  -5  -9   -0.02    0.24 
  -5  -5  -9    1.21    0.26 
  -6  -5  -9    2.36    0.36 
  12  -6  -9    0.33    0.55 
  11  -6  -9   -0.08    0.48 
  10  -6  -9    0.85    0.52 
   9  -6  -9   -0.38    0.34 
   8  -6  -9    0.00    0.35 
   7  -6  -9   -0.10    0.34 
   6  -6  -9   -0.21    0.32 
   5  -6  -9    0.83    0.41 
   4  -6  -9    0.92    0.28 
   3  -6  -9    2.61    0.41 
   2  -6  -9    0.34    0.26 
   1  -6  -9    0.80    0.32 
   0  -6  -9    1.44    0.37 
  -1  -6  -9    0.07    0.24 
  -2  -6  -9    1.01    0.34 
  -3  -6  -9    0.16    0.29 
  -4  -6  -9    1.35    0.38 
  -5  -6  -9    1.81    0.29 
  12  -7  -9   -0.43    0.51 
  11  -7  -9   -0.10    0.48 
  10  -7  -9   -0.14    0.42 
   9  -7  -9    0.89    0.49 
   8  -7  -9    0.51    0.42 
   7  -7  -9   -0.06    0.34 
   6  -7  -9    0.88    0.43 
   5  -7  -9    0.39    0.44 
   4  -7  -9    0.61    0.28 
   4  -7  -9    0.37    0.43 
   3  -7  -9    3.67    0.48 
   2  -7  -9    1.09    0.35 
   1  -7  -9    0.35    0.28 
   0  -7  -9    0.68    0.33 
  -1  -7  -9   -0.11    0.26 
  -2  -7  -9    0.17    0.26 
  -3  -7  -9   -0.08    0.24 
  11  -8  -9   -0.15    0.52 
  10  -8  -9    0.17    0.45 
   9  -8  -9   -0.28    0.34 
   8  -8  -9   -0.28    0.35 
   7  -8  -9    0.40    0.41 
   6  -8  -9    0.88    0.43 
   5  -8  -9    0.81    0.46 
   4  -8  -9    0.20    0.23 
   4  -8  -9    0.23    0.42 
   3  -8  -9    1.40    0.35 
   2  -8  -9    0.80    0.33 
   1  -8  -9    0.14    0.25 
   0  -8  -9   -0.03    0.25 
  -1  -8  -9   -0.23    0.23 
  -2  -8  -9    2.56    0.49 
  10  -9  -9    0.41    0.49 
   9  -9  -9   -0.35    0.37 
   8  -9  -9   -0.10    0.39 
   7  -9  -9   -0.42    0.36 
   6  -9  -9    0.20    0.43 
   5  -9  -9    0.21    0.43 
   4  -9  -9    0.06    0.41 
   3  -9  -9    0.89    0.34 
   2  -9  -9    1.49    0.38 
   1  -9  -9    0.49    0.28 
   0  -9  -9    0.20    0.28 
   9 -10  -9    0.33    0.43 
   8 -10  -9   -0.04    0.42 
   7 -10  -9   -0.22    0.39 
   6 -10  -9    0.27    0.47 
   5 -10  -9    0.30    0.41 
   4 -10  -9    1.51    0.41 
   3 -10  -9    1.75    0.40 
   2 -10  -9    1.66    0.42 
   1 -15  10    0.29    0.21 
   2 -15  10    0.92    0.28 
   3 -15  10    2.96    0.47 
   4 -15  10    0.47    0.25 
   5 -15  10    0.58    0.28 
   6 -15  10    0.58    0.22 
   7 -15  10    1.22    0.30 
  -1 -14  10    0.24    0.15 
   0 -14  10    0.50    0.18 
   1 -14  10    0.40    0.24 
   2 -14  10    0.47    0.27 
   3 -14  10    1.71    0.40 
   4 -14  10    0.22    0.22 
   5 -14  10    0.38    0.20 
   6 -14  10    0.38    0.23 
   7 -14  10    1.07    0.25 
   8 -14  10    1.67    0.31 
   9 -14  10    0.52    0.19 
  -3 -13  10    0.81    0.19 
  -2 -13  10    1.63    0.29 
  -1 -13  10    1.34    0.29 
   0 -13  10    0.07    0.14 
   1 -13  10    0.16    0.14 
   2 -13  10    2.46    0.45 
   3 -13  10    2.15    0.40 
   4 -13  10    0.53    0.24 
   5 -13  10    0.06    0.17 
   6 -13  10    0.14    0.18 
   7 -13  10    0.46    0.20 
   8 -13  10    1.53    0.30 
   9 -13  10    0.07    0.15 
  -4 -12  10    1.59    0.27 
  -3 -12  10    0.14    0.13 
  -2 -12  10    3.46    0.46 
  -1 -12  10    0.16    0.19 
   0 -12  10    0.68    0.24 
   1 -12  10    0.20    0.20 
   2 -12  10    1.62    0.37 
   3 -12  10    2.33    0.39 
   4 -12  10    0.36    0.21 
   5 -12  10    0.09    0.17 
   6 -12  10    0.09    0.16 
   7 -12  10    0.42    0.21 
   8 -12  10    1.02    0.25 
   9 -12  10    0.35    0.17 
  10 -12  10    0.24    0.15 
   5  11 -10    0.69    0.52 
  -5 -11  10    1.14    0.23 
   4  11 -10    0.31    0.49 
  -4 -11  10    0.66    0.18 
   3  11 -10    0.53    0.51 
  -3 -11  10    1.01    0.26 
   2  11 -10    1.41    0.58 
  -2 -11  10    1.26    0.30 
   1  11 -10    0.01    0.36 
  -1 -11  10   -0.04    0.17 
   0 -11  10    0.07    0.20 
   1 -11  10    0.63    0.26 
   2 -11  10    2.34    0.37 
   3 -11  10    1.06    0.28 
   4 -11  10    1.47    0.29 
   5 -11  10    0.62    0.22 
   6 -11  10    0.14    0.18 
   7 -11  10    0.71    0.22 
   8 -11  10    0.86    0.23 
   9 -11  10    0.49    0.22 
  10 -11  10    0.13    0.18 
   7  10 -10    1.78    0.32 
   6  10 -10    0.92    0.40 
  -6 -10  10    0.59    0.16 
   5  10 -10    1.14    0.61 
  -5 -10  10    1.96    0.33 
   4  10 -10    1.67    0.62 
  -4 -10  10    1.22    0.29 
   3  10 -10    2.16    0.65 
  -3 -10  10    1.70    0.35 
   2  10 -10    5.76    0.85 
  -2 -10  10    5.60    0.50 
   1  10 -10    4.03    0.76 
  -1 -10  10    4.40    0.47 
   0  10 -10    0.54    0.44 
   0 -10  10    0.27    0.22 
   1 -10  10    0.50    0.22 
   2 -10  10    2.17    0.32 
   3 -10  10    1.30    0.27 
   4 -10  10    0.21    0.17 
   5 -10  10    0.53    0.19 
   6 -10  10    0.40    0.19 
   7 -10  10    0.12    0.16 
   8 -10  10    0.65    0.22 
   9 -10  10    1.13    0.24 
   9 -10  10    0.47    0.22 
  10 -10  10    1.47    0.25 
  10 -10  10    0.96    0.26 
   7   9 -10    2.15    0.43 
   6   9 -10    0.63    0.55 
  -6  -9  10    1.37    0.25 
   5   9 -10    2.32    0.68 
  -5  -9  10    2.11    0.35 
   4   9 -10   -0.04    0.43 
  -4  -9  10    0.13    0.21 
   3   9 -10    0.51    0.53 
  -3  -9  10    0.26    0.20 
   2   9 -10    0.71    0.48 
  -2  -9  10    0.99    0.27 
   1   9 -10    5.31    0.80 
  -1  -9  10    4.11    0.45 
   0   9 -10   -0.09    0.37 
   0  -9  10    0.07    0.18 
  -1   9 -10    0.34    0.39 
   1  -9  10    0.19    0.17 
   2  -9  10    1.02    0.24 
   3  -9  10    3.48    0.38 
   4  -9  10    0.31    0.17 
   5  -9  10    0.55    0.21 
   6  -9  10    0.00    0.14 
   7  -9  10    2.04    0.31 
   7  -9  10    1.03    0.27 
   8  -9  10    1.03    0.28 
   8  -9  10    0.93    0.25 
   9  -9  10    0.67    0.20 
   9  -9  10    0.43    0.20 
  10  -9  10    0.93    0.23 
  10  -9  10    0.46    0.22 
   8   8 -10    1.98    0.39 
   7   8 -10    1.32    0.37 
   6   8 -10    1.38    0.65 
  -6  -8  10    1.58    0.28 
   5   8 -10    1.71    0.64 
  -5  -8  10    1.45    0.30 
   4   8 -10    0.53    0.51 
  -4  -8  10    0.50    0.21 
   3   8 -10   -0.13    0.45 
  -3  -8  10    0.35    0.20 
   2   8 -10    3.43    0.70 
  -2  -8  10    2.95    0.39 
   1   8 -10    4.08    0.70 
  -1  -8  10    3.34    0.39 
   0   8 -10    0.96    0.45 
   0  -8  10    1.43    0.27 
  -1   8 -10    0.79    0.44 
   1  -8  10    0.60    0.19 
  -2   8 -10    2.17    0.48 
   2  -8  10    2.90    0.33 
   3  -8  10    0.45    0.18 
   4  -8  10    0.66    0.20 
   5  -8  10    0.05    0.16 
   6  -8  10    0.09    0.14 
   6  -8  10    0.28    0.17 
   7  -8  10    4.32    0.40 
   7  -8  10    5.40    0.50 
   8  -8  10    0.72    0.28 
   8  -8  10    0.44    0.21 
   9  -8  10    0.79    0.26 
   9  -8  10    0.53    0.22 
  10  -8  10    1.01    0.24 
  10  -8  10    0.01    0.20 
  11  -8  10    1.18    0.20 
  11  -8  10    0.24    0.22 
   9   7 -10    1.62    0.35 
   8   7 -10    0.70    0.31 
   7   7 -10    0.35    0.40 
   6   7 -10   -0.10    0.47 
  -6  -7  10    0.05    0.14 
   5   7 -10   -0.18    0.43 
  -5  -7  10   -0.05    0.15 
   4   7 -10    1.75    0.59 
  -4  -7  10    2.48    0.34 
   3   7 -10    1.11    0.53 
  -3  -7  10    1.55    0.29 
   2   7 -10    6.58    0.85 
  -2  -7  10    5.97    0.46 
   1   7 -10   -0.27    0.39 
  -1  -7  10   -0.02    0.14 
   0   7 -10    3.12    0.60 
   0  -7  10    2.60    0.31 
  -1   7 -10    3.22    0.58 
   1  -7  10    2.63    0.32 
  -2   7 -10    0.53    0.37 
   2  -7  10    0.64    0.20 
   3  -7  10    3.46    0.37 
   4  -7  10    1.43    0.23 
   4  -7  10    0.94    0.23 
   5  -7  10    3.40    0.35 
   5  -7  10    2.72    0.35 
   6  -7  10    0.60    0.22 
   6  -7  10    1.00    0.25 
   7  -7  10    7.64    0.60 
   7  -7  10    7.23    0.52 
   8  -7  10    0.74    0.26 
   8  -7  10    0.13    0.17 
   9  -7  10    0.55    0.21 
   9  -7  10    0.16    0.19 
  10  -7  10    1.09    0.26 
  10  -7  10    0.50    0.23 
  11  -7  10    0.44    0.23 
  11  -7  10    1.22    0.20 
  10   6 -10    1.39    0.32 
   9   6 -10    1.35    0.38 
   8   6 -10    0.45    0.37 
   7   6 -10    0.32    0.50 
   6   6 -10    0.94    0.54 
  -6  -6  10    1.41    0.25 
   5   6 -10   -0.05    0.42 
  -5  -6  10    0.43    0.17 
   4   6 -10    1.70    0.57 
  -4  -6  10    2.57    0.32 
   3   6 -10    5.38    0.78 
  -3  -6  10    6.05    0.43 
   2   6 -10   11.85    0.96 
  -2  -6  10   10.54    0.59 
   1   6 -10    6.08    0.75 
  -1  -6  10    4.45    0.36 
   0   6 -10   -0.25    0.33 
   0  -6  10    0.03    0.14 
  -1   6 -10    1.57    0.45 
   1  -6  10    1.75    0.27 
  -2   6 -10    0.97    0.37 
   2  -6  10    0.53    0.19 
   3  -6  10   -0.10    0.12 
   3  -6  10    0.03    0.13 
   4  -6  10   -0.12    0.12 
   4  -6  10    0.13    0.12 
   5  -6  10    1.21    0.26 
   5  -6  10    1.31    0.27 
   6  -6  10    0.02    0.16 
   6  -6  10   -0.06    0.19 
   7  -6  10    1.43    0.29 
   7  -6  10    1.60    0.34 
   8  -6  10    0.57    0.25 
   8  -6  10    0.88    0.30 
   9  -6  10    0.60    0.25 
   9  -6  10    0.84    0.27 
  10  -6  10    0.76    0.20 
  10  -6  10    0.56    0.26 
  11  -6  10    0.19    0.21 
  11  -6  10    1.06    0.20 
  10   5 -10    1.02    0.32 
   9   5 -10   -0.05    0.24 
   8   5 -10   -0.27    0.31 
   7   5 -10    0.05    0.44 
   6   5 -10    0.52    0.47 
  -6  -5  10    0.48    0.13 
   5   5 -10    1.74    0.53 
  -5  -5  10    2.14    0.26 
   4   5 -10    2.09    0.57 
  -4  -5  10    1.70    0.24 
   3   5 -10   14.51    1.02 
  -3  -5  10   13.94    0.69 
   2   5 -10    7.54    0.73 
  -2  -5  10    7.80    0.47 
   1   5 -10    0.29    0.38 
  -1  -5  10    0.59    0.19 
   0   5 -10    4.31    0.61 
   0  -5  10    2.36    0.29 
  -1   5 -10    1.98    0.47 
   1  -5  10    2.66    0.30 
  -2   5 -10    0.13    0.30 
   2  -5  10    0.35    0.17 
   3  -5  10    1.16    0.24 
   4  -5  10    0.45    0.19 
   4  -5  10    0.07    0.18 
   5  -5  10    4.38    0.38 
   5  -5  10    4.66    0.44 
   6  -5  10    3.18    0.38 
   6  -5  10    3.49    0.45 
   7  -5  10    0.21    0.19 
   7  -5  10    0.81    0.29 
   8  -5  10    0.02    0.18 
   8  -5  10    0.26    0.23 
   9  -5  10    1.17    0.32 
   9  -5  10    1.38    0.31 
  10  -5  10    1.12    0.26 
  10  -5  10    0.45    0.25 
 -11   5 -10    0.82    0.25 
  11  -5  10    0.81    0.17 
  11   4 -10    0.95    0.32 
  10   4 -10    0.77    0.31 
   9   4 -10   -0.13    0.29 
   8   4 -10    0.29    0.38 
   7   4 -10    0.25    0.43 
   6   4 -10    2.05    0.56 
  -6  -4  10    1.82    0.22 
   5   4 -10    2.66    0.59 
  -5  -4  10    2.93    0.26 
   4   4 -10    0.06    0.43 
  -4  -4  10    0.55    0.17 
   3   4 -10    9.12    0.76 
  -3  -4  10    9.26    0.51 
   2   4 -10   12.28    0.83 
  -2  -4  10    9.88    0.55 
   1   4 -10    5.15    0.54 
  -1  -4  10    5.11    0.36 
   0   4 -10    0.20    0.31 
   0  -4  10    0.02    0.12 
  -1   4 -10    0.42    0.33 
   1  -4  10    0.64    0.18 
  -2   4 -10    0.02    0.27 
   2  -4  10   -0.11    0.11 
   3  -4  10    2.19    0.32 
   3  -4  10    1.79    0.27 
   4  -4  10    3.39    0.41 
   4  -4  10    2.56    0.32 
   5  -4  10    4.23    0.38 
   5  -4  10    3.89    0.42 
   6  -4  10    1.44    0.30 
   6  -4  10    1.43    0.33 
   7  -4  10    0.19    0.19 
   7  -4  10    0.22    0.18 
   8  -4  10    0.26    0.23 
   8  -4  10    0.56    0.24 
   9  -4  10    0.49    0.19 
   9  -4  10    0.07    0.19 
 -10   4 -10    1.86    0.36 
  10  -4  10    1.93    0.36 
 -11   4 -10    0.33    0.19 
  11  -4  10    0.97    0.19 
  11   3 -10    1.32    0.38 
  10   3 -10    0.47    0.33 
   9   3 -10    0.19    0.38 
   8   3 -10    1.30    0.52 
   7   3 -10   -0.39    0.41 
   6   3 -10    0.36    0.45 
  -6  -3  10    0.23    0.08 
   5   3 -10    1.20    0.48 
  -5  -3  10    1.43    0.20 
   4   3 -10    0.33    0.43 
  -4  -3  10    0.19    0.13 
   3   3 -10    4.58    0.62 
  -3  -3  10    3.76    0.29 
   2   3 -10   -0.04    0.30 
  -2  -3  10   -0.06    0.09 
   1   3 -10    0.15    0.34 
  -1  -3  10    0.00    0.11 
   0   3 -10    3.45    0.46 
   0  -3  10    2.67    0.29 
  -1   3 -10    1.45    0.34 
   1  -3  10    1.00    0.20 
   2  -3  10    1.06    0.21 
   3  -3  10    3.42    0.35 
   4  -3  10    3.83    0.42 
   4  -3  10    2.27    0.31 
   5  -3  10    1.84    0.31 
   5  -3  10    2.33    0.38 
   6  -3  10    1.18    0.32 
   6  -3  10    1.42    0.29 
   7  -3  10    0.43    0.23 
   7  -3  10    0.59    0.28 
   8  -3  10    0.76    0.27 
  -9   3 -10    0.51    0.23 
   9  -3  10    0.60    0.21 
 -10   3 -10    1.23    0.28 
  10  -3  10    1.39    0.26 
  12   2 -10    1.62    0.31 
  11   2 -10    1.14    0.39 
  10   2 -10    1.65    0.49 
   9   2 -10    1.00    0.51 
   8   2 -10    0.66    0.46 
   7   2 -10    0.77    0.43 
   6   2 -10    5.52    0.71 
   5   2 -10    4.08    0.64 
   4   2 -10    0.45    0.40 
  -4  -2  10    0.25    0.12 
   3   2 -10    0.35    0.35 
   3   2 -10    0.10    0.23 
  -3  -2  10    0.05    0.10 
   2   2 -10    1.39    0.39 
  -2  -2  10    2.07    0.24 
   1   2 -10    4.07    0.49 
  -1  -2  10    4.17    0.31 
   0   2 -10    3.98    0.43 
   0  -2  10    3.97    0.31 
  -1   2 -10    2.00    0.36 
   1  -2  10    1.50    0.23 
   2  -2  10    1.22    0.23 
   3  -2  10    3.82    0.35 
   4  -2  10    0.16    0.15 
   5  -2  10    0.64    0.25 
   5  -2  10    0.06    0.16 
   6  -2  10    0.15    0.18 
   6  -2  10    0.03    0.21 
  -7   2 -10    1.71    0.39 
   7  -2  10    1.23    0.34 
  -8   2 -10    0.21    0.22 
   8  -2  10    0.50    0.21 
  -9   2 -10    0.44    0.19 
   9  -2  10    1.08    0.22 
 -10   2 -10    1.21    0.24 
  10  -2  10    1.27    0.31 
  12   1 -10    1.70    0.40 
  11   1 -10    0.78    0.34 
  10   1 -10    0.06    0.29 
   9   1 -10   -0.20    0.32 
   8   1 -10    0.18    0.40 
   7   1 -10    0.06    0.33 
   6   1 -10    2.24    0.49 
   5   1 -10    0.16    0.34 
   5   1 -10    0.33    0.26 
  -5  -1  10    0.48    0.11 
   4   1 -10   -0.20    0.30 
   4   1 -10    0.15    0.25 
  -4  -1  10    0.12    0.08 
   3   1 -10    0.38    0.32 
   3   1 -10   -0.06    0.25 
  -3  -1  10    0.57    0.14 
   2   1 -10    1.18    0.36 
  -2  -1  10    1.20    0.19 
   1   1 -10    0.54    0.29 
  -1  -1  10    0.38    0.15 
   0   1 -10    4.14    0.44 
   0  -1  10    4.65    0.35 
  -1   1 -10    1.66    0.32 
   1  -1  10    1.42    0.25 
   2  -1  10    3.74    0.33 
   3  -1  10    1.14    0.25 
   4  -1  10    0.20    0.17 
  -6   1 -10    0.65    0.28 
   6  -1  10    0.23    0.24 
  -7   1 -10    0.10    0.22 
   7  -1  10    0.20    0.18 
  -8   1 -10    0.55    0.23 
   8  -1  10    0.22    0.18 
  -9   1 -10    0.31    0.18 
   9  -1  10    0.44    0.15 
  12   0 -10    0.96    0.29 
  11   0 -10   -0.04    0.26 
  10   0 -10    1.70    0.48 
   9   0 -10    0.53    0.39 
   8   0 -10    0.01    0.33 
   7   0 -10    0.60    0.36 
   7   0 -10    0.91    0.36 
   6   0 -10    1.34    0.44 
   6   0 -10    1.09    0.36 
   5   0 -10    0.40    0.35 
   5   0 -10   -0.02    0.26 
  -5   0  10    0.33    0.10 
   4   0 -10    0.20    0.31 
   4   0 -10    0.37    0.28 
  -4   0  10    0.51    0.13 
  -3   0  10    1.88    0.22 
  -2   0  10    1.13    0.20 
  -1   0  10    0.00    0.11 
   0   0  10    3.43    0.30 
   1   0  10    0.86    0.21 
   2   0  10    1.15    0.25 
   3   0  10   -0.13    0.11 
  -4   0 -10    1.40    0.32 
  -5   0 -10    1.39    0.33 
  -6   0 -10    0.15    0.22 
  -7   0 -10   -0.04    0.16 
  -8   0 -10    0.22    0.16 
  -9   0 -10    0.49    0.19 
  12  -1 -10    0.67    0.23 
  11  -1 -10   -0.06    0.21 
  10  -1 -10    0.79    0.37 
   9  -1 -10    0.35    0.40 
   8  -1 -10   -0.08    0.31 
   8  -1 -10   -0.06    0.38 
   7  -1 -10    1.27    0.42 
   7  -1 -10    0.95    0.41 
   6  -1 -10    2.85    0.47 
   5  -1 -10    2.13    0.40 
  -5   1  10    2.51    0.20 
   4  -1 -10    3.72    0.51 
  -4   1  10    4.45    0.30 
  -3   1  10    5.09    0.34 
  -2   1  10    0.61    0.17 
  -1   1  10    0.25    0.13 
   0   1  10    4.91    0.37 
  -2  -1 -10    0.04    0.20 
  -3  -1 -10    0.74    0.27 
  -4  -1 -10    1.62    0.37 
  -5  -1 -10    0.84    0.32 
  -6  -1 -10   -0.04    0.16 
  -7  -1 -10    0.29    0.17 
  -8  -1 -10    0.39    0.18 
  12  -2 -10    0.23    0.22 
  11  -2 -10    0.98    0.36 
  10  -2 -10    0.71    0.35 
   9  -2 -10    2.62    0.59 
   9  -2 -10    3.24    0.60 
   8  -2 -10   -0.30    0.36 
   7  -2 -10    0.40    0.32 
   6  -2 -10    1.94    0.43 
   5  -2 -10    5.13    0.54 
   4  -2 -10    2.28    0.45 
   3  -2 -10    6.93    0.46 
   2  -2 -10    0.26    0.21 
   1  -2 -10    0.69    0.25 
   0  -2 -10    0.13    0.22 
  -1  -2 -10   -0.09    0.20 
  -2  -2 -10    2.62    0.40 
  -3  -2 -10    0.80    0.29 
  -4  -2 -10    0.58    0.29 
  -5  -2 -10    0.28    0.23 
  -6  -2 -10    0.23    0.17 
  -7  -2 -10    0.65    0.21 
  12  -3 -10    0.78    0.28 
  11  -3 -10    0.98    0.35 
  11  -3 -10    0.04    0.50 
  10  -3 -10    0.04    0.26 
  10  -3 -10   -0.77    0.43 
   9  -3 -10    0.97    0.49 
   8  -3 -10    0.48    0.43 
   7  -3 -10    0.31    0.34 
   6  -3 -10    0.81    0.38 
   5  -3 -10    2.71    0.49 
   4  -3 -10    9.46    0.73 
   4  -3 -10    9.56    0.55 
   3  -3 -10    4.11    0.38 
   2  -3 -10   -0.05    0.16 
   1  -3 -10    0.55    0.24 
   0  -3 -10   -0.02    0.21 
  -1  -3 -10    0.70    0.29 
  -2  -3 -10    1.43    0.35 
  -3  -3 -10    0.05    0.22 
  -4  -3 -10    0.16    0.26 
  -5  -3 -10   -0.02    0.17 
  -6  -3 -10    0.43    0.18 
  -7  -3 -10    1.00    0.21 
  12  -4 -10    0.20    0.52 
  12  -4 -10    0.93    0.25 
  11  -4 -10   -0.81    0.43 
  10  -4 -10   -0.07    0.43 
   9  -4 -10    0.35    0.45 
   8  -4 -10   -0.24    0.30 
   7  -4 -10    0.20    0.34 
   6  -4 -10    1.31    0.43 
   5  -4 -10   -0.18    0.31 
   4  -4 -10    3.19    0.37 
   4  -4 -10    3.30    0.53 
   3  -4 -10    1.86    0.32 
   2  -4 -10    0.95    0.28 
   1  -4 -10    1.10    0.28 
   0  -4 -10    0.21    0.22 
  -1  -4 -10   -0.05    0.23 
  -2  -4 -10   -0.04    0.21 
  -3  -4 -10    0.13    0.24 
  -4  -4 -10    0.23    0.26 
  -5  -4 -10    0.02    0.12 
  -6  -4 -10    0.57    0.17 
  12  -5 -10    0.13    0.54 
  10  -5 -10   -0.76    0.41 
   9  -5 -10   -0.46    0.37 
   8  -5 -10    0.47    0.40 
   7  -5 -10    1.69    0.47 
   6  -5 -10    1.52    0.45 
   5  -5 -10    0.53    0.37 
   4  -5 -10    0.32    0.24 
   3  -5 -10    6.13    0.57 
   2  -5 -10    4.56    0.50 
   1  -5 -10    3.88    0.49 
   0  -5 -10    1.35    0.36 
  -1  -5 -10    0.54    0.31 
  -2  -5 -10   -0.07    0.25 
  -3  -5 -10    0.24    0.29 
  -4  -5 -10   -0.23    0.21 
  -5  -5 -10    1.21    0.22 
  12  -6 -10    0.05    0.56 
  11  -6 -10    0.72    0.54 
  10  -6 -10    0.02    0.46 
   9  -6 -10    0.02    0.41 
   8  -6 -10    0.23    0.39 
   7  -6 -10    0.71    0.42 
   6  -6 -10    0.30    0.41 
   5  -6 -10    0.27    0.36 
   4  -6 -10    1.34    0.33 
   3  -6 -10    3.48    0.47 
   2  -6 -10    2.01    0.40 
   1  -6 -10    2.97    0.45 
   0  -6 -10    1.60    0.39 
  -1  -6 -10    0.24    0.28 
  -2  -6 -10    0.18    0.28 
  -3  -6 -10   -0.22    0.21 
  11  -7 -10    0.12    0.51 
  10  -7 -10   -0.60    0.43 
   9  -7 -10   -0.40    0.32 
   8  -7 -10    0.83    0.45 
   7  -7 -10    1.02    0.45 
   6  -7 -10    0.05    0.37 
   5  -7 -10    0.24    0.41 
   4  -7 -10    0.52    0.42 
   3  -7 -10    1.94    0.39 
   2  -7 -10    0.35    0.27 
   1  -7 -10    2.47    0.44 
   0  -7 -10    1.13    0.38 
  -1  -7 -10    0.15    0.29 
  -2  -7 -10    0.31    0.28 
  10  -8 -10   -0.06    0.46 
   9  -8 -10   -0.21    0.38 
   8  -8 -10    0.20    0.42 
   7  -8 -10   -0.04    0.39 
   6  -8 -10    0.35    0.38 
   5  -8 -10   -0.42    0.38 
   4  -8 -10    0.93    0.48 
   3  -8 -10    0.87    0.30 
   2  -8 -10    0.37    0.25 
   1  -8 -10    1.44    0.38 
   0  -8 -10    0.02    0.22 
   9  -9 -10    0.01    0.41 
   8  -9 -10   -0.11    0.41 
   7  -9 -10   -0.03    0.40 
   6  -9 -10   -0.38    0.37 
   5  -9 -10   -0.14    0.42 
   4  -9 -10    0.41    0.46 
   3  -9 -10    0.31    0.27 
   2  -9 -10    0.75    0.31 
   2 -15  11    0.40    0.19 
   3 -15  11    0.65    0.31 
   4 -15  11    0.30    0.22 
   5 -15  11    0.07    0.15 
   6 -15  11    0.83    0.23 
   0 -14  11    0.87    0.20 
   1 -14  11    0.33    0.15 
   2 -14  11    0.35    0.24 
   3 -14  11    1.20    0.32 
   4 -14  11    0.84    0.30 
   5 -14  11    0.31    0.21 
   6 -14  11    1.44    0.31 
   7 -14  11   -0.06    0.15 
   8 -14  11    0.24    0.17 
  -2 -13  11    0.71    0.18 
  -1 -13  11    0.30    0.14 
   0 -13  11    0.29    0.16 
   1 -13  11    0.23    0.15 
   2 -13  11    0.14    0.23 
   3 -13  11    0.85    0.30 
   4 -13  11    0.47    0.23 
   5 -13  11    0.46    0.20 
   6 -13  11    1.30    0.29 
   7 -13  11    0.30    0.19 
   8 -13  11   -0.03    0.15 
   9 -13  11    0.68    0.21 
   4  12 -11    1.63    0.62 
   3  12 -11    0.57    0.47 
  -3 -12  11    0.56    0.17 
  -2 -12  11    0.31    0.15 
  -1 -12  11    1.14    0.26 
   0 -12  11    1.17    0.30 
   1 -12  11    0.13    0.16 
   2 -12  11    0.01    0.20 
   3 -12  11    0.25    0.20 
   4 -12  11    0.44    0.21 
   5 -12  11    0.10    0.18 
   6 -12  11    1.34    0.30 
   7 -12  11    0.23    0.19 
   8 -12  11    0.84    0.25 
   9 -12  11    0.35    0.19 
  10 -12  11    0.70    0.22 
   5  11 -11    1.52    0.64 
  -5 -11  11    1.12    0.21 
   4  11 -11    1.10    0.60 
  -4 -11  11    1.37    0.27 
   3  11 -11    0.78    0.53 
  -3 -11  11    1.21    0.26 
   2  11 -11    1.39    0.55 
  -2 -11  11    0.52    0.21 
   1  11 -11    0.08    0.38 
  -1 -11  11    0.42    0.22 
   0 -11  11    0.15    0.17 
   1 -11  11   -0.13    0.18 
   2 -11  11    0.06    0.16 
   3 -11  11   -0.12    0.15 
   4 -11  11    0.16    0.17 
   5 -11  11    0.05    0.17 
   6 -11  11    1.60    0.31 
   7 -11  11    0.44    0.20 
   8 -11  11    1.41    0.30 
   9 -11  11    0.83    0.25 
  10 -11  11    0.40    0.19 
   6  10 -11    1.65    0.64 
  -6 -10  11    0.72    0.17 
   5  10 -11    0.67    0.55 
  -5 -10  11    0.29    0.15 
   4  10 -11    1.28    0.60 
  -4 -10  11    1.11    0.26 
   3  10 -11    0.39    0.52 
  -3 -10  11   -0.10    0.14 
   2  10 -11   -0.04    0.40 
  -2 -10  11    0.07    0.18 
   1  10 -11    0.03    0.43 
  -1 -10  11    0.45    0.22 
   0  10 -11    1.98    0.58 
   0 -10  11    1.97    0.34 
  -1  10 -11    1.30    0.46 
   1 -10  11    1.05    0.26 
   2 -10  11    0.00    0.15 
   3 -10  11    0.12    0.17 
   4 -10  11    0.37    0.19 
   5 -10  11    1.94    0.32 
   6 -10  11    1.14    0.27 
   7 -10  11    0.25    0.16 
   8 -10  11    1.07    0.27 
   9 -10  11    1.27    0.31 
  10 -10  11    0.41    0.21 
   7   9 -11    0.88    0.55 
   6   9 -11   -0.15    0.48 
  -6  -9  11    0.21    0.13 
   5   9 -11    0.82    0.59 
  -5  -9  11    0.09    0.14 
   4   9 -11    0.59    0.54 
  -4  -9  11    0.55    0.23 
   3   9 -11   -0.14    0.40 
  -3  -9  11    0.10    0.16 
   2   9 -11    0.27    0.45 
  -2  -9  11    0.10    0.17 
   1   9 -11    2.27    0.62 
  -1  -9  11    2.15    0.34 
   0   9 -11    5.35    0.77 
   0  -9  11    4.82    0.42 
  -1   9 -11    0.03    0.34 
   1  -9  11    0.25    0.17 
   2  -9  11    0.75    0.22 
   3  -9  11    0.89    0.24 
   4  -9  11    0.16    0.16 
   5  -9  11    4.64    0.41 
   6  -9  11    1.53    0.29 
   7  -9  11    0.22    0.17 
   8  -9  11    0.80    0.24 
   9  -9  11    1.97    0.31 
  10  -9  11    2.25    0.25 
  11  -9  11    0.10    0.23 
   8   8 -11    2.40    0.47 
   7   8 -11   -0.09    0.52 
   6   8 -11    0.41    0.56 
  -6  -8  11    0.26    0.15 
   5   8 -11    0.89    0.60 
  -5  -8  11    1.50    0.30 
   4   8 -11    2.39    0.68 
  -4  -8  11    1.92    0.32 
   3   8 -11    0.03    0.46 
  -3  -8  11    0.26    0.15 
   2   8 -11   -0.03    0.44 
  -2  -8  11   -0.02    0.17 
   1   8 -11    5.18    0.79 
  -1  -8  11    4.05    0.38 
   0   8 -11    6.15    0.79 
   0  -8  11    6.02    0.45 
  -1   8 -11    0.47    0.39 
   1  -8  11    0.01    0.13 
  -2   8 -11    1.74    0.43 
   2  -8  11    1.73    0.29 
   3  -8  11    0.69    0.22 
   4  -8  11   -0.07    0.12 
   5  -8  11    0.96    0.23 
   6  -8  11    0.07    0.16 
   7  -8  11    0.47    0.16 
   7  -8  11    0.01    0.17 
   8  -8  11    0.99    0.27 
   8  -8  11    1.94    0.31 
   9  -8  11    0.40    0.23 
   9  -8  11    0.73    0.23 
  10  -8  11    0.44    0.24 
  10  -8  11    1.35    0.23 
  11  -8  11    0.22    0.22 
   9   7 -11    1.35    0.32 
   8   7 -11    1.32    0.40 
   7   7 -11   -0.47    0.48 
   6   7 -11   -0.20    0.45 
  -6  -7  11    0.62    0.17 
   5   7 -11    0.53    0.53 
  -5  -7  11    0.76    0.20 
   4   7 -11    0.99    0.56 
  -4  -7  11    0.61    0.20 
   3   7 -11    0.97    0.52 
  -3  -7  11    0.91    0.23 
   2   7 -11    4.21    0.70 
  -2  -7  11    2.90    0.35 
   1   7 -11    4.43    0.71 
  -1  -7  11    3.00    0.35 
   0   7 -11    0.61    0.43 
   0  -7  11    0.32    0.17 
  -1   7 -11    1.99    0.48 
   1  -7  11    1.63    0.27 
  -2   7 -11    1.24    0.38 
   2  -7  11    1.54    0.27 
   3  -7  11    0.01    0.15 
   4  -7  11    0.51    0.20 
   5  -7  11    1.50    0.29 
   5  -7  11    2.18    0.28 
   6  -7  11   -0.10    0.14 
   6  -7  11    0.20    0.17 
   7  -7  11    0.13    0.19 
   7  -7  11    0.74    0.21 
   8  -7  11    3.71    0.46 
   8  -7  11    1.83    0.35 
   9  -7  11    1.22    0.23 
   9  -7  11    0.37    0.22 
  10  -7  11    0.04    0.20 
  10  -7  11    1.02    0.20 
  11  -7  11    0.14    0.20 
   9   6 -11    1.11    0.34 
   8   6 -11    0.32    0.51 
   7   6 -11    0.50    0.53 
   6   6 -11    0.26    0.49 
  -6  -6  11    0.47    0.14 
   5   6 -11    2.01    0.65 
  -5  -6  11    1.72    0.26 
   4   6 -11    1.02    0.54 
  -4  -6  11    1.46    0.25 
   3   6 -11    2.10    0.59 
  -3  -6  11    1.18    0.23 
   2   6 -11    8.22    0.86 
  -2  -6  11    4.85    0.39 
   1   6 -11    0.96    0.49 
  -1  -6  11    0.86    0.21 
   0   6 -11    0.06    0.37 
   0  -6  11    0.34    0.17 
  -1   6 -11    0.51    0.35 
   1  -6  11    0.58    0.22 
   2  -6  11    0.74    0.21 
   3  -6  11   -0.05    0.14 
   4  -6  11    0.14    0.16 
   4  -6  11    0.46    0.14 
   5  -6  11    1.35    0.28 
   5  -6  11    2.25    0.31 
   6  -6  11   -0.18    0.14 
   6  -6  11    0.24    0.18 
   7  -6  11    2.30    0.37 
   7  -6  11    1.56    0.31 
   8  -6  11    2.05    0.36 
   8  -6  11    3.65    0.46 
   9  -6  11    0.50    0.26 
   9  -6  11    0.89    0.24 
  10  -6  11    1.12    0.19 
  10  -6  11   -0.06    0.20 
  10   5 -11    1.85    0.38 
   9   5 -11    0.46    0.27 
   8   5 -11   -0.07    0.45 
   7   5 -11   -0.14    0.44 
   6   5 -11    0.61    0.47 
  -6  -5  11    0.44    0.13 
   5   5 -11    3.96    0.68 
   4   5 -11    0.25    0.44 
  -4  -5  11    0.27    0.14 
   3   5 -11    0.25    0.43 
  -3  -5  11    0.35    0.16 
   2   5 -11    0.35    0.42 
  -2  -5  11    0.54    0.18 
   1   5 -11    2.23    0.52 
  -1  -5  11    2.07    0.29 
   0   5 -11    0.43    0.42 
   0  -5  11    0.13    0.15 
  -1   5 -11    0.32    0.37 
   1  -5  11    0.09    0.14 
   2  -5  11    4.53    0.37 
   3  -5  11    0.52    0.20 
   4  -5  11    0.35    0.17 
   4  -5  11    0.19    0.17 
   5  -5  11    1.62    0.30 
   5  -5  11    1.12    0.26 
   6  -5  11    0.05    0.19 
   6  -5  11    0.12    0.18 
   7  -5  11    1.86    0.35 
   7  -5  11    0.97    0.26 
   8  -5  11    1.52    0.32 
   8  -5  11    0.98    0.29 
   9  -5  11    0.72    0.20 
   9  -5  11    0.39    0.23 
  10  -5  11    1.04    0.24 
  10   4 -11    0.48    0.25 
   9   4 -11    1.15    0.45 
   8   4 -11    1.18    0.53 
   7   4 -11   -0.28    0.42 
   6   4 -11    2.06    0.58 
   5   4 -11    7.77    0.77 
  -5  -4  11    8.38    0.47 
   4   4 -11    7.94    0.75 
  -4  -4  11    9.47    0.51 
   3   4 -11    1.88    0.48 
  -3  -4  11    1.86    0.26 
   2   4 -11    1.16    0.44 
  -2  -4  11    0.78    0.19 
   1   4 -11    1.57    0.43 
  -1  -4  11    1.80    0.27 
   0   4 -11   -0.10    0.30 
   0  -4  11    0.24    0.14 
  -1   4 -11    0.75    0.37 
   1  -4  11    0.52    0.18 
   2  -4  11    1.12    0.23 
   3  -4  11    1.45    0.26 
   4  -4  11    0.64    0.22 
   4  -4  11    1.28    0.27 
   5  -4  11    1.03    0.27 
   5  -4  11    1.44    0.33 
   6  -4  11    0.43    0.21 
   6  -4  11    0.12    0.18 
   7  -4  11    0.71    0.25 
   7  -4  11    0.07    0.18 
   8  -4  11    0.36    0.25 
   8  -4  11    1.30    0.31 
   9  -4  11    0.99    0.18 
 -10   4 -11    1.15    0.26 
  10  -4  11    1.31    0.24 
  11   3 -11    1.83    0.36 
  10   3 -11    0.80    0.31 
   9   3 -11    0.04    0.47 
   8   3 -11    0.36    0.47 
   7   3 -11    0.52    0.48 
   6   3 -11   -0.29    0.39 
   5   3 -11    3.01    0.61 
  -5  -3  11    2.70    0.24 
   4   3 -11    0.61    0.46 
  -4  -3  11    1.51    0.22 
   3   3 -11    2.70    0.56 
  -3  -3  11    1.93    0.25 
   2   3 -11    1.00    0.41 
  -2  -3  11    0.28    0.15 
   1   3 -11    0.16    0.32 
  -1  -3  11    0.10    0.13 
   0   3 -11    0.79    0.33 
   0  -3  11    0.62    0.19 
   1  -3  11    0.44    0.17 
   2  -3  11    5.34    0.40 
   3  -3  11    0.42    0.18 
   4  -3  11    0.41    0.19 
   5  -3  11    0.96    0.26 
   5  -3  11    1.65    0.34 
   6  -3  11    0.74    0.27 
   6  -3  11    0.66    0.25 
   7  -3  11    0.61    0.23 
   7  -3  11    0.29    0.24 
  -8   3 -11    0.86    0.27 
   8  -3  11    1.03    0.23 
  -9   3 -11    0.46    0.22 
   9  -3  11    0.50    0.14 
 -10   3 -11    0.83    0.23 
  10  -3  11    0.84    0.15 
  11   2 -11    0.62    0.30 
  10   2 -11    0.88    0.37 
   9   2 -11    1.07    0.59 
   8   2 -11    1.50    0.55 
   7   2 -11    0.04    0.38 
   6   2 -11    0.46    0.41 
   5   2 -11    5.48    0.71 
  -5  -2  11    5.49    0.34 
   4   2 -11    2.12    0.50 
  -4  -2  11    1.96    0.23 
   3   2 -11   -0.13    0.32 
  -3  -2  11   -0.14    0.10 
   2   2 -11   -0.02    0.30 
  -2  -2  11    0.08    0.12 
   1   2 -11    1.15    0.37 
  -1  -2  11    1.15    0.21 
   0   2 -11    0.33    0.30 
   0  -2  11    0.31    0.15 
   1  -2  11    0.75    0.21 
   2  -2  11    2.85    0.34 
   3  -2  11    0.21    0.16 
   4  -2  11    0.21    0.17 
   5  -2  11   -0.10    0.15 
   6  -2  11    0.04    0.17 
  -7   2 -11    0.45    0.25 
   7  -2  11    0.62    0.21 
  -8   2 -11    0.32    0.21 
   8  -2  11    0.67    0.18 
  -9   2 -11    0.50    0.20 
   9  -2  11    0.30    0.14 
  12   1 -11    1.43    0.33 
  11   1 -11    0.68    0.28 
  10   1 -11    0.19    0.29 
   9   1 -11    0.04    0.42 
   8   1 -11    0.15    0.40 
   7   1 -11    0.21    0.34 
   6   1 -11    1.46    0.45 
   5   1 -11    2.36    0.49 
   4   1 -11    2.00    0.38 
   4   1 -11    3.81    0.55 
  -4  -1  11    2.89    0.24 
   3   1 -11    2.73    0.48 
   3   1 -11    2.36    0.38 
  -3  -1  11    2.43    0.26 
   2   1 -11    2.07    0.43 
  -2  -1  11    2.31    0.26 
   1   1 -11    2.16    0.42 
  -1  -1  11    1.83    0.26 
   0   1 -11    0.65    0.29 
   0  -1  11    1.20    0.23 
   1  -1  11    1.08    0.23 
   2  -1  11    2.49    0.32 
   3  -1  11    0.17    0.16 
   4  -1  11   -0.16    0.13 
  -5   1 -11    0.22    0.25 
  -6   1 -11    0.37    0.25 
  -7   1 -11    0.47    0.25 
  -8   1 -11    0.65    0.23 
  -9   1 -11    0.40    0.18 
  12   0 -11    1.03    0.30 
  11   0 -11    1.09    0.35 
  10   0 -11    0.17    0.33 
   9   0 -11   -0.01    0.36 
   8   0 -11   -0.01    0.33 
   7   0 -11    0.25    0.34 
   6   0 -11    0.90    0.41 
   5   0 -11    0.76    0.31 
   5   0 -11    1.40    0.43 
   4   0 -11    2.10    0.40 
   4   0 -11    3.92    0.55 
  -4   0  11    3.84    0.28 
   3   0 -11    5.41    0.59 
  -3   0  11    4.08    0.32 
  -2   0  11    1.28    0.22 
  -1   0  11    1.98    0.27 
   0   0  11    0.42    0.18 
   1   0  11    0.59    0.19 
   2   0  11    1.04    0.24 
  -3   0 -11    0.17    0.28 
  -4   0 -11    0.17    0.25 
  -5   0 -11    1.44    0.34 
  -6   0 -11    0.35    0.23 
  -7   0 -11    0.10    0.17 
  -8   0 -11    0.51    0.21 
  12  -1 -11    0.37    0.21 
  11  -1 -11    0.40    0.25 
  10  -1 -11   -0.28    0.36 
   9  -1 -11   -0.30    0.33 
   8  -1 -11   -0.26    0.31 
   7  -1 -11    0.00    0.35 
   7  -1 -11   -0.09    0.34 
   6  -1 -11    1.72    0.43 
   6  -1 -11    1.77    0.42 
   5  -1 -11   -0.10    0.28 
   4  -1 -11    3.08    0.48 
  -4   1  11    3.14    0.27 
  -3   1  11    1.71    0.24 
  -2   1  11    9.72    0.55 
  -1   1  11    0.26    0.14 
   0   1  11    4.46    0.37 
  -1  -1 -11    1.76    0.34 
  -2  -1 -11    3.22    0.44 
  -3  -1 -11    0.19    0.25 
  -4  -1 -11    0.39    0.26 
  -5  -1 -11    0.32    0.20 
  -6  -1 -11    0.47    0.21 
  -7  -1 -11    0.45    0.16 
  12  -2 -11    0.78    0.25 
  11  -2 -11    0.43    0.25 
  10  -2 -11    0.43    0.41 
   9  -2 -11    0.45    0.43 
   8  -2 -11    0.43    0.44 
   8  -2 -11    0.73    0.39 
   7  -2 -11    0.14    0.33 
   6  -2 -11    3.27    0.51 
   5  -2 -11    0.56    0.35 
   4  -2 -11    3.05    0.50 
   4  -2 -11    2.83    0.34 
   3  -2 -11    1.62    0.29 
   2  -2 -11    2.96    0.37 
   1  -2 -11    0.78    0.27 
   0  -2 -11    0.37    0.23 
  -1  -2 -11    3.71    0.47 
  -2  -2 -11    1.58    0.37 
  -3  -2 -11    0.07    0.23 
  -4  -2 -11    0.08    0.25 
  -5  -2 -11    0.40    0.18 
  -6  -2 -11    1.44    0.26 
  -7  -2 -11    0.51    0.19 
  12  -3 -11    0.40    0.19 
  11  -3 -11    0.71    0.28 
  10  -3 -11    0.77    0.48 
   9  -3 -11    1.07    0.50 
   8  -3 -11   -0.24    0.35 
   7  -3 -11    1.04    0.42 
   6  -3 -11    1.82    0.46 
   5  -3 -11   -0.02    0.31 
   4  -3 -11    0.57    0.22 
   4  -3 -11    0.12    0.38 
   3  -3 -11    1.00    0.26 
   2  -3 -11    0.74    0.27 
   1  -3 -11    3.98    0.45 
   0  -3 -11    0.32    0.24 
  -1  -3 -11    2.09    0.39 
  -2  -3 -11    1.41    0.37 
  -3  -3 -11    0.65    0.34 
  -4  -3 -11    1.00    0.36 
  -5  -3 -11    0.89    0.21 
  -6  -3 -11    0.28    0.18 
  12  -4 -11    1.11    0.26 
  11  -4 -11    0.32    0.40 
  10  -4 -11   -0.79    0.40 
   9  -4 -11    1.22    0.51 
   8  -4 -11    0.33    0.36 
   7  -4 -11    0.03    0.33 
   6  -4 -11    0.07    0.35 
   5  -4 -11   -0.13    0.31 
   4  -4 -11    0.22    0.20 
   4  -4 -11   -0.04    0.35 
   3  -4 -11    0.76    0.27 
   2  -4 -11    1.86    0.36 
   1  -4 -11    1.03    0.31 
   0  -4 -11    0.68    0.34 
  -1  -4 -11    1.33    0.36 
  -2  -4 -11    0.39    0.31 
  -3  -4 -11    0.07    0.25 
  -4  -4 -11    1.06    0.36 
  -5  -4 -11    0.23    0.21 
  11  -5 -11   -0.01    0.51 
  10  -5 -11    0.01    0.46 
   9  -5 -11    0.52    0.46 
   8  -5 -11    0.87    0.44 
   7  -5 -11    0.19    0.36 
   6  -5 -11    0.42    0.39 
   5  -5 -11    0.27    0.38 
   4  -5 -11    0.94    0.44 
   3  -5 -11    0.66    0.30 
   2  -5 -11   -0.16    0.21 
   1  -5 -11    0.02    0.23 
   0  -5 -11    0.46    0.28 
  -1  -5 -11    0.81    0.34 
  -2  -5 -11   -0.32    0.20 
  -3  -5 -11    0.61    0.31 
  -4  -5 -11    1.19    0.35 
  11  -6 -11   -0.49    0.47 
  10  -6 -11   -0.25    0.41 
   9  -6 -11   -0.29    0.43 
   8  -6 -11    0.50    0.41 
   7  -6 -11   -0.17    0.33 
   6  -6 -11    0.44    0.39 
   5  -6 -11    0.03    0.36 
   4  -6 -11    0.53    0.40 
   3  -6 -11    1.81    0.38 
   2  -6 -11    0.40    0.26 
   1  -6 -11    0.20    0.24 
   0  -6 -11   -0.01    0.23 
  -1  -6 -11    1.26    0.39 
  -2  -6 -11   -0.01    0.24 
  10  -7 -11   -0.14    0.44 
   9  -7 -11    0.24    0.39 
   8  -7 -11   -0.02    0.40 
   7  -7 -11    0.33    0.39 
   6  -7 -11    0.75    0.44 
   5  -7 -11   -0.29    0.37 
   4  -7 -11   -0.08    0.37 
   3  -7 -11    1.54    0.38 
   2  -7 -11    1.48    0.38 
   1  -7 -11   -0.08    0.23 
   0  -7 -11    0.32    0.26 
  -1  -7 -11    0.07    0.24 
   9  -8 -11   -0.21    0.38 
   8  -8 -11   -0.15    0.38 
   7  -8 -11    0.25    0.43 
   6  -8 -11    0.33    0.46 
   5  -8 -11   -0.04    0.40 
   4  -8 -11    1.02    0.49 
   2  -8 -11    0.48    0.28 
   0 -14  12    2.04    0.30 
   1 -14  12    1.81    0.28 
   2 -14  12    0.55    0.22 
   3 -14  12    0.38    0.18 
   4 -14  12    0.39    0.21 
   5 -14  12   -0.06    0.14 
   6 -14  12    0.20    0.18 
   7 -14  12    0.48    0.22 
  -2 -13  12    0.63    0.17 
  -1 -13  12    0.43    0.16 
   0 -13  12    1.65    0.32 
   1 -13  12    0.91    0.21 
   2 -13  12    0.56    0.22 
   3 -13  12   -0.12    0.16 
   4 -13  12    0.21    0.19 
   5 -13  12    0.02    0.16 
   6 -13  12    0.28    0.19 
   7 -13  12    0.67    0.21 
   8 -13  12    0.34    0.20 
   3  12 -12    1.01    0.61 
  -3 -12  12    0.63    0.17 
   2  12 -12    0.51    0.47 
  -2 -12  12    0.28    0.14 
  -1 -12  12    0.91    0.21 
   0 -12  12    1.39    0.27 
   1 -12  12    0.53    0.22 
   2 -12  12    0.58    0.17 
   3 -12  12   -0.12    0.13 
   4 -12  12    0.16    0.19 
   5 -12  12    0.40    0.18 
   6 -12  12    0.42    0.19 
   7 -12  12    1.04    0.26 
   8 -12  12    0.29    0.22 
   9 -12  12    0.19    0.16 
   5  11 -12    0.47    0.52 
  -5 -11  12    0.26    0.11 
   4  11 -12   -0.02    0.57 
  -4 -11  12    0.64    0.16 
   3  11 -12   -0.41    0.39 
  -3 -11  12    0.07    0.13 
   2  11 -12    0.40    0.45 
  -2 -11  12    1.29    0.28 
   1  11 -12    0.92    0.47 
  -1 -11  12    1.06    0.23 
   0  11 -12    1.64    0.54 
   0 -11  12    1.58    0.30 
   1 -11  12    1.06    0.23 
   2 -11  12    0.27    0.16 
   3 -11  12   -0.01    0.16 
   4 -11  12    1.21    0.29 
   5 -11  12    0.02    0.16 
   6 -11  12    0.87    0.24 
   7 -11  12    1.40    0.29 
   8 -11  12    0.38    0.22 
   9 -11  12    0.13    0.18 
   6  10 -12    1.28    0.66 
  -6 -10  12    1.24    0.21 
   5  10 -12    0.01    0.51 
  -5 -10  12    0.14    0.13 
   4  10 -12    0.55    0.54 
  -4 -10  12    0.72    0.19 
   3  10 -12    0.63    0.52 
  -3 -10  12    0.77    0.21 
   2  10 -12    0.44    0.53 
  -2 -10  12    0.46    0.18 
   1  10 -12    1.05    0.51 
  -1 -10  12    0.71    0.21 
   0  10 -12    0.87    0.49 
   0 -10  12    0.56    0.21 
  -1  10 -12    0.44    0.45 
   1 -10  12    0.49    0.18 
   2 -10  12    0.96    0.24 
   3 -10  12   -0.17    0.15 
   4 -10  12    1.54    0.30 
   5 -10  12    0.24    0.19 
   6 -10  12    1.44    0.29 
   7 -10  12    0.89    0.25 
   8 -10  12    0.43    0.21 
   9 -10  12    0.55    0.24 
  10 -10  12    0.68    0.23 
   7   9 -12    0.82    0.57 
   6   9 -12    1.88    0.69 
  -6  -9  12    1.50    0.26 
   5   9 -12    0.77    0.54 
  -5  -9  12    0.17    0.14 
   4   9 -12   -0.23    0.43 
  -4  -9  12    0.25    0.14 
   3   9 -12    0.28    0.42 
  -3  -9  12    0.27    0.17 
   2   9 -12    0.57    0.52 
  -2  -9  12    0.90    0.26 
   1   9 -12    0.99    0.49 
  -1  -9  12    0.72    0.21 
   0   9 -12   -0.18    0.37 
   0  -9  12    0.02    0.14 
  -1   9 -12    1.35    0.49 
   1  -9  12    0.78    0.24 
   2  -9  12    0.14    0.16 
   3  -9  12    0.15    0.16 
   4  -9  12    0.09    0.17 
   5  -9  12    0.25    0.19 
   6  -9  12    1.98    0.33 
   7  -9  12    1.90    0.34 
   8  -9  12    0.31    0.23 
   9  -9  12    0.49    0.24 
  10  -9  12    1.62    0.35 
   7   8 -12    1.09    0.66 
   6   8 -12    1.43    0.67 
   5   8 -12   -0.01    0.49 
  -5  -8  12    0.26    0.14 
   4   8 -12    0.31    0.53 
  -4  -8  12    0.33    0.17 
   3   8 -12    1.10    0.58 
  -3  -8  12    1.08    0.25 
   2   8 -12    2.67    0.66 
  -2  -8  12    1.63    0.30 
   1   8 -12    2.27    0.61 
  -1  -8  12    1.70    0.29 
   0   8 -12    1.06    0.50 
   0  -8  12    0.73    0.22 
  -1   8 -12    1.07    0.44 
   1  -8  12    1.50    0.27 
   2  -8  12    0.09    0.16 
   3  -8  12    0.15    0.17 
   4  -8  12    0.28    0.18 
   5  -8  12    0.39    0.19 
   6  -8  12    1.73    0.32 
   7  -8  12    2.19    0.36 
   8  -8  12    0.16    0.20 
   9  -8  12    1.41    0.25 
   9  -8  12    0.59    0.25 
  10  -8  12    2.27    0.22 
  10  -8  12    0.98    0.29 
   8   7 -12   -0.54    0.44 
   7   7 -12   -0.23    0.45 
   6   7 -12   -0.15    0.50 
   5   7 -12    0.46    0.54 
  -5  -7  12    0.37    0.14 
   4   7 -12   -0.01    0.45 
  -4  -7  12    0.16    0.14 
   3   7 -12    1.52    0.59 
  -3  -7  12    1.11    0.23 
   2   7 -12    1.47    0.61 
  -2  -7  12    1.35    0.27 
   1   7 -12    2.12    0.58 
  -1  -7  12    1.93    0.31 
   0   7 -12    3.44    0.61 
   0  -7  12    1.92    0.31 
  -1   7 -12    0.42    0.40 
   1  -7  12    0.24    0.17 
   2  -7  12    0.32    0.17 
   3  -7  12   -0.03    0.13 
   4  -7  12    1.00    0.24 
   5  -7  12   -0.13    0.15 
   6  -7  12    0.21    0.20 
   7  -7  12    4.85    0.42 
   8  -7  12    1.74    0.32 
   8  -7  12    1.49    0.34 
   9  -7  12    0.48    0.25 
   9  -7  12    1.16    0.23 
  10  -7  12    1.29    0.20 
  10  -7  12    0.55    0.24 
   9   6 -12    1.98    0.54 
   8   6 -12   -0.05    0.52 
   7   6 -12    1.02    0.65 
   6   6 -12   -0.05    0.56 
   5   6 -12    0.12    0.42 
  -5  -6  12    0.46    0.14 
   4   6 -12    0.67    0.44 
  -4  -6  12    0.73    0.21 
   3   6 -12    6.33    0.88 
  -3  -6  12    5.19    0.41 
   2   6 -12    2.10    0.63 
  -2  -6  12    1.55    0.27 
   1   6 -12    1.67    0.53 
  -1  -6  12    0.52    0.20 
   0   6 -12    3.51    0.60 
   0  -6  12    3.07    0.36 
   1  -6  12    0.26    0.18 
   2  -6  12   -0.03    0.13 
   3  -6  12   -0.05    0.13 
   4  -6  12   -0.02    0.13 
   5  -6  12    0.26    0.17 
   5  -6  12    0.58    0.15 
   6  -6  12   -0.02    0.17 
   6  -6  12    0.29    0.15 
   7  -6  12    2.73    0.41 
   7  -6  12    3.63    0.37 
   8  -6  12    1.18    0.29 
   8  -6  12    1.61    0.28 
   9  -6  12    0.47    0.26 
   9  -6  12    1.04    0.19 
  10  -6  12    1.33    0.20 
  10  -6  12    0.42    0.24 
   9   5 -12    2.52    0.71 
   8   5 -12    0.16    0.46 
   7   5 -12    0.30    0.48 
   6   5 -12    0.59    0.49 
   5   5 -12    0.66    0.47 
  -5  -5  12    0.96    0.20 
   4   5 -12   -0.02    0.39 
  -4  -5  12    0.36    0.16 
   3   5 -12    3.43    0.64 
  -3  -5  12    4.10    0.36 
   2   5 -12    0.22    0.38 
  -2  -5  12    0.16    0.14 
   1   5 -12    7.06    0.78 
  -1  -5  12    6.91    0.46 
   0   5 -12    0.20    0.32 
   0  -5  12    0.09    0.14 
   1  -5  12    2.19    0.30 
   2  -5  12   -0.05    0.14 
   3  -5  12    0.01    0.14 
   4  -5  12    0.95    0.24 
   5  -5  12    1.02    0.23 
   5  -5  12    0.37    0.21 
   6  -5  12    0.67    0.23 
   6  -5  12    0.13    0.20 
   7  -5  12    2.03    0.38 
   7  -5  12    3.76    0.37 
   8  -5  12    0.75    0.17 
   8  -5  12    0.43    0.25 
   9  -5  12    2.12    0.35 
   9  -5  12    1.07    0.30 
 -10   5 -12    0.72    0.23 
  10   4 -12    1.00    0.28 
   9   4 -12    0.05    0.48 
   8   4 -12    0.83    0.54 
   7   4 -12    0.30    0.49 
   6   4 -12   -0.09    0.43 
   5   4 -12   -0.45    0.36 
  -5  -4  12    0.23    0.11 
   4   4 -12    0.22    0.41 
  -4  -4  12    0.36    0.14 
   3   4 -12    3.33    0.60 
  -3  -4  12    4.07    0.33 
   2   4 -12    0.84    0.39 
  -2  -4  12    0.66    0.19 
   1   4 -12    0.18    0.34 
  -1  -4  12    0.00    0.13 
   0   4 -12    0.01    0.26 
   0  -4  12   -0.04    0.15 
   1  -4  12    0.15    0.16 
   2  -4  12    0.66    0.21 
   3  -4  12    2.50    0.33 
   4  -4  12    0.03    0.16 
   5  -4  12    1.43    0.30 
   6  -4  12    0.27    0.21 
   6  -4  12    0.45    0.18 
   7  -4  12    1.19    0.27 
   7  -4  12    0.41    0.24 
   8  -4  12    0.92    0.18 
   8  -4  12    0.07    0.21 
  -9   4 -12    1.70    0.32 
   9  -4  12    1.40    0.24 
  10   3 -12    1.11    0.45 
   9   3 -12    0.45    0.54 
   8   3 -12   -0.12    0.47 
   7   3 -12    0.24    0.45 
   6   3 -12    1.27    0.55 
   5   3 -12   -0.23    0.37 
  -5  -3  12    0.17    0.09 
   4   3 -12    0.38    0.43 
  -4  -3  12    0.83    0.18 
   3   3 -12    0.53    0.42 
  -3  -3  12    0.76    0.18 
   2   3 -12    0.72    0.40 
  -2  -3  12    0.58    0.18 
   1   3 -12    0.13    0.29 
  -1  -3  12   -0.04    0.11 
   0   3 -12    0.24    0.27 
   0  -3  12    0.18    0.15 
   1  -3  12    0.33    0.15 
   2  -3  12    2.98    0.35 
   3  -3  12    1.82    0.30 
   4  -3  12    0.16    0.18 
   5  -3  12    1.93    0.33 
   6  -3  12    0.30    0.24 
   7  -3  12   -0.33    0.16 
   7  -3  12    0.43    0.17 
  -8   3 -12    0.90    0.27 
   8  -3  12    0.75    0.19 
  -9   3 -12    0.63    0.21 
  11   2 -12    1.52    0.37 
  10   2 -12    0.09    0.48 
   9   2 -12   -0.05    0.52 
   8   2 -12    1.37    0.54 
   7   2 -12    0.68    0.49 
   6   2 -12    0.88    0.46 
   5   2 -12    0.69    0.45 
  -5  -2  12    0.72    0.15 
   4   2 -12   -0.41    0.35 
  -4  -2  12    0.06    0.09 
   3   2 -12    2.01    0.49 
  -3  -2  12    2.37    0.27 
   2   2 -12    0.97    0.41 
  -2  -2  12    1.11    0.21 
   1   2 -12   -0.12    0.23 
  -1  -2  12    0.12    0.12 
   0  -2  12    0.91    0.22 
   1  -2  12    0.28    0.17 
   2  -2  12    1.01    0.24 
   3  -2  12    0.13    0.15 
   4  -2  12    0.12    0.16 
   5  -2  12    2.30    0.37 
  -7   2 -12    0.55    0.22 
  -8   2 -12   -0.02    0.20 
  11   1 -12    0.89    0.28 
  10   1 -12    0.16    0.45 
   9   1 -12    0.19    0.47 
   8   1 -12    1.47    0.53 
   7   1 -12    0.27    0.39 
   6   1 -12   -0.04    0.34 
   5   1 -12   -0.15    0.32 
   4   1 -12    0.16    0.33 
  -4  -1  12    0.37    0.12 
   3   1 -12    0.18    0.24 
   3   1 -12   -0.02    0.30 
  -3  -1  12    0.12    0.12 
   2   1 -12    1.19    0.38 
  -2  -1  12    0.98    0.21 
   1   1 -12    0.00    0.23 
  -1  -1  12    0.13    0.14 
   0  -1  12    3.08    0.35 
   1  -1  12    0.21    0.16 
   2  -1  12    1.59    0.29 
   3  -1  12    0.79    0.23 
   4  -1  12   -0.04    0.14 
  -5   1 -12    1.19    0.33 
  -6   1 -12    0.54    0.24 
  -7   1 -12    0.12    0.17 
  -8   1 -12    0.09    0.20 
  11   0 -12    0.87    0.31 
  10   0 -12    0.23    0.44 
   9   0 -12    0.66    0.46 
   8   0 -12    1.43    0.50 
   7   0 -12    0.22    0.36 
   6   0 -12   -0.07    0.31 
   5   0 -12    0.45    0.36 
   4   0 -12    0.74    0.36 
   4   0 -12    0.75    0.37 
  -4   0  12    0.75    0.18 
   3   0 -12    0.97    0.38 
  -3   0  12    1.39    0.23 
   2   0 -12    2.47    0.45 
  -2   0  12    2.47    0.31 
   1   0 -12    1.43    0.35 
  -1   0  12    1.21    0.24 
   0   0  12    1.12    0.25 
   1   0  12    0.36    0.18 
   2   0  12    0.99    0.24 
  -3   0 -12    2.21    0.42 
  -4   0 -12   -0.10    0.25 
  -5   0 -12    0.03    0.19 
  -6   0 -12    1.00    0.32 
  -7   0 -12    0.70    0.18 
  11  -1 -12    0.10    0.41 
  10  -1 -12    0.33    0.45 
   9  -1 -12    0.18    0.42 
   8  -1 -12    1.26    0.47 
   7  -1 -12    0.48    0.37 
   6  -1 -12    0.47    0.34 
   6  -1 -12   -0.01    0.32 
   5  -1 -12    0.88    0.39 
   4  -1 -12   -0.01    0.28 
  -4   1  12    0.30    0.13 
  -3   1  12    1.15    0.22 
  -2   1  12    0.13    0.13 
  -1   1  12    0.71    0.21 
   0  -1 -12    0.21    0.23 
  -1  -1 -12    0.38    0.26 
  -2  -1 -12    2.85    0.45 
  -3  -1 -12   -0.15    0.23 
  -4  -1 -12    0.18    0.24 
  -5  -1 -12    0.42    0.21 
  -6  -1 -12    0.05    0.13 
  11  -2 -12    0.33    0.43 
  10  -2 -12    1.14    0.50 
   9  -2 -12   -0.38    0.36 
   8  -2 -12    0.51    0.42 
   7  -2 -12   -0.03    0.34 
   6  -2 -12   -0.02    0.32 
   5  -2 -12   -0.04    0.32 
   4  -2 -12   -0.19    0.32 
   4  -2 -12   -0.28    0.15 
   3  -2 -12    0.32    0.22 
   2  -2 -12    3.18    0.39 
   1  -2 -12    0.62    0.25 
   0  -2 -12    0.41    0.24 
  -1  -2 -12    0.49    0.29 
  -2  -2 -12    0.74    0.32 
  -3  -2 -12   -0.17    0.25 
  -4  -2 -12    0.12    0.25 
  -5  -2 -12    0.48    0.26 
  11  -3 -12    0.67    0.50 
  10  -3 -12    0.67    0.47 
   9  -3 -12    0.41    0.38 
   8  -3 -12   -0.52    0.37 
   7  -3 -12   -0.30    0.34 
   6  -3 -12   -0.02    0.33 
   5  -3 -12   -0.05    0.33 
   4  -3 -12    0.18    0.36 
   4  -3 -12    0.19    0.19 
   3  -3 -12    1.69    0.32 
   2  -3 -12    0.49    0.26 
   1  -3 -12    0.16    0.21 
   0  -3 -12    0.75    0.29 
  -1  -3 -12    0.16    0.24 
  -2  -3 -12    0.92    0.35 
  -3  -3 -12    0.07    0.24 
  -4  -3 -12   -0.08    0.24 
  -5  -3 -12    0.16    0.22 
  11  -4 -12    1.50    0.56 
   9  -4 -12    0.20    0.42 
   8  -4 -12   -0.09    0.35 
   7  -4 -12    0.39    0.38 
   6  -4 -12    0.61    0.38 
   5  -4 -12    0.22    0.37 
   4  -4 -12    0.58    0.39 
   3  -4 -12    1.07    0.30 
   2  -4 -12    0.26    0.23 
   1  -4 -12    1.07    0.32 
   0  -4 -12    1.33    0.37 
  -1  -4 -12    0.08    0.25 
  -2  -4 -12    1.64    0.43 
  -3  -4 -12    0.47    0.28 
  10  -5 -12   -0.48    0.42 
   9  -5 -12    1.40    0.52 
   8  -5 -12   -0.32    0.38 
   7  -5 -12    0.36    0.40 
   6  -5 -12    0.50    0.39 
   5  -5 -12    0.89    0.43 
   4  -5 -12    1.44    0.47 
   3  -5 -12    0.12    0.24 
   2  -5 -12    0.17    0.24 
   1  -5 -12    1.28    0.35 
   0  -5 -12    1.40    0.39 
  -1  -5 -12   -0.18    0.25 
  -2  -5 -12    0.65    0.32 
   9  -6 -12    0.41    0.39 
   8  -6 -12    0.12    0.41 
   7  -6 -12   -0.04    0.37 
   6  -6 -12    0.27    0.41 
   5  -6 -12    0.81    0.45 
   4  -6 -12    0.81    0.46 
   3  -6 -12    0.28    0.26 
   2  -6 -12    0.21    0.24 
   1  -6 -12    1.04    0.33 
   0  -6 -12    0.55    0.28 
  -1  -6 -12    0.49    0.30 
   8  -7 -12   -0.50    0.36 
   7  -7 -12    0.41    0.45 
   6  -7 -12    0.11    0.40 
   5  -7 -12    0.59    0.46 
   4  -7 -12    0.43    0.44 
   2  -7 -12    0.36    0.25 
   3 -14  13    0.25    0.17 
   4 -14  13    0.94    0.25 
  -1 -13  13    0.19    0.12 
   0 -13  13    0.13    0.12 
   1 -13  13    0.46    0.12 
   2 -13  13    0.42    0.16 
   3 -13  13    0.24    0.19 
   4 -13  13    0.82    0.24 
   5 -13  13    0.56    0.20 
   6 -13  13    0.31    0.18 
   7 -13  13    0.48    0.20 
   2  12 -13    0.59    0.48 
  -2 -12  13    0.90    0.21 
  -1 -12  13    0.35    0.15 
   0 -12  13    0.35    0.13 
   1 -12  13    0.48    0.15 
   2 -12  13    0.28    0.13 
   3 -12  13    0.29    0.19 
   4 -12  13    0.28    0.19 
   5 -12  13    0.33    0.18 
   6 -12  13    0.11    0.17 
   7 -12  13    0.80    0.23 
   8 -12  13    1.06    0.24 
   4  11 -13   -0.16    0.48 
  -4 -11  13    0.46    0.12 
   3  11 -13    0.76    0.57 
  -3 -11  13    0.43    0.12 
   2  11 -13    0.82    0.52 
  -2 -11  13    0.54    0.19 
   1  11 -13    0.24    0.45 
  -1 -11  13    0.27    0.13 
   0  11 -13    1.09    0.52 
   0 -11  13    0.55    0.18 
   1 -11  13    0.15    0.11 
   2 -11  13    0.22    0.13 
   3 -11  13    0.37    0.20 
   4 -11  13    0.56    0.23 
   5 -11  13    0.37    0.20 
   6 -11  13    0.53    0.23 
   7 -11  13    0.50    0.23 
   8 -11  13    1.71    0.32 
   5  10 -13   -0.46    0.47 
  -5 -10  13    0.08    0.11 
   4  10 -13   -0.58    0.42 
  -4 -10  13    0.19    0.13 
   3  10 -13    0.22    0.51 
  -3 -10  13    0.47    0.14 
   2  10 -13    3.51    0.76 
  -2 -10  13    2.01    0.30 
   1  10 -13    0.59    0.44 
  -1 -10  13    0.36    0.14 
   0  10 -13    2.32    0.63 
   0 -10  13    1.36    0.27 
  -1  10 -13    0.37    0.36 
   1 -10  13    0.19    0.14 
   2 -10  13    0.75    0.20 
   3 -10  13    0.45    0.22 
   4 -10  13    1.15    0.27 
   5 -10  13    0.47    0.21 
   6 -10  13    0.09    0.17 
   7 -10  13    0.91    0.24 
   8 -10  13    1.12    0.28 
   9 -10  13    0.10    0.18 
   6   9 -13   -0.15    0.57 
   5   9 -13    0.20    0.54 
  -5  -9  13    0.29    0.13 
   4   9 -13    0.05    0.48 
  -4  -9  13   -0.01    0.11 
   3   9 -13    0.97    0.55 
  -3  -9  13    0.95    0.22 
   2   9 -13    6.65    0.92 
  -2  -9  13    4.19    0.39 
   1   9 -13    0.89    0.52 
  -1  -9  13    0.17    0.15 
   0   9 -13    1.22    0.52 
   0  -9  13    1.29    0.27 
   1  -9  13   -0.02    0.13 
   2  -9  13    0.32    0.17 
   3  -9  13    0.32    0.19 
   4  -9  13    1.07    0.25 
   5  -9  13    0.36    0.20 
   6  -9  13    0.43    0.21 
   7  -9  13    0.55    0.22 
   8  -9  13    0.57    0.22 
   9  -9  13    0.16    0.18 
   7   8 -13    1.08    0.65 
   6   8 -13    0.86    0.62 
   5   8 -13    0.71    0.60 
  -5  -8  13    0.39    0.15 
   4   8 -13    0.58    0.53 
  -4  -8  13    0.29    0.14 
   3   8 -13    2.28    0.68 
  -3  -8  13    1.47    0.28 
   2   8 -13    3.92    0.76 
  -2  -8  13    2.53    0.34 
   1   8 -13   -0.09    0.43 
  -1  -8  13    0.19    0.16 
   0   8 -13    0.73    0.47 
   1  -8  13    0.13    0.18 
   2  -8  13    0.22    0.15 
   3  -8  13   -0.02    0.13 
   4  -8  13    0.17    0.19 
   5  -8  13   -0.06    0.15 
   6  -8  13    0.06    0.18 
   7  -8  13    0.65    0.25 
   8  -8  13    0.87    0.27 
   9  -8  13    0.27    0.21 
   8   7 -13    0.40    0.61 
   7   7 -13    0.95    0.64 
   6   7 -13    0.15    0.51 
   5   7 -13    1.90    0.67 
  -5  -7  13    1.45    0.24 
   4   7 -13    0.79    0.51 
  -4  -7  13    0.70    0.18 
   3   7 -13    1.83    0.62 
  -3  -7  13    1.62    0.28 
   2   7 -13    0.30    0.48 
  -2  -7  13    0.25    0.15 
   1   7 -13    0.23    0.42 
  -1  -7  13    0.23    0.16 
   0   7 -13    2.15    0.56 
   0  -7  13    0.99    0.24 
   1  -7  13    0.14    0.15 
   2  -7  13    0.32    0.18 
   3  -7  13   -0.01    0.15 
   4  -7  13    0.42    0.21 
   5  -7  13    0.08    0.18 
   6  -7  13    0.28    0.21 
   7  -7  13    1.55    0.32 
   8  -7  13    0.77    0.29 
   9  -7  13    0.77    0.14 
   9  -7  13    0.28    0.21 
   8   6 -13    0.66    0.64 
   7   6 -13    0.24    0.60 
   6   6 -13    1.57    0.58 
   5   6 -13    0.64    0.49 
  -5  -6  13    0.94    0.19 
   4   6 -13    0.20    0.43 
  -4  -6  13    0.18    0.14 
   3   6 -13    2.12    0.54 
  -3  -6  13    1.49    0.27 
   2   6 -13   -0.50    0.37 
  -2  -6  13    0.18    0.14 
   1   6 -13   -0.11    0.40 
  -1  -6  13    0.16    0.17 
   0   6 -13    0.60    0.41 
   0  -6  13    0.01    0.16 
   1  -6  13    0.17    0.15 
   2  -6  13    0.13    0.17 
   3  -6  13   -0.08    0.13 
   4  -6  13    0.08    0.17 
   5  -6  13    0.69    0.24 
   6  -6  13    0.48    0.23 
   7  -6  13    3.13    0.32 
   7  -6  13    1.83    0.35 
   8  -6  13    2.52    0.25 
   8  -6  13    1.04    0.32 
   8  -6  13    2.53    0.25 
   9  -6  13    0.28    0.23 
   9  -6  13    0.66    0.13 
   9   5 -13    0.23    0.48 
   8   5 -13    0.16    0.46 
   7   5 -13    0.73    0.52 
   6   5 -13    1.15    0.54 
   5   5 -13   -0.50    0.35 
  -5  -5  13    0.15    0.10 
   4   5 -13    0.23    0.42 
  -4  -5  13    0.61    0.17 
   3   5 -13    4.00    0.67 
  -3  -5  13    3.82    0.34 
   2   5 -13    0.33    0.40 
  -2  -5  13    0.50    0.18 
   1   5 -13   -0.11    0.34 
  -1  -5  13    0.15    0.15 
   0  -5  13    1.59    0.28 
   1  -5  13    0.83    0.22 
   2  -5  13    0.07    0.17 
   3  -5  13   -0.09    0.14 
   4  -5  13    0.01    0.16 
   5  -5  13    0.52    0.24 
   6  -5  13    0.01    0.21 
   7  -5  13    1.39    0.32 
   7  -5  13    2.24    0.38 
   8  -5  13    0.90    0.30 
   8  -5  13    1.07    0.18 
   9   4 -13    0.02    0.43 
   8   4 -13   -0.07    0.44 
   7   4 -13    0.99    0.53 
   6   4 -13    0.61    0.47 
   5   4 -13    0.84    0.49 
  -5  -4  13    1.00    0.19 
   4   4 -13   -0.15    0.35 
  -4  -4  13    0.48    0.16 
   3   4 -13    2.13    0.53 
  -3  -4  13    1.62    0.25 
   2   4 -13    0.62    0.41 
  -2  -4  13    0.37    0.16 
   1   4 -13    0.65    0.36 
  -1  -4  13    0.27    0.17 
   0  -4  13    0.41    0.18 
   1  -4  13    0.21    0.16 
   2  -4  13    0.06    0.14 
   3  -4  13    0.15    0.16 
   4  -4  13    0.15    0.16 
   5  -4  13    0.91    0.26 
   6  -4  13    0.22    0.21 
   7  -4  13    1.69    0.34 
   8  -4  13    0.36    0.23 
   8  -4  13    0.51    0.14 
  10   3 -13    0.11    0.47 
   9   3 -13   -0.19    0.45 
   8   3 -13    0.02    0.46 
   7   3 -13    0.10    0.44 
   6   3 -13   -0.33    0.37 
   5   3 -13    0.03    0.39 
   4   3 -13    0.01    0.40 
  -4  -3  13    0.08    0.11 
   3   3 -13    2.44    0.56 
  -3  -3  13    1.39    0.23 
   2   3 -13    0.54    0.39 
  -2  -3  13    0.88    0.22 
   1   3 -13   -0.21    0.29 
  -1  -3  13   -0.26    0.10 
   0  -3  13    0.92    0.21 
   1  -3  13    0.08    0.14 
   2  -3  13    0.08    0.16 
   3  -3  13    0.62    0.20 
   4  -3  13    0.26    0.19 
   5  -3  13    0.73    0.26 
   6  -3  13    0.17    0.23 
  -8   3 -13    0.51    0.22 
  10   2 -13    0.49    0.52 
   9   2 -13    0.67    0.55 
   8   2 -13    0.05    0.43 
   7   2 -13    0.15    0.43 
   6   2 -13   -0.34    0.38 
   5   2 -13   -0.32    0.36 
   4   2 -13    0.50    0.43 
  -4  -2  13    0.46    0.15 
   3   2 -13    0.80    0.46 
  -3  -2  13    0.89    0.18 
   2   2 -13    0.13    0.34 
  -2  -2  13    0.13    0.13 
  -1  -2  13    0.13    0.14 
   0  -2  13    0.16    0.17 
   1  -2  13    0.11    0.15 
   2  -2  13    0.26    0.17 
   3  -2  13    0.19    0.16 
   4  -2  13    0.07    0.15 
   5  -2  13   -0.09    0.18 
  -6   2 -13    0.58    0.22 
  -7   2 -13    1.14    0.26 
  10   1 -13    0.49    0.49 
   9   1 -13   -0.17    0.41 
   8   1 -13   -0.10    0.41 
   7   1 -13    0.19    0.39 
   6   1 -13    0.88    0.46 
   5   1 -13    0.25    0.38 
   4   1 -13   -0.04    0.33 
  -4  -1  13    0.25    0.14 
   3   1 -13    0.33    0.33 
  -3  -1  13    0.28    0.15 
   2   1 -13   -0.03    0.28 
  -2  -1  13   -0.03    0.12 
  -1  -1  13   -0.02    0.11 
   0  -1  13    1.68    0.27 
   1  -1  13    1.31    0.26 
   2  -1  13   -0.03    0.11 
   3  -1  13    0.66    0.21 
  -4   1 -13    0.19    0.30 
  -5   1 -13    0.76    0.26 
  -6   1 -13    0.79    0.20 
  -7   1 -13    0.21    0.17 
  10   0 -13   -0.37    0.39 
   9   0 -13    0.11    0.39 
   8   0 -13   -0.39    0.33 
   7   0 -13    1.23    0.47 
   6   0 -13    1.22    0.44 
   5   0 -13    0.14    0.35 
   4   0 -13   -0.21    0.30 
  -4   0  13    0.13    0.10 
   3   0 -13    0.26    0.33 
  -3   0  13    0.31    0.14 
   2   0 -13    0.10    0.30 
  -2   0  13    0.23    0.13 
  -1   0  13    0.10    0.14 
   0   0  13    1.05    0.23 
   1   0  13    0.35    0.17 
  -2   0 -13    0.35    0.27 
  -3   0 -13    0.03    0.27 
  -4   0 -13    0.24    0.29 
  -5   0 -13    0.50    0.28 
  -6   0 -13    0.31    0.17 
  10  -1 -13    0.04    0.42 
   9  -1 -13    0.06    0.42 
   8  -1 -13    0.40    0.39 
   7  -1 -13    0.86    0.43 
   6  -1 -13    0.26    0.41 
   5  -1 -13   -0.08    0.32 
   4  -1 -13    3.56    0.54 
   4  -1 -13    2.69    0.53 
  -4   1  13    3.14    0.28 
  -3   1  13    0.54    0.17 
  -2   1  13    2.58    0.32 
   1  -1 -13    0.13    0.23 
   0  -1 -13    1.56    0.35 
  -1  -1 -13    0.93    0.32 
  -2  -1 -13   -0.04    0.24 
  -3  -1 -13   -0.46    0.24 
  -4  -1 -13    0.23    0.30 
  -5  -1 -13   -0.06    0.21 
  10  -2 -13    0.15    0.37 
   9  -2 -13    0.26    0.42 
   8  -2 -13    0.82    0.45 
   7  -2 -13    0.59    0.39 
   6  -2 -13    0.63    0.38 
   5  -2 -13    0.11    0.34 
   4  -2 -13    0.42    0.38 
   3  -2 -13    2.21    0.36 
   2  -2 -13    0.10    0.19 
   1  -2 -13    0.38    0.24 
   0  -2 -13    1.22    0.34 
  -1  -2 -13    0.47    0.30 
  -2  -2 -13    0.98    0.34 
  -3  -2 -13    0.32    0.27 
  -4  -2 -13    1.09    0.37 
  10  -3 -13    0.73    0.50 
   9  -3 -13    0.40    0.44 
   7  -3 -13    0.47    0.37 
   6  -3 -13   -0.20    0.36 
   5  -3 -13    0.05    0.33 
   4  -3 -13   -0.22    0.32 
   3  -3 -13   -0.09    0.18 
   2  -3 -13    0.44    0.24 
   1  -3 -13   -0.11    0.20 
   0  -3 -13    0.13    0.25 
  -1  -3 -13   -0.03    0.20 
  -2  -3 -13    0.38    0.25 
  -3  -3 -13    0.75    0.29 
   8  -4 -13    0.15    0.41 
   7  -4 -13   -0.10    0.34 
   6  -4 -13    0.26    0.40 
   5  -4 -13    0.16    0.39 
   4  -4 -13    0.56    0.37 
   3  -4 -13    0.22    0.21 
   2  -4 -13   -0.05    0.20 
   1  -4 -13    0.69    0.30 
   0  -4 -13    0.41    0.28 
  -1  -4 -13    0.31    0.27 
  -2  -4 -13    0.48    0.26 
   9  -5 -13   -0.05    0.45 
   8  -5 -13    0.19    0.42 
   7  -5 -13    0.22    0.39 
   6  -5 -13    0.26    0.41 
   5  -5 -13    0.03    0.37 
   4  -5 -13    0.37    0.39 
   2  -5 -13    0.96    0.32 
   1  -5 -13    0.74    0.30 
   0  -5 -13    0.35    0.26 
   7  -6 -13   -0.47    0.37 
   6  -6 -13    0.23    0.47 
   5  -6 -13    0.17    0.42 
   4  -6 -13    0.24    0.47 
   2  -6 -13    0.95    0.30 
   1 -13  14    0.34    0.12 
   2 -13  14    0.47    0.15 
   3 -13  14    0.93    0.22 
   4 -13  14    0.19    0.15 
   1  12 -14    1.81    0.57 
   0 -12  14    0.71    0.15 
   1 -12  14    0.53    0.16 
   2 -12  14    0.98    0.19 
   3 -12  14    0.93    0.24 
   4 -12  14    0.49    0.19 
   5 -12  14    0.31    0.19 
   6 -12  14    1.08    0.26 
   3  11 -14    0.69    0.58 
  -3 -11  14    0.65    0.17 
   2  11 -14    1.06    0.57 
  -2 -11  14    0.63    0.14 
   1  11 -14    1.47    0.55 
  -1 -11  14    1.44    0.25 
   0  11 -14    1.74    0.57 
   0 -11  14    0.79    0.21 
   1 -11  14    0.70    0.17 
   2 -11  14    1.07    0.20 
   3 -11  14    0.74    0.20 
   4 -11  14    0.07    0.17 
   5 -11  14    0.33    0.16 
   6 -11  14    0.56    0.21 
   7 -11  14    0.17    0.15 
   4  10 -14    0.31    0.57 
  -4 -10  14    0.31    0.11 
   3  10 -14    0.71    0.56 
  -3 -10  14    0.29    0.13 
   2  10 -14    1.68    0.61 
   1  10 -14    1.89    0.61 
  -1 -10  14    1.31    0.25 
   0  10 -14    1.28    0.51 
   0 -10  14    0.56    0.16 
   1 -10  14    1.16    0.24 
   2 -10  14    0.71    0.18 
   3 -10  14    0.35    0.17 
   4 -10  14    0.33    0.19 
   5 -10  14    0.29    0.18 
   6 -10  14    0.46    0.20 
   7 -10  14    0.21    0.21 
   5   9 -14    0.39    0.55 
  -5  -9  14    0.54    0.12 
   4   9 -14    0.34    0.53 
  -4  -9  14    0.44    0.13 
   3   9 -14   -0.29    0.39 
  -3  -9  14    0.17    0.14 
   2   9 -14    0.92    0.54 
  -2  -9  14    0.80    0.20 
   1   9 -14    1.88    0.63 
  -1  -9  14    1.26    0.25 
   0  -9  14    0.16    0.13 
   1  -9  14    1.29    0.24 
   2  -9  14    0.21    0.15 
   3  -9  14    0.11    0.13 
   4  -9  14    0.19    0.16 
   5  -9  14    0.24    0.18 
   6  -9  14    0.45    0.20 
   7  -9  14    0.46    0.22 
   8  -9  14    0.67    0.23 
   6   8 -14    1.40    0.71 
   5   8 -14   -0.12    0.43 
  -5  -8  14    0.31    0.13 
   4   8 -14    0.67    0.59 
  -4  -8  14    0.87    0.20 
   3   8 -14    0.20    0.55 
  -3  -8  14    0.84    0.20 
   2   8 -14    4.61    0.80 
  -2  -8  14    2.13    0.31 
   1   8 -14    6.11    0.87 
   0  -8  14    0.78    0.20 
   1  -8  14    0.39    0.18 
   2  -8  14    0.06    0.13 
   3  -8  14    0.38    0.15 
   4  -8  14    0.31    0.19 
   5  -8  14    0.39    0.21 
   6  -8  14    0.64    0.23 
   7  -8  14    0.65    0.24 
   8  -8  14    0.20    0.21 
   7   7 -14    0.69    0.66 
   6   7 -14    0.96    0.65 
   5   7 -14    0.11    0.54 
   4   7 -14   -0.47    0.40 
  -4  -7  14    0.38    0.14 
  -3  -7  14    0.81    0.20 
   2   7 -14    2.58    0.65 
  -2  -7  14    1.62    0.28 
   1   7 -14    5.30    0.84 
   0  -7  14    0.17    0.16 
   1  -7  14    0.57    0.20 
   2  -7  14    0.96    0.22 
   3  -7  14   -0.01    0.13 
   4  -7  14    0.43    0.23 
   5  -7  14    0.52    0.21 
   6  -7  14    1.14    0.27 
   7  -7  14    0.90    0.29 
   8  -7  14    0.13    0.21 
   7   6 -14    0.25    0.50 
   6   6 -14   -0.19    0.43 
   5   6 -14    1.07    0.54 
   4   6 -14   -0.05    0.42 
  -4  -6  14    0.38    0.16 
   3   6 -14   -0.07    0.40 
  -3  -6  14    0.61    0.16 
   2   6 -14    0.97    0.56 
  -2  -6  14    1.13    0.25 
   1   6 -14    1.64    0.55 
  -1  -6  14    1.15    0.23 
   0  -6  14    0.24    0.16 
   1  -6  14    0.50    0.20 
   2  -6  14    0.26    0.15 
   3  -6  14    0.42    0.15 
   4  -6  14    0.32    0.14 
   5  -6  14    1.08    0.28 
   6  -6  14    0.35    0.22 
   7  -6  14    0.61    0.28 
   8  -6  14    0.63    0.26 
   8   5 -14    0.56    0.56 
   7   5 -14    0.03    0.47 
   6   5 -14    0.26    0.42 
   5   5 -14   -0.09    0.41 
   4   5 -14    0.64    0.47 
  -4  -5  14    0.98    0.21 
   3   5 -14    1.98    0.56 
  -3  -5  14    1.42    0.25 
   2   5 -14   -0.23    0.33 
  -2  -5  14    0.21    0.15 
  -1  -5  14    0.16    0.16 
   0  -5  14    0.19    0.14 
   1  -5  14   -0.03    0.13 
   2  -5  14    0.72    0.21 
   3  -5  14    0.40    0.18 
   4  -5  14    1.66    0.28 
   5  -5  14    1.55    0.32 
   6  -5  14   -0.05    0.20 
   7  -5  14    0.30    0.21 
   8   4 -14    0.88    0.56 
   7   4 -14   -0.08    0.43 
   6   4 -14   -0.14    0.36 
   5   4 -14    0.46    0.47 
   4   4 -14    0.93    0.45 
  -4  -4  14    0.79    0.18 
   3   4 -14   -0.29    0.35 
  -3  -4  14    0.27    0.15 
   2   4 -14    0.06    0.38 
  -2  -4  14    0.38    0.15 
  -1  -4  14    0.62    0.20 
   0  -4  14    0.09    0.16 
   1  -4  14    0.61    0.18 
   2  -4  14    0.04    0.13 
   3  -4  14    0.70    0.20 
   4  -4  14    0.94    0.24 
   5  -4  14    0.98    0.28 
   6  -4  14    0.21    0.23 
   7  -4  14    0.34    0.22 
   9   3 -14   -0.08    0.48 
   8   3 -14    0.24    0.48 
   7   3 -14    0.35    0.48 
   6   3 -14   -0.24    0.35 
   5   3 -14    0.90    0.47 
   4   3 -14    0.40    0.42 
  -4  -3  14    0.45    0.16 
   3   3 -14    0.08    0.37 
  -3  -3  14    0.15    0.12 
   2   3 -14   -0.05    0.34 
  -2  -3  14    0.18    0.13 
  -1  -3  14    0.40    0.17 
   0  -3  14    0.11    0.17 
   1  -3  14    0.38    0.18 
   2  -3  14    0.34    0.17 
   3  -3  14    0.28    0.16 
   4  -3  14    0.18    0.12 
   5  -3  14    0.82    0.27 
   6  -3  14   -0.20    0.17 
  -7   3 -14    1.12    0.28 
   9   2 -14   -0.27    0.52 
   8   2 -14    0.07    0.47 
   7   2 -14    0.07    0.42 
   6   2 -14   -0.17    0.39 
   5   2 -14    1.55    0.55 
   4   2 -14    0.02    0.41 
  -4  -2  14    0.10    0.11 
   3   2 -14    0.56    0.41 
  -3  -2  14    0.32    0.14 
  -2  -2  14    0.49    0.19 
  -1  -2  14    0.20    0.17 
   0  -2  14    0.09    0.14 
   1  -2  14    0.18    0.16 
   2  -2  14    0.18    0.16 
   3  -2  14    0.14    0.13 
   4  -2  14    0.61    0.19 
  -6   2 -14    0.98    0.27 
   9   1 -14   -0.50    0.46 
   8   1 -14    0.48    0.49 
   7   1 -14    0.32    0.41 
   6   1 -14    0.74    0.45 
   5   1 -14    0.64    0.42 
   4   1 -14   -0.23    0.32 
  -4  -1  14    0.13    0.10 
   3   1 -14    0.68    0.39 
  -3  -1  14    0.95    0.20 
  -2  -1  14    2.60    0.32 
  -1  -1  14    0.21    0.14 
   0  -1  14    1.19    0.24 
   1  -1  14    0.34    0.16 
   2  -1  14    0.23    0.14 
  -4   1 -14    0.28    0.30 
  -5   1 -14    0.28    0.29 
   9   0 -14   -0.43    0.40 
   8   0 -14    0.71    0.48 
   7   0 -14    0.01    0.37 
   6   0 -14    0.99    0.44 
   5   0 -14    0.48    0.37 
   4   0 -14   -0.19    0.29 
   3   0 -14    1.37    0.42 
  -3   0  14    0.90    0.21 
  -2   0  14    0.36    0.16 
  -1   0  14    2.25    0.30 
   0   0  14    0.38    0.17 
  -2   0 -14    0.34    0.27 
  -3   0 -14    0.39    0.30 
  -4   0 -14    0.11    0.26 
  -5   0 -14    0.35    0.30 
   9  -1 -14   -0.34    0.37 
   8  -1 -14    0.15    0.42 
   7  -1 -14    0.01    0.37 
   6  -1 -14    0.19    0.36 
   5  -1 -14    0.41    0.38 
   4  -1 -14    0.06    0.33 
   2  -1 -14    0.32    0.24 
   1  -1 -14    0.79    0.30 
   0  -1 -14    0.05    0.23 
  -1  -1 -14    0.14    0.24 
  -2  -1 -14   -0.21    0.22 
  -3  -1 -14    0.66    0.31 
  -4  -1 -14    0.07    0.27 
   9  -2 -14    0.02    0.41 
   8  -2 -14    0.68    0.46 
   7  -2 -14    0.16    0.35 
   6  -2 -14    0.26    0.36 
   4  -2 -14    0.81    0.41 
   3  -2 -14   -0.27    0.18 
   2  -2 -14   -0.11    0.17 
   1  -2 -14   -0.05    0.22 
   0  -2 -14    0.36    0.26 
  -1  -2 -14    0.18    0.23 
  -2  -2 -14    0.14    0.26 
  -3  -2 -14    0.18    0.24 
   8  -3 -14    0.48    0.44 
   5  -3 -14    0.51    0.39 
   4  -3 -14    0.04    0.34 
   2  -3 -14   -0.09    0.17 
   1  -3 -14    0.18    0.22 
   0  -3 -14    0.58    0.29 
  -1  -3 -14    0.08    0.22 
   7  -4 -14    0.63    0.45 
   6  -4 -14    0.80    0.46 
   5  -4 -14    0.06    0.38 
   4  -4 -14    0.12    0.39 
   2  -4 -14    1.11    0.32 
   1  -4 -14    0.75    0.30 
   0  -4 -14    0.25    0.27 
   6  -5 -14    0.07    0.42 
   5  -5 -14    0.39    0.43 
   4  -5 -14    1.28    0.50 
   1 -12  15    0.64    0.15 
   3 -12  15    1.42    0.25 
   4 -12  15    0.66    0.19 
   1  11 -15    0.65    0.48 
  -1 -11  15    0.52    0.15 
   0 -11  15    0.62    0.17 
   1 -11  15    1.12    0.21 
   2 -11  15    0.30    0.13 
   4 -11  15    0.48    0.18 
   5 -11  15    0.11    0.16 
   3  10 -15    1.34    0.64 
  -3 -10  15    0.46    0.14 
   2  10 -15    0.99    0.54 
  -2 -10  15    0.80    0.17 
  -1 -10  15    0.32    0.12 
   0 -10  15    1.76    0.28 
   1 -10  15    0.92    0.20 
   2 -10  15    0.50    0.16 
   3 -10  15    0.63    0.17 
   4 -10  15    0.88    0.28 
   5 -10  15    0.21    0.14 
   6 -10  15    0.97    0.28 
   4   9 -15    0.90    0.59 
  -4  -9  15    0.59    0.15 
   3   9 -15    0.73    0.57 
  -3  -9  15    0.61    0.16 
   2   9 -15   -0.25    0.41 
  -2  -9  15    0.78    0.17 
  -1  -9  15    0.10    0.15 
   0  -9  15    1.23    0.23 
   1  -9  15    0.45    0.15 
   2  -9  15    0.70    0.19 
   3  -9  15    0.37    0.12 
   4  -9  15    0.39    0.19 
   5  -9  15    0.17    0.17 
   6  -9  15    0.25    0.18 
   5   8 -15    0.53    0.59 
   4   8 -15    1.22    0.62 
  -4  -8  15    1.23    0.21 
   3   8 -15    1.87    0.63 
  -3  -8  15    0.93    0.20 
   2   8 -15    0.34    0.46 
  -2  -8  15    0.58    0.15 
  -1  -8  15    0.32    0.17 
   0  -8  15    1.73    0.27 
   1  -8  15    0.07    0.13 
   2  -8  15    0.40    0.16 
   3  -8  15    0.39    0.16 
   4  -8  15    0.18    0.11 
   5  -8  15    0.26    0.20 
   6  -8  15    0.49    0.20 
   6   7 -15    0.85    0.59 
   5   7 -15   -0.24    0.51 
   4   7 -15    0.79    0.58 
  -4  -7  15    0.88    0.18 
  -3  -7  15    0.54    0.15 
   2   7 -15    0.31    0.49 
  -2  -7  15    0.66    0.19 
  -1  -7  15    1.98    0.29 
   0  -7  15    0.86    0.20 
   1  -7  15    0.48    0.16 
   2  -7  15   -0.09    0.12 
   3  -7  15    0.44    0.15 
   4  -7  15    0.38    0.16 
   5  -7  15    0.24    0.19 
   6  -7  15    0.75    0.24 
   6   6 -15   -0.10    0.43 
   5   6 -15   -0.08    0.44 
   4   6 -15    0.23    0.47 
  -4  -6  15    0.52    0.15 
   3   6 -15    0.45    0.53 
  -3  -6  15    0.73    0.18 
  -2  -6  15    0.96    0.20 
  -1  -6  15    0.94    0.23 
   0  -6  15    0.68    0.21 
   1  -6  15    0.56    0.18 
   2  -6  15    0.56    0.18 
   3  -6  15    0.96    0.22 
   4  -6  15    0.07    0.12 
   5  -6  15    0.35    0.21 
   6  -6  15    0.17    0.20 
   7   5 -15   -0.02    0.46 
   6   5 -15   -0.02    0.44 
   5   5 -15    0.40    0.49 
   4   5 -15    1.00    0.53 
  -4  -5  15    0.62    0.17 
   3   5 -15    2.35    0.58 
  -3  -5  15    1.92    0.27 
  -2  -5  15    0.09    0.15 
  -1  -5  15    1.02    0.22 
   0  -5  15    1.20    0.24 
   1  -5  15    0.45    0.17 
   2  -5  15    0.56    0.17 
   3  -5  15    0.40    0.14 
   4  -5  15   -0.16    0.11 
   5  -5  15    0.82    0.28 
   6  -5  15   -0.15    0.17 
   7   4 -15   -0.10    0.44 
   6   4 -15   -0.06    0.37 
   5   4 -15    0.12    0.39 
   4   4 -15    0.08    0.37 
  -4  -4  15    0.25    0.12 
   3   4 -15    0.88    0.47 
  -3  -4  15    1.14    0.22 
  -2  -4  15    0.22    0.14 
  -1  -4  15    1.13    0.22 
   0  -4  15    1.03    0.22 
   1  -4  15    0.16    0.11 
   2  -4  15    0.91    0.24 
   3  -4  15    0.42    0.17 
   4  -4  15   -0.04    0.11 
   5  -4  15    0.16    0.19 
   6  -4  15    0.25    0.19 
   8   3 -15    0.39    0.49 
   7   3 -15    0.26    0.44 
   6   3 -15   -0.09    0.39 
   5   3 -15   -0.05    0.38 
   4   3 -15   -0.18    0.36 
   3   3 -15    0.84    0.42 
  -3  -3  15    0.88    0.20 
  -2  -3  15    0.11    0.12 
  -1  -3  15    1.27    0.25 
   0  -3  15    1.14    0.24 
   1  -3  15    0.72    0.19 
   2  -3  15    0.75    0.21 
   3  -3  15    0.18    0.15 
   4  -3  15    0.01    0.11 
   5  -3  15    0.66    0.15 
   8   2 -15    0.17    0.47 
   7   2 -15    0.58    0.50 
   6   2 -15    0.26    0.44 
   5   2 -15    0.50    0.46 
   4   2 -15    0.36    0.44 
  -3  -2  15    0.37    0.16 
  -2  -2  15    0.08    0.12 
  -1  -2  15    1.88    0.28 
   0  -2  15    0.44    0.17 
   1  -2  15    2.07    0.33 
   2  -2  15    0.27    0.14 
   3  -2  15    0.62    0.15 
   4  -2  15    0.06    0.11 
  -5   2 -15    0.57    0.35 
   8   1 -15    0.34    0.51 
   7   1 -15    0.25    0.45 
   6   1 -15    0.06    0.45 
   5   1 -15    0.88    0.49 
   4   1 -15   -0.28    0.33 
  -3  -1  15    0.31    0.14 
  -2  -1  15    0.73    0.20 
  -1  -1  15    1.27    0.24 
   0  -1  15    0.26    0.13 
   1  -1  15    0.84    0.18 
   2  -1  15    0.16    0.12 
  -3   1 -15    0.50    0.31 
  -4   1 -15    0.46    0.32 
   8   0 -15    0.24    0.43 
   7   0 -15   -0.10    0.38 
   6   0 -15   -0.06    0.36 
   5   0 -15    0.28    0.37 
   4   0 -15   -0.20    0.33 
  -3   0  15    0.67    0.17 
  -2   0  15    0.68    0.17 
  -1   0  15    0.63    0.17 
  -1   0 -15    0.16    0.25 
  -2   0 -15    0.13    0.28 
  -3   0 -15   -0.10    0.25 
   8  -1 -15   -0.15    0.38 
   7  -1 -15   -0.20    0.36 
   6  -1 -15   -0.08    0.35 
   5  -1 -15    0.48    0.41 
   2  -1 -15    0.32    0.24 
   1  -1 -15    0.77    0.30 
   0  -1 -15   -0.19    0.18 
  -1  -1 -15    0.03    0.27 
  -2  -1 -15    0.21    0.31 
   7  -2 -15   -0.12    0.38 
   6  -2 -15    0.47    0.40 
   5  -2 -15    0.14    0.39 
   2  -2 -15    0.77    0.28 
   1  -2 -15    0.22    0.26 
   0  -2 -15    0.39    0.26 
  -1  -2 -15    0.21    0.26 
   4  -3 -15    0.23    0.42 
   2  -3 -15   -0.15    0.20 
   1  -3 -15   -0.18    0.18 
  -1 -10  16    0.46    0.14 
   0 -10  16    0.45    0.15 
   1 -10  16    0.66    0.15 
   2 -10  16    0.96    0.20 
   3 -10  16    0.60    0.15 
  -2  -9  16    0.87    0.18 
  -1  -9  16    0.16    0.10 
   0  -9  16    0.33    0.13 
   1  -9  16    0.87    0.17 
   2  -9  16    0.36    0.15 
   3  -9  16    0.37    0.13 
   4  -9  16    0.79    0.16 
   4   8 -16    0.32    0.58 
  -4  -8  16    0.70    0.13 
   3   8 -16    1.64    0.67 
  -3  -8  16    1.36    0.20 
  -2  -8  16    0.94    0.21 
  -1  -8  16    0.29    0.13 
   0  -8  16    0.70    0.15 
   1  -8  16    0.25    0.13 
   2  -8  16    0.28    0.11 
   3  -8  16   -0.02    0.10 
   4  -8  16    0.79    0.18 
   5  -8  16    1.01    0.25 
   4   7 -16   -0.14    0.47 
   3   7 -16    0.79    0.56 
  -2  -7  16    1.40    0.23 
  -1  -7  16    0.14    0.11 
   0  -7  16    0.29    0.12 
   1  -7  16    0.41    0.15 
   2  -7  16    0.35    0.14 
   3  -7  16    0.05    0.11 
   4  -7  16    0.66    0.17 
   5  -7  16    0.69    0.22 
   5   6 -16   -0.40    0.41 
   4   6 -16   -0.01    0.51 
  -3  -6  16    0.75    0.17 
  -2  -6  16    0.33    0.14 
  -1  -6  16    0.14    0.13 
   0  -6  16    0.69    0.21 
   1  -6  16    0.06    0.12 
   2  -6  16    0.32    0.13 
   3  -6  16    0.30    0.13 
   4  -6  16    0.86    0.18 
   5  -6  16    0.18    0.19 
   6   5 -16    0.13    0.48 
   5   5 -16    0.34    0.43 
   4   5 -16    0.17    0.46 
  -3  -5  16    0.60    0.15 
  -2  -5  16    0.51    0.15 
  -1  -5  16    0.20    0.14 
   0  -5  16    0.37    0.14 
   1  -5  16    0.00    0.09 
   2  -5  16    0.09    0.12 
   3  -5  16    0.47    0.15 
   4  -5  16    0.58    0.16 
   6   4 -16    0.28    0.45 
   5   4 -16    0.27    0.43 
   4   4 -16   -0.20    0.38 
  -3  -4  16    1.42    0.22 
  -2  -4  16    0.57    0.16 
  -1  -4  16    0.17    0.12 
   0  -4  16    0.36    0.16 
   1  -4  16    0.65    0.16 
   2  -4  16    0.37    0.15 
   3  -4  16    0.52    0.15 
   4  -4  16    0.58    0.14 
   6   3 -16    0.32    0.45 
   5   3 -16   -0.05    0.36 
  -3  -3  16    1.72    0.26 
  -2  -3  16    0.43    0.14 
  -1  -3  16    0.08    0.12 
   0  -3  16    1.31    0.22 
   1  -3  16    0.14    0.10 
   2  -3  16    0.45    0.14 
   3  -3  16    0.12    0.11 
   6   2 -16    0.07    0.46 
   5   2 -16    0.02    0.44 
  -3  -2  16    1.42    0.23 
  -2  -2  16    0.36    0.14 
  -1  -2  16    0.29    0.13 
   0  -2  16    0.92    0.16 
   1  -2  16    0.02    0.12 
   2  -2  16    0.90    0.19 
   3  -2  16    0.61    0.16 
   6   1 -16    0.20    0.44 
   5   1 -16    0.14    0.45 
  -2  -1  16    0.02    0.10 
  -1  -1  16    0.07    0.10 
   0  -1  16    0.00    0.09 
   1  -1  16    0.14    0.11 
  -2   1 -16    1.23    0.40 
   6   0 -16    0.37    0.40 
   1   0 -16    0.33    0.24 
   0   0 -16    1.22    0.35 
  -1   0 -16    0.36    0.28 
   2  -1 -16    0.28    0.25 
   1  -1 -16    0.44    0.26 
   0  -8  17    0.33    0.13 
   1  -8  17    0.28    0.14 
  -2  -7  17    0.66    0.15 
  -1  -7  17    0.62    0.15 
   0  -7  17    0.53    0.13 
   1  -7  17    0.40    0.14 
   2  -7  17    1.14    0.21 
  -3  -6  17    0.59    0.13 
  -2  -6  17    0.49    0.14 
  -1  -6  17    0.91    0.18 
   0  -6  17    0.28    0.13 
   1  -6  17    0.44    0.13 
   2  -6  17    0.74    0.16 
  -3  -5  17    0.35    0.12 
  -2  -5  17    0.35    0.12 
  -1  -5  17    0.63    0.16 
   0  -5  17    0.40    0.14 
   1  -5  17    0.55    0.16 
   2  -5  17    0.83    0.17 
  -2  -4  17    0.78    0.14 
  -1  -4  17    0.64    0.18 
   0  -4  17    0.26    0.13 
   1  -4  17    0.61    0.14 
  -2  -3  17    0.62    0.15 
  -1  -3  17    0.32    0.12 
   0  -3  17    0.62    0.13 
  -2  -2  17    0.30    0.11 
  -1  -2  17    0.22    0.12 
   0   0   0    0.00    0.00 
;
_shelx_hkl_checksum              67056
loop_
_space_group_symop_operation_xyz
'x, y, z'
'-x, -y, -z'
loop_
_atom_site_label
_atom_site_type_symbol
_atom_site_fract_x
_atom_site_fract_y
_atom_site_fract_z
_atom_site_U_iso_or_equiv
_atom_site_adp_type
_atom_site_occupancy
_atom_site_site_symmetry_order
_atom_site_calc_flag
_atom_site_refinement_flags_posn
_atom_site_refinement_flags_adp
S1 S 0.34725(8) 0.98197(8) 0.15502(7) 0.0408(3) Uani 1 1 d . .
N1 N 0.5064(3) 0.8509(2) 0.2383(3) 0.0434(7) Uani 1 1 d . .
N2 N 0.6093(3) 0.7339(3) 0.2666(3) 0.0517(8) Uani 1 1 d . .
N3 N 0.3827(2) 0.9716(2) 0.2738(2) 0.0338(7) Uani 1 1 d . .
O1 O 0.4097(2) 0.7431(2) 0.2524(3) 0.0686(9) Uani 1 1 d . .
O2 O 0.4666(2) 1.0474(2) 0.1299(2) 0.0519(7) Uani 1 1 d . .
O3 O 0.2513(2) 1.0292(2) 0.1642(2) 0.0551(7) Uani 1 1 d . .
C1 C 0.6198(3) 0.8310(3) 0.2448(3) 0.0418(9) Uani 1 1 d . .
C2 C 0.4790(4) 0.6766(3) 0.2825(3) 0.0524(10) Uani 1 1 d . .
H2 H 0.4804 0.6858 0.3599 0.063 Uiso 1 1 calc R U
C3 C 0.4127(3) 0.54165(19) 0.2120(2) 0.0544(10) Uani 1 1 d G .
C4 C 0.3846(4) 0.4518(3) 0.2614(2) 0.0933(18) Uani 1 1 d G .
H4 H 0.4039 0.4768 0.3376 0.112 Uiso 1 1 calc R U
C5 C 0.3277(4) 0.3246(2) 0.1970(4) 0.117(2) Uani 1 1 d G .
H5 H 0.3089 0.2645 0.2300 0.140 Uiso 1 1 calc R U
C6 C 0.2989(4) 0.2872(2) 0.0831(3) 0.112(2) Uani 1 1 d G .
H6 H 0.2608 0.2021 0.0400 0.135 Uiso 1 1 calc R U
C7 C 0.3270(4) 0.3771(3) 0.0338(2) 0.128(3) Uani 1 1 d G .
H7 H 0.3077 0.3520 -0.0424 0.153 Uiso 1 1 calc R U
C8 C 0.3839(4) 0.5043(3) 0.0982(2) 0.103(2) Uani 1 1 d G .
H8 H 0.4027 0.5644 0.0652 0.124 Uiso 1 1 calc R U
C9 C 0.7371(3) 0.9098(3) 0.2179(3) 0.0405(8) Uani 1 1 d . .
C10 C 0.7390(4) 0.9965(4) 0.1709(3) 0.0490(10) Uani 1 1 d . .
H10 H 0.6641 1.0076 0.1560 0.059 Uiso 1 1 calc R U
C11 C 0.8515(4) 1.0664(4) 0.1461(4) 0.0634(12) Uani 1 1 d . .
H11 H 0.8531 1.1250 0.1144 0.076 Uiso 1 1 calc R U
C12 C 0.9618(4) 1.0497(4) 0.1680(4) 0.0650(12) Uani 1 1 d . .
H12 H 1.0377 1.0966 0.1502 0.078 Uiso 1 1 calc R U
C13 C 0.9617(4) 0.9655(4) 0.2154(3) 0.0610(11) Uani 1 1 d . .
H13 H 1.0372 0.9553 0.2304 0.073 Uiso 1 1 calc R U
C14 C 0.8494(4) 0.8955(4) 0.2410(3) 0.0508(10) Uani 1 1 d . .
H14 H 0.8492 0.8383 0.2741 0.061 Uiso 1 1 calc R U
C15 C 0.5002(3) 0.9632(3) 0.3036(3) 0.0342(8) Uani 1 1 d . .
C16 C 0.5973(3) 1.0559(3) 0.3793(3) 0.0411(9) Uani 1 1 d . .
H16 H 0.6617 1.0359 0.4053 0.049 Uiso 1 1 calc R U
C17 C 0.6157(3) 1.1881(3) 0.4275(3) 0.0468(9) Uani 1 1 d . .
H17A H 0.6308 1.2139 0.5070 0.056 Uiso 1 1 calc R U
H17B H 0.5375 1.1955 0.4034 0.056 Uiso 1 1 calc R U
C18 C 0.7289(4) 1.2746(4) 0.3944(4) 0.0614(11) Uani 1 1 d . .
H18A H 0.8043 1.2591 0.4107 0.074 Uiso 1 1 calc R U
H18B H 0.7089 1.2539 0.3156 0.074 Uiso 1 1 calc R U
C19 C 0.7615(3) 1.4114(2) 0.4508(2) 0.0577(11) Uani 1 1 d G .
C20 C 0.7000(3) 1.4708(3) 0.4071(2) 0.0930(17) Uani 1 1 d G .
H20 H 0.6378 1.4253 0.3425 0.112 Uiso 1 1 calc R U
C21 C 0.7316(4) 1.5981(3) 0.4600(3) 0.106(2) Uani 1 1 d G .
H21 H 0.6905 1.6378 0.4308 0.127 Uiso 1 1 calc R U
C22 C 0.8247(4) 1.6660(2) 0.5566(3) 0.0901(17) Uani 1 1 d G .
H22 H 0.8458 1.7512 0.5920 0.108 Uiso 1 1 calc R U
C23 C 0.8862(3) 1.6067(3) 0.6003(3) 0.1017(19) Uani 1 1 d G .
H23 H 0.9484 1.6521 0.6649 0.122 Uiso 1 1 calc R U
C24 C 0.8546(3) 1.4794(3) 0.5474(3) 0.0922(18) Uani 1 1 d G .
H24 H 0.8957 1.4397 0.5766 0.111 Uiso 1 1 calc R U
C25 C 0.2860(3) 0.9536(3) 0.3412(3) 0.0342(8) Uani 1 1 d . .
C26 C 0.2047(3) 0.8350(3) 0.3332(3) 0.0418(9) Uani 1 1 d . .
H26 H 0.2100 0.7649 0.2835 0.050 Uiso 1 1 calc R U
C27 C 0.1144(3) 0.8208(4) 0.4003(3) 0.0473(9) Uani 1 1 d . .
H27 H 0.0588 0.7406 0.3957 0.057 Uiso 1 1 calc R U
C28 C 0.1065(4) 0.9236(4) 0.4730(3) 0.0505(10) Uani 1 1 d . .
H28 H 0.0462 0.9137 0.5182 0.061 Uiso 1 1 calc R U
C29 C 0.1879(4) 1.0417(4) 0.4792(3) 0.0497(10) Uani 1 1 d . .
H29 H 0.1826 1.1120 0.5287 0.060 Uiso 1 1 calc R U
C30 C 0.2758(3) 1.0567(3) 0.4138(3) 0.0431(9) Uani 1 1 d . .
H30 H 0.3298 1.1371 0.4178 0.052 Uiso 1 1 calc R U
C31 C 0.2774(4) 0.8292(3) 0.0569(3) 0.0492(10) Uani 1 1 d . .
C32 C 0.3526(5) 0.7833(4) -0.0052(3) 0.0669(13) Uani 1 1 d . .
H32 H 0.4408 0.8315 0.0049 0.080 Uiso 1 1 calc R U
C33 C 0.2945(7) 0.6640(5) -0.0830(4) 0.0967(19) Uani 1 1 d . .
H33 H 0.3448 0.6317 -0.1255 0.116 Uiso 1 1 calc R U
C34 C 0.1659(8) 0.5919(5) -0.0996(4) 0.113(3) Uani 1 1 d . .
C35 C 0.0934(6) 0.6394(5) -0.0379(5) 0.101(2) Uani 1 1 d . .
H35 H 0.0052 0.5907 -0.0487 0.121 Uiso 1 1 calc R U
C36 C 0.1474(4) 0.7591(4) 0.0410(4) 0.0716(14) Uani 1 1 d . .
H36 H 0.0963 0.7912 0.0826 0.086 Uiso 1 1 calc R U
C37 C 0.1052(9) 0.4614(6) -0.1864(6) 0.191(5) Uani 1 1 d . .
H37A H 0.1705 0.4436 -0.2226 0.286 Uiso 1 1 calc R U
H37B H 0.0394 0.4569 -0.2393 0.286 Uiso 1 1 calc R U
H37C H 0.0673 0.4009 -0.1524 0.286 Uiso 1 1 calc R U
loop_
_atom_site_aniso_label
_atom_site_aniso_U_11
_atom_site_aniso_U_22
_atom_site_aniso_U_33
_atom_site_aniso_U_23
_atom_site_aniso_U_13
_atom_site_aniso_U_12
S1 0.0369(5) 0.0305(5) 0.0517(6) 0.0210(4) 0.0050(4) 0.0057(4)
N1 0.0346(16) 0.0227(14) 0.064(2) 0.0088(14) 0.0084(14) 0.0075(12)
N2 0.0513(19) 0.0347(17) 0.068(2) 0.0152(16) 0.0138(16) 0.0189(15)
N3 0.0310(15) 0.0255(14) 0.0416(16) 0.0106(12) 0.0055(12) 0.0097(12)
O1 0.0459(16) 0.0229(13) 0.135(3) 0.0269(16) 0.0302(17) 0.0111(12)
O2 0.0495(15) 0.0408(15) 0.0609(16) 0.0259(13) 0.0129(13) 0.0076(12)
O3 0.0456(15) 0.0551(17) 0.0769(19) 0.0385(15) 0.0080(13) 0.0227(13)
C1 0.042(2) 0.0255(18) 0.048(2) 0.0036(16) 0.0045(16) 0.0120(15)
C2 0.059(3) 0.030(2) 0.067(3) 0.0154(19) 0.021(2) 0.0176(18)
C3 0.065(3) 0.0275(19) 0.071(3) 0.0184(19) 0.029(2) 0.0172(18)
C4 0.123(4) 0.037(3) 0.107(4) 0.030(3) 0.032(3) 0.014(3)
C5 0.156(6) 0.037(3) 0.148(6) 0.039(4) 0.061(5) 0.021(3)
C6 0.137(5) 0.033(3) 0.137(6) 0.006(3) 0.069(5) 0.016(3)
C7 0.187(7) 0.055(4) 0.082(4) -0.008(3) 0.034(4) 0.013(4)
C8 0.167(6) 0.045(3) 0.076(4) 0.022(3) 0.027(4) 0.020(3)
C9 0.039(2) 0.0311(18) 0.042(2) 0.0035(16) 0.0076(16) 0.0123(16)
C10 0.039(2) 0.049(2) 0.056(2) 0.0173(19) 0.0090(17) 0.0171(18)
C11 0.058(3) 0.057(3) 0.074(3) 0.034(2) 0.012(2) 0.014(2)
C12 0.042(2) 0.073(3) 0.066(3) 0.026(2) 0.013(2) 0.009(2)
C13 0.040(2) 0.075(3) 0.063(3) 0.017(2) 0.009(2) 0.026(2)
C14 0.048(2) 0.050(2) 0.051(2) 0.0123(19) 0.0100(18) 0.0221(19)
C15 0.0363(19) 0.0235(16) 0.0399(18) 0.0085(15) 0.0074(15) 0.0115(14)
C16 0.0364(19) 0.0318(18) 0.051(2) 0.0116(16) 0.0022(16) 0.0134(16)
C17 0.042(2) 0.0275(18) 0.055(2) -0.0001(17) 0.0020(17) 0.0113(16)
C18 0.067(3) 0.035(2) 0.073(3) 0.012(2) 0.012(2) 0.018(2)
C19 0.058(3) 0.034(2) 0.073(3) 0.015(2) 0.017(2) 0.0131(19)
C20 0.125(5) 0.055(3) 0.091(4) 0.020(3) -0.004(3) 0.038(3)
C21 0.150(6) 0.049(3) 0.118(5) 0.027(3) 0.004(4) 0.047(4)
C22 0.108(4) 0.035(3) 0.113(5) 0.021(3) 0.030(4) 0.017(3)
C23 0.093(4) 0.046(3) 0.120(5) -0.005(3) -0.014(3) 0.013(3)
C24 0.083(4) 0.045(3) 0.117(4) 0.003(3) -0.021(3) 0.020(3)
C25 0.0338(18) 0.0317(18) 0.0372(18) 0.0120(15) 0.0033(14) 0.0144(15)
C26 0.042(2) 0.0296(18) 0.050(2) 0.0110(16) 0.0080(17) 0.0140(16)
C27 0.037(2) 0.041(2) 0.060(2) 0.0235(19) 0.0086(18) 0.0083(17)
C28 0.040(2) 0.061(3) 0.053(2) 0.021(2) 0.0107(18) 0.023(2)
C29 0.046(2) 0.045(2) 0.056(2) 0.0099(19) 0.0118(19) 0.0230(19)
C30 0.040(2) 0.0344(19) 0.054(2) 0.0128(17) 0.0099(18) 0.0167(16)
C31 0.055(2) 0.040(2) 0.039(2) 0.0167(17) 0.0022(18) 0.0044(18)
C32 0.083(3) 0.050(3) 0.051(2) 0.014(2) 0.015(2) 0.014(2)
C33 0.139(5) 0.062(3) 0.054(3) 0.004(3) 0.023(3) 0.018(4)
C34 0.156(6) 0.057(3) 0.052(3) 0.004(3) 0.015(4) -0.021(4)
C35 0.098(4) 0.074(4) 0.063(3) 0.023(3) -0.002(3) -0.031(3)
C36 0.064(3) 0.061(3) 0.059(3) 0.024(2) 0.000(2) -0.006(2)
C37 0.262(10) 0.069(5) 0.101(5) -0.016(4) 0.024(6) -0.041(5)
loop_
_atom_type_symbol
_atom_type_description
_atom_type_scat_dispersion_real
_atom_type_scat_dispersion_imag
_atom_type_scat_source
C C 0.0033 0.0016 'International Tables Vol C Tables 4.2.6.8 and 6.1.1.4'
H H 0.0000 0.0000 'International Tables Vol C Tables 4.2.6.8 and 6.1.1.4'
N N 0.0061 0.0033 'International Tables Vol C Tables 4.2.6.8 and 6.1.1.4'
O O 0.0106 0.0060 'International Tables Vol C Tables 4.2.6.8 and 6.1.1.4'
S S 0.1246 0.1234 'International Tables Vol C Tables 4.2.6.8 and 6.1.1.4'
loop_
_geom_angle_atom_site_label_1
_geom_angle_atom_site_label_2
_geom_angle_atom_site_label_3
_geom_angle
O3 S1 O2 120.93(16)
O3 S1 N3 106.11(15)
O2 S1 N3 106.04(14)
O3 S1 C31 107.63(19)
O2 S1 C31 107.80(18)
N3 S1 C31 107.71(15)
C1 N1 C15 122.6(3)
C1 N1 O1 104.4(2)
C15 N1 O1 111.0(3)
C1 N2 C2 107.4(3)
C15 N3 C25 120.1(3)
C15 N3 S1 120.1(2)
C25 N3 S1 119.2(2)
N1 O1 C2 105.7(3)
N2 C1 N1 115.0(3)
N2 C1 C9 123.0(3)
N1 C1 C9 121.7(3)
N2 C2 O1 106.5(3)
N2 C2 C3 112.2(3)
O1 C2 C3 108.7(3)
N2 C2 H2 109.8
O1 C2 H2 109.8
C3 C2 H2 109.8
C4 C3 C8 120.0
C4 C3 C2 118.8(2)
C8 C3 C2 121.1(2)
C3 C4 C5 120.0
C3 C4 H4 120.0
C5 C4 H4 120.0
C4 C5 C6 120.0
C4 C5 H5 120.0
C6 C5 H5 120.0
C7 C6 C5 120.0
C7 C6 H6 120.0
C5 C6 H6 120.0
C8 C7 C6 120.0
C8 C7 H7 120.0
C6 C7 H7 120.0
C7 C8 C3 120.0
C7 C8 H8 120.0
C3 C8 H8 120.0
C10 C9 C14 119.5(3)
C10 C9 C1 122.6(3)
C14 C9 C1 117.9(3)
C11 C10 C9 119.9(4)
C11 C10 H10 120.1
C9 C10 H10 120.1
C10 C11 C12 119.9(4)
C10 C11 H11 120.0
C12 C11 H11 120.0
C13 C12 C11 120.8(4)
C13 C12 H12 119.6
C11 C12 H12 119.6
C12 C13 C14 119.6(4)
C12 C13 H13 120.2
C14 C13 H13 120.2
C13 C14 C9 120.2(4)
C13 C14 H14 119.9
C9 C14 H14 119.9
C16 C15 N1 123.5(3)
C16 C15 N3 122.6(3)
N1 C15 N3 113.7(3)
C15 C16 C17 127.2(3)
C15 C16 H16 116.4
C17 C16 H16 116.4
C16 C17 C18 111.6(3)
C16 C17 H17A 109.3
C18 C17 H17A 109.3
C16 C17 H17B 109.3
C18 C17 H17B 109.3
H17A C17 H17B 108.0
C19 C18 C17 114.0(3)
C19 C18 H18A 108.8
C17 C18 H18A 108.8
C19 C18 H18B 108.8
C17 C18 H18B 108.8
H18A C18 H18B 107.6
C20 C19 C24 120.0
C20 C19 C18 120.6(3)
C24 C19 C18 119.4(3)
C19 C20 C21 120.0
C19 C20 H20 120.0
C21 C20 H20 120.0
C22 C21 C20 120.0
C22 C21 H21 120.0
C20 C21 H21 120.0
C23 C22 C21 120.0
C23 C22 H22 120.0
C21 C22 H22 120.0
C22 C23 C24 120.0
C22 C23 H23 120.0
C24 C23 H23 120.0
C23 C24 C19 120.0
C23 C24 H24 120.0
C19 C24 H24 120.0
C26 C25 C30 120.0(3)
C26 C25 N3 120.4(3)
C30 C25 N3 119.6(3)
C25 C26 C27 119.1(3)
C25 C26 H26 120.5
C27 C26 H26 120.5
C28 C27 C26 120.4(3)
C28 C27 H27 119.8
C26 C27 H27 119.8
C27 C28 C29 119.7(4)
C27 C28 H28 120.1
C29 C28 H28 120.1
C30 C29 C28 120.4(4)
C30 C29 H29 119.8
C28 C29 H29 119.8
C29 C30 C25 120.4(3)
C29 C30 H30 119.8
C25 C30 H30 119.8
C36 C31 C32 120.9(4)
C36 C31 S1 119.4(4)
C32 C31 S1 119.7(3)
C31 C32 C33 118.3(5)
C31 C32 H32 120.9
C33 C32 H32 120.9
C34 C33 C32 122.0(6)
C34 C33 H33 119.0
C32 C33 H33 119.0
C35 C34 C33 118.7(5)
C35 C34 C37 120.8(7)
C33 C34 C37 120.5(7)
C34 C35 C36 121.4(5)
C34 C35 H35 119.3
C36 C35 H35 119.3
C31 C36 C35 118.7(5)
C31 C36 H36 120.6
C35 C36 H36 120.6
C34 C37 H37A 109.5
C34 C37 H37B 109.5
H37A C37 H37B 109.5
C34 C37 H37C 109.5
H37A C37 H37C 109.5
H37B C37 H37C 109.5
loop_
_geom_bond_atom_site_label_1
_geom_bond_atom_site_label_2
_geom_bond_distance
S1 O3 1.409(3)
S1 O2 1.412(3)
S1 N3 1.633(3)
S1 C31 1.752(4)
N1 C1 1.401(4)
N1 C15 1.410(4)
N1 O1 1.442(4)
N2 C1 1.272(4)
N2 C2 1.442(5)
N3 C15 1.417(4)
N3 C25 1.445(4)
O1 C2 1.443(5)
C1 C9 1.463(5)
C2 C3 1.483(4)
C2 H2 0.9800
C3 C4 1.3900
C3 C8 1.3900
C4 C5 1.3900
C4 H4 0.9300
C5 C6 1.3900
C5 H5 0.9300
C6 C7 1.3900
C6 H6 0.9300
C7 C8 1.3900
C7 H7 0.9300
C8 H8 0.9300
C9 C10 1.377(5)
C9 C14 1.380(5)
C10 C11 1.370(5)
C10 H10 0.9300
C11 C12 1.371(6)
C11 H11 0.9300
C12 C13 1.357(6)
C12 H12 0.9300
C13 C14 1.374(5)
C13 H13 0.9300
C14 H14 0.9300
C15 C16 1.313(4)
C16 C17 1.475(5)
C16 H16 0.9300
C17 C18 1.515(5)
C17 H17A 0.9700
C17 H17B 0.9700
C18 C19 1.496(4)
C18 H18A 0.9700
C18 H18B 0.9700
C19 C20 1.3900
C19 C24 1.3900
C20 C21 1.3900
C20 H20 0.9300
C21 C22 1.3900
C21 H21 0.9300
C22 C23 1.3900
C22 H22 0.9300
C23 C24 1.3900
C23 H23 0.9300
C24 H24 0.9300
C25 C26 1.368(5)
C25 C30 1.376(5)
C26 C27 1.386(5)
C26 H26 0.9300
C27 C28 1.363(5)
C27 H27 0.9300
C28 C29 1.371(5)
C28 H28 0.9300
C29 C30 1.351(5)
C29 H29 0.9300
C30 H30 0.9300
C31 C36 1.367(6)
C31 C32 1.367(6)
C32 C33 1.374(6)
C32 H32 0.9300
C33 C34 1.358(8)
C33 H33 0.9300
C34 C35 1.348(9)
C34 C37 1.511(8)
C35 C36 1.382(7)
C35 H35 0.9300
C36 H36 0.9300
C37 H37A 0.9600
C37 H37B 0.9600
C37 H37C 0.9600
loop_
_geom_hbond_atom_site_label_D
_geom_hbond_atom_site_label_H
_geom_hbond_atom_site_label_A
_geom_hbond_distance_DH
_geom_hbond_distance_HA
_geom_hbond_distance_DA
_geom_hbond_angle_DHA
_geom_hbond_site_symmetry_A
C26 H26 O1 0.93 2.43 3.058(5) 125.1 .
C32 H32 O2 0.93 2.66 3.239(5) 121.0 2_675
C26 H26 O1 0.93 2.43 3.058(5) 125.1 .
C26 H26 O1 0.93 2.43 3.058(5) 125.1 .
C32 H32 O2 0.93 2.66 3.239(5) 121.0 2_675
C26 H26 O1 0.93 2.43 3.058(5) 125.1 .
loop_
_geom_torsion_atom_site_label_1
_geom_torsion_atom_site_label_2
_geom_torsion_atom_site_label_3
_geom_torsion_atom_site_label_4
_geom_torsion
O3 S1 N3 C15 -161.3(2)
O2 S1 N3 C15 -31.5(3)
C31 S1 N3 C15 83.6(3)
O3 S1 N3 C25 27.1(3)
O2 S1 N3 C25 156.9(2)
C31 S1 N3 C25 -87.9(3)
C1 N1 O1 C2 8.2(4)
C15 N1 O1 C2 -125.7(3)
C2 N2 C1 N1 -2.4(4)
C2 N2 C1 C9 -176.7(3)
C15 N1 C1 N2 123.3(4)
O1 N1 C1 N2 -3.8(4)
C15 N1 C1 C9 -62.4(5)
O1 N1 C1 C9 170.5(3)
C1 N2 C2 O1 7.7(4)
C1 N2 C2 C3 126.5(3)
N1 O1 C2 N2 -9.8(4)
N1 O1 C2 C3 -130.9(3)
N2 C2 C3 C4 111.5(3)
O1 C2 C3 C4 -130.9(3)
N2 C2 C3 C8 -65.6(4)
O1 C2 C3 C8 52.0(4)
C8 C3 C4 C5 0.0
C2 C3 C4 C5 -177.2(3)
C3 C4 C5 C6 0.0
C4 C5 C6 C7 0.0
C5 C6 C7 C8 0.0
C6 C7 C8 C3 0.0
C4 C3 C8 C7 0.0
C2 C3 C8 C7 177.1(3)
N2 C1 C9 C10 165.0(4)
N1 C1 C9 C10 -8.8(5)
N2 C1 C9 C14 -15.0(5)
N1 C1 C9 C14 171.1(3)
C14 C9 C10 C11 1.0(6)
C1 C9 C10 C11 -179.1(4)
C9 C10 C11 C12 0.0(6)
C10 C11 C12 C13 -0.8(7)
C11 C12 C13 C14 0.4(7)
C12 C13 C14 C9 0.6(6)
C10 C9 C14 C13 -1.3(6)
C1 C9 C14 C13 178.7(3)
C1 N1 C15 C16 -3.3(5)
O1 N1 C15 C16 120.9(4)
C1 N1 C15 N3 171.7(3)
O1 N1 C15 N3 -64.2(3)
C25 N3 C15 C16 -79.9(4)
S1 N3 C15 C16 108.6(3)
C25 N3 C15 N1 105.1(3)
S1 N3 C15 N1 -66.4(3)
N1 C15 C16 C17 160.1(3)
N3 C15 C16 C17 -14.4(6)
C15 C16 C17 C18 -112.1(4)
C16 C17 C18 C19 -173.6(3)
C17 C18 C19 C20 -87.3(4)
C17 C18 C19 C24 93.0(4)
C24 C19 C20 C21 0.0
C18 C19 C20 C21 -179.7(3)
C19 C20 C21 C22 0.0
C20 C21 C22 C23 0.0
C21 C22 C23 C24 0.0
C22 C23 C24 C19 0.0
C20 C19 C24 C23 0.0
C18 C19 C24 C23 179.7(3)
C15 N3 C25 C26 -79.6(4)
S1 N3 C25 C26 91.9(3)
C15 N3 C25 C30 100.4(4)
S1 N3 C25 C30 -88.0(3)
C30 C25 C26 C27 -1.2(5)
N3 C25 C26 C27 178.9(3)
C25 C26 C27 C28 0.2(5)
C26 C27 C28 C29 0.4(6)
C27 C28 C29 C30 -0.1(6)
C28 C29 C30 C25 -0.9(6)
C26 C25 C30 C29 1.5(5)
N3 C25 C30 C29 -178.5(3)
O3 S1 C31 C36 -28.2(4)
O2 S1 C31 C36 -160.2(3)
N3 S1 C31 C36 85.8(3)
O3 S1 C31 C32 149.7(3)
O2 S1 C31 C32 17.8(4)
N3 S1 C31 C32 -96.3(3)
C36 C31 C32 C33 -0.9(6)
S1 C31 C32 C33 -178.8(4)
C31 C32 C33 C34 0.2(8)
C32 C33 C34 C35 0.2(9)
C32 C33 C34 C37 179.6(6)
C33 C34 C35 C36 0.0(9)
C37 C34 C35 C36 -179.4(6)
C32 C31 C36 C35 1.1(6)
S1 C31 C36 C35 179.0(4)
C34 C35 C36 C31 -0.7(8)
