#------------------------------------------------------------------------------
#$Date: 2017-07-25 05:20:35 +0300 (Tue, 25 Jul 2017) $
#$Revision: 198990 $
#$URL: file:///home/coder/svn-repositories/cod/cif/1/54/66/1546600.cif $
#------------------------------------------------------------------------------
#
# This file is available in the Crystallography Open Database (COD),
# http://www.crystallography.net/
#
# All data on this site have been placed in the public domain by the
# contributors.
#
data_1546600
loop_
_publ_author_name
'Fu, Liangbing'
'Davies, Huw M. L.'
_publ_section_title
;
 Scope of the Reactions of Indolyl- and Pyrrolyl-Tethered
 N-Sulfonyl-1,2,3-triazoles: Rhodium(II)-Catalyzed Synthesis of Indole-
 and Pyrrole-Fused Polycyclic Compounds.
;
_journal_name_full               'Organic letters'
_journal_paper_doi               10.1021/acs.orglett.7b00180
_journal_year                    2017
_chemical_formula_moiety         'C23 H27 N3 O4 S2'
_chemical_formula_sum            'C23 H27 N3 O4 S2'
_chemical_formula_weight         473.59
_space_group_crystal_system      monoclinic
_space_group_IT_number           4
_space_group_name_Hall           'P 2yb'
_space_group_name_H-M_alt        'P 1 21 1'
_symmetry_space_group_name_Hall  'P 2yb'
_symmetry_space_group_name_H-M   'P 1 21 1'
_atom_sites_solution_hydrogens   mixed
_atom_sites_solution_primary     direct
_audit_creation_date             2015-03-23
_audit_creation_method
;
Olex2 1.2-dev
(compiled 2015.02.26 svn.r3159 for OlexSys, GUI svn.r5018)
;
_cell_angle_alpha                90
_cell_angle_beta                 92.183(2)
_cell_angle_gamma                90
_cell_formula_units_Z            2
_cell_length_a                   8.4373(3)
_cell_length_b                   6.1045(2)
_cell_length_c                   22.2510(8)
_cell_measurement_reflns_used    7231
_cell_measurement_temperature    173(2)
_cell_measurement_theta_max      67.122
_cell_measurement_theta_min      3.977
_cell_volume                     1145.22(7)
_computing_cell_refinement       'SAINT v8.34A (Bruker, 2013)'
_computing_data_collection       'APEX2 v2011.2-4 (Bruker, 2011)'
_computing_data_reduction        'SAINT v8.34A (Bruker, 2013)'
_computing_molecular_graphics    'Olex2 (Dolomanov et al., 2009)'
_computing_publication_material  'Olex2 (Dolomanov et al., 2009)'
_computing_structure_refinement  'SHELXL-97 (Sheldrick, 2008)'
_computing_structure_solution    'SHELXS-97 (Sheldrick, 2008)'
_diffrn_ambient_temperature      173(2)
_diffrn_detector_area_resol_mean 512
_diffrn_measured_fraction_theta_full 0.927
_diffrn_measured_fraction_theta_max 0.927
_diffrn_measurement_device_type  'Bruker APEX-II CCD'
_diffrn_measurement_method       '\f and \w scans'
_diffrn_radiation_monochromator  graphite
_diffrn_radiation_type           CuK\a
_diffrn_radiation_wavelength     1.54178
_diffrn_reflns_av_R_equivalents  0.0367
_diffrn_reflns_av_unetI/netI     0.0460
_diffrn_reflns_Laue_measured_fraction_full 0.927
_diffrn_reflns_Laue_measured_fraction_max 0.927
_diffrn_reflns_limit_h_max       9
_diffrn_reflns_limit_h_min       -9
_diffrn_reflns_limit_k_max       6
_diffrn_reflns_limit_k_min       -6
_diffrn_reflns_limit_l_max       23
_diffrn_reflns_limit_l_min       -26
_diffrn_reflns_number            7517
_diffrn_reflns_point_group_measured_fraction_full 0.820
_diffrn_reflns_point_group_measured_fraction_max 0.820
_diffrn_reflns_theta_full        64.982
_diffrn_reflns_theta_max         64.982
_diffrn_reflns_theta_min         3.976
_diffrn_source                   'sealed tube'
_diffrn_standards_number         0
_exptl_absorpt_coefficient_mu    2.403
_exptl_absorpt_correction_T_max  0.7529
_exptl_absorpt_correction_T_min  0.4533
_exptl_absorpt_correction_type   multi-scan
_exptl_absorpt_process_details
;
SADABS-2014/5 (Bruker,2014/5) was used for absorption correction.
wR2(int) was 0.1207 before and 0.0609 after correction.
The Ratio of minimum to maximum transmission is 0.6021.
The \l/2 correction factor is Not present.
;
_exptl_crystal_colour            colourless
_exptl_crystal_colour_primary    colourless
_exptl_crystal_density_diffrn    1.373
_exptl_crystal_description       prism
_exptl_crystal_F_000             500
_exptl_crystal_recrystallization_method
'The material was recrystallised from a mixture of hexane and diethyl ether by slow evaporation'
_exptl_crystal_size_max          0.752
_exptl_crystal_size_mid          0.353
_exptl_crystal_size_min          0.136
_refine_diff_density_max         0.350
_refine_diff_density_min         -0.255
_refine_diff_density_rms         0.052
_refine_ls_abs_structure_details
;
 Flack x determined using 1137 quotients [(I+)-(I-)]/[(I+)+(I-)]
 (Parsons, Flack and Wagner, Acta Cryst. B69 (2013) 249-259).
;
_refine_ls_abs_structure_Flack   0.048(10)
_refine_ls_extinction_method     none
_refine_ls_goodness_of_fit_ref   1.020
_refine_ls_hydrogen_treatment    mixed
_refine_ls_matrix_type           full
_refine_ls_number_parameters     322
_refine_ls_number_reflns         3195
_refine_ls_number_restraints     64
_refine_ls_restrained_S_all      1.095
_refine_ls_R_factor_all          0.0385
_refine_ls_R_factor_gt           0.0378
_refine_ls_shift/su_max          0.001
_refine_ls_shift/su_mean         0.000
_refine_ls_structure_factor_coef Fsqd
_refine_ls_weighting_details
'w=1/[\s^2^(Fo^2^)+(0.0558P)^2^+0.5372P] where P=(Fo^2^+2Fc^2^)/3'
_refine_ls_weighting_scheme      calc
_refine_ls_wR_factor_gt          0.0987
_refine_ls_wR_factor_ref         0.0994
_reflns_Friedel_coverage         0.602
_reflns_Friedel_fraction_full    0.688
_reflns_Friedel_fraction_max     0.688
_reflns_number_gt                3117
_reflns_number_total             3195
_reflns_threshold_expression     'I > 2\s(I)'
_cod_data_source_file            ol7b00180_si_002.cif
_cod_data_source_block           lfu-x-22
_cod_database_code               1546600
_shelx_space_group_comment
;
The symmetry employed for this shelxl refinement is uniquely defined
by the following loop, which should always be used as a source of
symmetry information in preference to the above space-group names.
They are only intended as comments.
;
_shelx_estimated_absorpt_t_max   0.736
_shelx_estimated_absorpt_t_min   0.265
_olex2_refinement_description
;
1. Fixed Uiso
 At 1.2 times of:
  All C(H) groups
 At 1.5 times of:
  All C(H,H,H) groups
2. Shared sites
{C1A, C1B}
{C4B, C4A}
3. Restrained distances
 C23-H23B
 0.99 with sigma of 0.02
 C4B-C1B
 1.52 with sigma of 0.005
 C4B-C1B
 1.52 with sigma of 0.005
 C4A-C1A
 1.52 with sigma of 0.005
 C8-H8A \\sim C8-H8B \\sim C7-H7A \\sim C7-H7B \\sim C9-H9A \\sim C9-H9B
 with sigma of 0.004
 C17-H17 \\sim C21-H21 \\sim C20-H20 \\sim C18-H18 \\sim C6-H6
 with sigma of 0.004
 C23-H23B \\sim C23-H23A \\sim C23-H23C
 with sigma of 0.004
 C4B-C3B \\sim C4A-C3A
 with sigma of 0.002
 N2B-C1B \\sim N2A-C1A
 with sigma of 0.002
4. Uiso/Uaniso restraints and constraints
: with sigma of 0.005 and sigma for terminal atoms of 0.01
: with sigma of 0.005 and sigma for terminal atoms of 0.01
: with sigma of 0.005 and sigma for terminal atoms of 0.01
: with sigma of 0.005 and sigma for terminal atoms of 0.01
Uiso(H8A) = Uiso(H7A) = Uiso(H7B) = Uiso(H9A) = Uiso(H8B) = Uiso(H9B)
Uiso(H18) = Uiso(H17) = Uiso(H21) = Uiso(H20) = Uiso(H6)
Uiso(H23B) = Uiso(H23A) = Uiso(H23C)
Uiso(C2A) = Uiso(C2B)
Uiso(C3A) = Uiso(C3B)
Uiso(C13A) = Uiso(C13B)
Uiso(C12A) = Uiso(C12B)
Uiso(C11A) = Uiso(C11B)
Uiso(C10A) = Uiso(C10B)
Uiso(C15A) = Uiso(C15B)
Uiso(C14A) = Uiso(C14B)
Uiso(N2A) = Uiso(N2B)
Uanis(C1A) = Uanis(C1B)
Uanis(C4A) = Uanis(C4B)
Uiso(C2B) = Uiso(C2A)
Uanis(C1A) = Uanis(C1B)
Uanis(C4B) = Uanis(C4A)
5. Rigid body (RIGU) restrains
 C2A, C3A
 with sigma for 1-2 distances of 0.002 and sigma for 1-3 distances of 0.002
 C3A, C13A
 with sigma for 1-2 distances of 0.002 and sigma for 1-3 distances of 0.002
 C12A, C13A
 with sigma for 1-2 distances of 0.002 and sigma for 1-3 distances of 0.002
 C12A, C11A
 with sigma for 1-2 distances of 0.002 and sigma for 1-3 distances of 0.002
 C11A, C10A, C2A
 with sigma for 1-2 distances of 0.002 and sigma for 1-3 distances of 0.002
6. Same fragment restrains
{C14B, N2B, C2B, C3B, C4B, C1B, C10B, C11B, C15B, C12B, C13B} sigma for 1-2:
0.006, 1-3: 0.009
as
{C14A, N2A, C2A, C3A, C4A, C1A, C10A, C11A, C15A, C12A, C13A}
7. Others
 Sof(C14B)=Sof(H14D)=Sof(H14E)=Sof(H14F)=Sof(N2B)=Sof(C2B)=Sof(C3B)=Sof(C4B)=
 Sof(C1B)=Sof(H1B)=Sof(C10B)=Sof(H10B)=Sof(C11B)=Sof(C15B)=Sof(H15D)=Sof(H15E)=
 Sof(H15F)=Sof(C12B)=Sof(H12B)=Sof(C13B)=Sof(H13B)=1-FVAR(1)
 Sof(C14A)=Sof(H14A)=Sof(H14B)=Sof(H14C)=Sof(N2A)=Sof(C2A)=Sof(C3A)=Sof(C4A)=
 Sof(C1A)=Sof(H1A)=Sof(C10A)=Sof(H10A)=Sof(C11A)=Sof(C15A)=Sof(H15A)=Sof(H15B)=
 Sof(H15C)=Sof(C12A)=Sof(H12A)=Sof(C13A)=Sof(H13A)=FVAR(1)
8.a Ternary CH refined with riding coordinates:
 C1A(H1A), C1B(H1B)
8.b Aromatic/amide H refined with riding coordinates:
 C10A(H10A), C12A(H12A), C13A(H13A), C10B(H10B), C12B(H12B), C13B(H13B)
8.c Idealised Me refined as rotating group:
 C14A(H14A,H14B,H14C), C15A(H15A,H15B,H15C), C14B(H14D,H14E,H14F), C15B(H15D,
 H15E,H15F), C22(H22A,H22B,H22C)
;
_shelx_res_file
;
    lfu-x-22.res created by SHELXL-2014/7

TITL lfu-x-22_a.res in P2(1)
REM Old TITL LFU-X-22 in P21 #4
REM SHELXT solution in P2(1)
REM R1 0.101, Rweak 0.041, Alpha 0.003, Orientation as input
REM Flack x = 0.088 ( 0.010 ) from Parsons' quotients
REM Formula found by SHELXT: C23 N3 O4 S2
rem SADI 0.002 N2A C1B N2B C1B
rem SADI 0.002 N2A C14A N2B C14B
rem SADI 0.002 N2A C2A N2B C2B
rem SADI 0.002 C9 C4A C9 C4B
rem SADI 0.002 C5 C4B C5 C4A
rem SAME 0.002 0.002 C14B > C13B
CELL 1.54178 8.4373 6.1045 22.251 90 92.183 90
ZERR 2 0.0003 0.0002 0.0008 0 0.002 0
LATT -1
SYMM -X,0.5+Y,-Z
SFAC C H N O S
UNIT 46 54 6 8 4
DFIX 0.99 C23 H23b
DFIX 1.52 0.005 C4B C1B
DFIX 1.52 0.005 C4B C1B
DFIX 1.52 0.005 C4A C1A
SADI 0.004 C8 H8a C8 H8b C7 H7a C7 H7b C9 H9a C9 H9b
SADI 0.004 C17 H17 C21 H21 C20 H20 C18 H18 C6 H6
SADI 0.004 C23 H23b C23 H23a C23 H23c
SADI 0.002 C4B C3B C4A C3A
SADI 0.002 N2B C1B N2A C1A
RIGU 0.002 0.002 C2A C3A
RIGU 0.002 0.002 C3A C13A
RIGU 0.002 0.002 C12A C13A
RIGU 0.002 0.002 C12A C11A
RIGU 0.002 0.002 C11A C10A C2A
ISOR 0.005 0.01 C3B
ISOR 0.005 0.01 C2B
ISOR 0.005 0.01 C10B
ISOR 0.005 0.01 C11A
EADP H8a H7a H7b H9a H8b H9b
EADP H18 H17 H21 H20 H6
EADP H23b H23a H23c
EADP C2A C2B
EADP C3A C3B
EADP C13A C13B
EADP C12A C12B
EADP C11A C11B
EADP C10A C10B
EADP C15A C15B
EADP C14A C14B
EADP N2A N2B
EADP C1A C1B
EADP C4A C4B
EADP C2B C2A
EADP C1A C1B
EADP C4B C4A
EXYZ C1A C1B
EXYZ C4B C4A

L.S. 20 0 0
PLAN  20
SIZE 0.136 0.353 0.752
TEMP 23
BOND $H
LIST 6
MORE -1
CONF
fmap 2 53
acta
SHEL 20 0.85
OMIT 5 0 0
OMIT -5 3 1
OMIT -7 -1 3
OMIT -8 0 2
OMIT 7 0 1
REM <olex2.extras>
REM <HklSrc "%.\\sad.hkl">
REM </olex2.extras>

SAME 0.006 0.009 C14B > C13B
WGHT    0.055800    0.537200
FVAR       0.66183   0.55366
PART 1
C14A  1    0.378031    0.207503    0.559745    21.00000    0.03918
AFIX 137
H14A  2    0.422751    0.063230    0.563151    21.00000   -1.50000
H14B  2    0.419241    0.280131    0.525404    21.00000   -1.50000
H14C  2    0.264723    0.196858    0.555013    21.00000   -1.50000
AFIX   0
N2A   3    0.419090    0.330919    0.613238    21.00000    0.03308
C2A   1    0.344922    0.292136    0.667715    21.00000    0.03138
C3A   1    0.411855    0.421832    0.713431    21.00000    0.02781
C4A   1    0.553331    0.539278    0.686733    21.00000    0.02448    0.02747 =
         0.02963    0.00533    0.00424   -0.00025
C1A   1    0.562687    0.454351    0.622312    21.00000    0.02767    0.02545 =
         0.03091    0.00166    0.00040    0.00139
AFIX  13
H1A   2    0.572362    0.572663    0.592909    21.00000   -1.20000
AFIX   0
C10A  1    0.223560    0.145775    0.679623    21.00000    0.02981
AFIX  43
H10A  2    0.176143    0.063385    0.648719    21.00000   -1.20000
AFIX   0
C11A  1    0.173913    0.124025    0.738269    21.00000    0.02878
C15A  1    0.056126   -0.054120    0.752059    21.00000    0.04406
AFIX 137
H15A  2   -0.010172   -0.082894    0.716925    21.00000   -1.50000
H15B  2   -0.008379   -0.007361    0.784285    21.00000   -1.50000
H15C  2    0.112169   -0.185175    0.763719    21.00000   -1.50000
AFIX   0
C12A  1    0.235962    0.260576    0.783447    21.00000    0.02748
AFIX  43
H12A  2    0.196447    0.253363    0.821848    21.00000   -1.20000
AFIX   0
C13A  1    0.357447    0.408641    0.771425    21.00000    0.02909
AFIX  43
H13A  2    0.401071    0.496886    0.801847    21.00000   -1.20000
AFIX   0
PART 0
PART 2
C14B  1    0.386559    0.251952    0.546441   -21.00000    0.03918
AFIX 137
H14D  2    0.446618    0.118494    0.545588   -21.00000   -1.50000
H14E  2    0.418715    0.346837    0.514729   -21.00000   -1.50000
H14F  2    0.275669    0.219197    0.540942   -21.00000   -1.50000
AFIX   0
N2B   3    0.414537    0.358809    0.603466   -21.00000    0.03308
C2B   1    0.344302    0.290744    0.656002   -21.00000    0.03138
C3B   1    0.407532    0.408139    0.705460   -21.00000    0.02781
C4B   1    0.553331    0.539278    0.686733   -21.00000    0.02448    0.02747 =
         0.02963    0.00533    0.00424   -0.00025
C1B   1    0.562687    0.454351    0.622312   -21.00000    0.02767    0.02545 =
         0.03091    0.00166    0.00040    0.00139
AFIX  13
H1B   2    0.584524    0.578055    0.595803   -21.00000   -1.20000
AFIX   0
C10B  1    0.230515    0.128436    0.660200   -21.00000    0.02981
AFIX  43
H10B  2    0.195802    0.048936    0.626559   -21.00000   -1.20000
AFIX   0
C11B  1    0.170108    0.088478    0.716248   -21.00000    0.02878
C15B  1    0.058264   -0.101089    0.724836   -21.00000    0.04406
AFIX 137
H15D  2   -0.008488   -0.119108    0.689271   -21.00000   -1.50000
H15E  2   -0.006224   -0.072124    0.758563   -21.00000   -1.50000
H15F  2    0.118393   -0.232561    0.732135   -21.00000   -1.50000
AFIX   0
C12B  1    0.222711    0.212050    0.765688   -21.00000    0.02748
AFIX  43
H12B  2    0.179114    0.187373    0.802850   -21.00000   -1.20000
AFIX   0
C13B  1    0.339927    0.372740    0.760601   -21.00000    0.02909
AFIX  43
H13B  2    0.372354    0.455348    0.793968   -21.00000   -1.20000
AFIX   0
PART 0
N1    3    0.707174    0.303827    0.625136    11.00000    0.03128    0.02528 =
         0.02942    0.00081    0.00360    0.00306
S2    5    0.728615    0.846847    0.860057    11.00000    0.04294    0.02674 =
         0.03107   -0.00305    0.00220   -0.00209
S1    5    0.822639    0.277794    0.567283    11.00000    0.04077    0.03260 =
         0.02761   -0.00021    0.00812    0.00909
O1    4    0.916512    0.085296    0.577713    11.00000    0.04603    0.03926 =
         0.03920   -0.00327    0.01008    0.01560
O4    4    0.713879    1.078754    0.859930    11.00000    0.06431    0.02407 =
         0.04194   -0.00522    0.00604   -0.00660
O3    4    0.870688    0.747263    0.883443    11.00000    0.03992    0.04516 =
         0.03646   -0.00382   -0.00146   -0.00064
O2    4    0.722385    0.289021    0.514541    11.00000    0.06466    0.05576 =
         0.02993    0.00035    0.00332    0.01479
N3    3    0.703641    0.763949    0.789736    11.00000    0.03408    0.02377 =
         0.03121    0.00079    0.00516    0.00424
C16   1    0.565641    0.736160    0.897840    11.00000    0.04437    0.02448 =
         0.02312   -0.00204    0.00262    0.00313
C5    1    0.704366    0.462710    0.718060    11.00000    0.02653    0.01729 =
         0.02847    0.00561    0.00626    0.00138
C6    1    0.785913    0.335903    0.682683    11.00000    0.02785    0.02457 =
         0.03034    0.00616    0.00176   -0.00126
C8    1    0.562251    0.858315    0.758146    11.00000    0.04107    0.02388 =
         0.03629   -0.00103    0.00272    0.00779
C18   1    0.442318    0.437440    0.946604    11.00000    0.05628    0.03145 =
         0.02772    0.00406    0.00449    0.00220
C9    1    0.548263    0.788652    0.692699    11.00000    0.03946    0.02754 =
         0.02984    0.00479    0.00282    0.00516
C17   1    0.577392    0.531881    0.923032    11.00000    0.04448    0.03371 =
         0.02474   -0.00317    0.00162    0.00527
C21   1    0.421542    0.849644    0.895793    11.00000    0.05804    0.02967 =
         0.02970    0.00002    0.00387    0.01015
C7    1    0.738130    0.526421    0.781926    11.00000    0.02897    0.02535 =
         0.03110    0.00285    0.00136   -0.00014
C19   1    0.297217    0.542878    0.943949    11.00000    0.04451    0.05294 =
         0.02921    0.00508    0.00519   -0.00105
C20   1    0.289120    0.753491    0.918851    11.00000    0.04656    0.05064 =
         0.03286    0.00598    0.00708    0.01822
C22   1    0.150689    0.437595    0.967906    11.00000    0.05406    0.07511 =
         0.06131    0.02255    0.01065    0.00268
AFIX 137  0.9900
H22A  2    0.168974    0.278402    0.973108    11.00000   -1.50000
H22B  2    0.059886    0.461468    0.939151    11.00000   -1.50000
H22C  2    0.127045    0.503820    1.007181    11.00000   -1.50000
AFIX   0
C23   1    0.951530    0.504223    0.569269    11.00000    0.06181    0.04093 =
         0.04765    0.00529    0.02288   -0.00138
H8A   2    0.464574    0.814813    0.776858    11.00000    0.03955
H7A   2    0.850118    0.512094    0.793685    11.00000    0.03955
H7B   2    0.668288    0.434253    0.804965    11.00000    0.03955
H9A   2    0.444583    0.840731    0.678123    11.00000    0.03955
H8B   2    0.566196    1.017272    0.761935    11.00000    0.03955
H9B   2    0.637373    0.856082    0.673145    11.00000    0.03955
H6    2    0.885053    0.282257    0.690162    11.00000    0.03883
H18   2    0.440864    0.299523    0.961842    11.00000    0.03883
H17   2    0.674603    0.468497    0.921996    11.00000    0.03883
H21   2    0.424558    0.985283    0.879192    11.00000    0.03883
H20   2    0.189562    0.809522    0.915047    11.00000    0.03883
H23A  2    1.017232    0.469866    0.535974    11.00000    0.05675
H23B  2    1.020473    0.500485    0.604917    11.00000    0.05675
H23C  2    0.899007    0.644295    0.571294    11.00000    0.05675
HKLF 4

REM  lfu-x-22_a.res in P2(1)
REM R1 =  0.0378 for    3117 Fo > 4sig(Fo)  and  0.0385 for all    3195 data
REM    322 parameters refined using     64 restraints

END

WGHT      0.0554      0.5165

REM Highest difference peak  0.350,  deepest hole -0.255,  1-sigma level  0.052
Q1    1   0.7076  0.2849  0.5583  11.00000  0.05    0.35
Q2    1   0.8426  0.8624  0.8640  11.00000  0.05    0.34
Q3    1   0.8186  0.2864  0.5191  11.00000  0.05    0.33
Q4    1   0.9443  0.2687  0.5719  11.00000  0.05    0.30
Q5    1   0.3765  0.3436  0.6906  11.00000  0.05    0.30
Q6    1   0.3627  0.2860  0.6332  11.00000  0.05    0.28
Q7    1   0.7262  0.8312  0.8188  11.00000  0.05    0.27
Q8    1   0.8136  0.2950  0.6198  11.00000  0.05    0.25
Q9    1   0.6172  0.8370  0.8606  11.00000  0.05    0.21
Q10   1   0.6298  0.5316  0.7014  11.00000  0.05    0.21
Q11   1   0.7017  0.8202  0.7780  11.00000  0.05    0.19
Q12   1   0.6304  0.7744  0.8801  11.00000  0.05    0.19
Q13   1   0.4204  0.4307  0.7368  11.00000  0.05    0.19
Q14   1   0.7565  0.7567  0.7819  11.00000  0.05    0.19
Q15   1   0.1434  0.3444  1.0043  11.00000  0.05    0.19
Q16   1   0.5973  0.2945  0.6187  11.00000  0.05    0.18
Q17   1   0.3558  0.2387  0.7824  11.00000  0.05    0.17
Q18   1   0.0636 -0.0110  0.7846  11.00000  0.05    0.17
Q19   1   0.6528  0.4609  0.6262  11.00000  0.05    0.17
Q20   1   0.9397  0.7500  0.8769  11.00000  0.05    0.17
;
_shelx_res_checksum              53933
_shelx_hkl_file
;
   1   0   0 2772.50 132.995   9
  -1   0   0 2229.02 131.149   9
   1   0   0 2716.74 133.980   5
   2   0   0 2340.18 111.768   5
  -2   0   0 1882.85 110.095   2
   2   0   0 2291.69 112.360   9
  -3   0   0 0.64132 0.66169   2
   3   0   0 1.45177 1.35845   9
   3   0   0 1.42413 1.80356   5
  -4   0   0 64.7132 4.63723   2
   4   0   0 68.8991 7.19868   5
   5   0   0 137.820 12.7400   5
  -6   0   0 315.553 18.1730   2
  -6   0   0 296.394 17.2636   6
  -6   0   0 339.904 16.9156  10
  -7   0   0 478.582 26.1683   4
  -7   0   0 518.573 26.2103  10
  -7   0   0 522.690 27.3078   6
  -8   0   0 214.475 12.2803   6
  -8   0   0 202.926 10.9982  10
  -8   0   0 194.275 10.9574   4
  -9   0   0 27.9502 3.26011   6
  -9   0   0 29.2497 2.23726  10
   0   1   0 1.92485 1.11679   9
   1  -1   0 362.603 19.1070   9
  -1  -1   0 332.785 20.2587   5
  -1  -1   0 350.200 17.6637   2
   1  -1   0 344.715 19.4119   5
   1   1   0 335.335 19.6800   9
   1   1   0 317.162 20.7407   5
   1   1   0 347.465 20.1069   9
   2  -1   0 1004.58 52.5985   5
  -2  -1   0 1006.80 51.3317   2
   2  -1   0 999.489 52.1145   9
   2   1   0 1007.61 55.4441   5
   2   1   0 958.649 53.7155   9
  -2   1   0 963.182 51.0512   2
   2   1   0 1080.14 54.2973   9
   3  -1   0 547.112 27.3013   5
  -3  -1   0 430.691 25.5342   2
   3   1   0 488.972 28.4563   9
   3   1   0 475.741 30.2417   5
   4  -1   0 268.647 19.1671   5
  -4  -1   0 309.516 17.2356   2
  -4   1   0 288.846 17.0492   7
   4   1   0 352.404 23.5074   5
  -4   1   0 353.394 17.7481   2
  -5  -1   0 100.485 6.86896   2
  -6  -1   0 64.9811 4.85997   6
  -6  -1   0 80.7110 5.97110   2
  -6  -1   0 71.6100 4.21249  10
  -6   1   0 76.9828 5.34218   6
  -7  -1   0 140.912 8.21410  10
  -7  -1   0 147.900 8.30424   4
  -7  -1   0 146.377 9.19687   6
  -7   1   0 171.104 9.76084   6
  -8  -1   0 9.68991 1.49913   4
  -8  -1   0 10.0049 2.43231   6
  -8  -1   0 10.8183 1.49430  10
  -9  -1   0 55.6256 3.47908  10
  -9  -1   0 53.8145 3.44797   4
  -9  -1   0 56.3039 4.39669   6
   0   2   0 3312.48 172.500   9
   1  -2   0 790.590 45.6883   5
  -1  -2   0 824.823 47.0657   5
  -1  -2   0 858.953 41.4784   2
   1   2   0 763.622 46.1503   9
  -2  -2   0 1274.47 62.9448   2
   2  -2   0 1215.81 66.6952   5
   2   2   0 1195.61 68.0517   9
   3  -2   0 149.140 11.0289   5
  -3  -2   0 144.872 8.39909   2
  -3   2   0 133.083 8.56534   7
   3   2   0 136.312 12.5433   9
   4  -2   0 2.23724 2.28215   5
  -4  -2   0 1.89756 1.08430   2
  -4   2   0 5.75993 1.77539   7
  -5  -2   0 11.5711 2.21961   2
  -5  -2   0 11.3572 1.43456   8
   5  -2   0 9.40337 3.59702   5
  -5   2   0 16.3942 2.52506   7
   5   2   0 14.5085 1.49668   8
  -5   2   0 16.9586 2.04837   1
  -6  -2   0 55.5557 3.70550   4
   6  -2   0 61.3962 5.28052   7
  -6  -2   0 58.8062 4.31413   6
  -6  -2   0 59.4334 3.89774   8
  -6   2   0 57.4399 4.60371   1
   6   2   0 61.5938 3.94813   8
  -7  -2   0 71.0190 4.82443   8
  -7  -2   0 79.8509 5.51598   6
  -7  -2   0 81.2179 4.72153   4
  -7  -2   0 77.8829 4.60862  10
   7   2   0 79.6486 4.93015   8
  -8  -2   0 6.08757 1.21423  10
  -8  -2   0 5.73576 1.30447   4
  -8  -2   0 5.10982 2.10789   6
  -9  -2   0 8.47429 1.98341   6
  -9  -2   0 11.6488 1.30140  10
  -9  -2   0 13.3232 1.40804   4
   1  -3   0 25.3833 5.57425   5
  -1   3   0 23.9293 2.59347   7
   2  -3   0 423.482 28.6502   5
  -2   3   0 425.393 23.2172   7
   3  -3   0 93.9805 10.4742   5
  -3   3   0 122.755 7.73309   7
  -4  -3   0 348.591 17.9182   8
  -4  -3   0 373.875 19.2328   2
   4  -3   0 334.836 25.7001   5
  -4   3   0 308.516 18.5990   1
   4   3   0 325.482 17.8779   8
   4   3   0 329.711 17.7781   3
  -4   3   0 361.203 19.7083   7
  -5  -3   0 159.815 10.0802   2
  -5  -3   0 148.733 8.97483   6
  -5  -3   0 152.668 8.65692   8
   5   3   0 158.233 8.72016   8
  -5   3   0 161.703 10.4124   7
   5   3   0 153.373 8.52121   3
  -5   3   0 144.559 9.43829   1
  -6  -3   0 85.6061 5.24339   8
  -6  -3   0 81.6014 4.85200   4
  -6  -3   0 81.5138 5.54465   6
   6  -3   0 79.2670 6.49253   7
  -6   3   0 83.3638 6.08028   1
   6   3   0 83.3669 5.23446   8
  -6   3   0 82.6178 6.58388   7
  -7  -3   0 34.9447 2.48954   4
  -7  -3   0 37.0613 2.83430   8
  -7  -3   0 29.5028 3.12649   6
  -7  -3   0 32.1767 2.37859  10
   7   3   0 31.6734 2.82793   8
  -7   3   0 34.5196 3.53190   1
  -8  -3   0 40.8424 2.68616  10
  -8  -3   0 42.8755 2.79485   4
  -8  -3   0 40.5554 3.48298   6
   8   3   0 37.5264 2.99500   8
  -9  -3   0 7.73864 1.05616   4
   1   4   0 10.5417 1.26569   3
   2  -4   0 242.010 23.8222   5
   2   4   0 285.958 14.4607   8
  -2   4   0 287.367 15.9520   7
  -2   4   0 247.991 15.1966   1
   2   4   0 283.790 14.3483   3
  -3   4   0 16.0682 2.80800   7
   3   4   0 10.5932 1.51394   8
   3   4   0 10.0727 1.28988   3
  -3   4   0 9.09619 2.03874   1
   4   4   0 49.3005 3.29617   3
  -4   4   0 50.4085 4.89455   7
   4   4   0 46.6103 3.50388   8
  -4   4   0 44.1634 4.17217   1
  -5  -4   0 38.8190 3.25549   6
   5   4   0 33.9767 3.06623   8
  -5   4   0 42.7102 4.43913   7
   5   4   0 30.4604 2.72859   3
  -5   4   0 37.6877 3.91381   1
  -6  -4   0 41.8589 3.40898   6
   6  -4   0 34.8594 4.06526   7
   6   4   0 36.2982 2.75295   3
   6   4   0 40.2037 3.20522   8
  -6   4   0 37.3780 4.20365   7
  -6   4   0 38.4910 3.94293   1
  -7  -4   0 42.1072 3.35356   6
   7   4   0 38.1531 3.01511   8
  -7   4   0 35.2103 3.52581   1
   0   5   0 -0.0774 0.75581   3
   1   5   0 312.151 16.5568   3
   2   5   0 1.68801 0.93062   3
  -2   5   0 1.69435 1.35795   1
   3   5   0 147.909 7.99527   3
  -3   5   0 132.340 9.55322   7
   3   5   0 149.011 8.31268   8
  -3   5   0 129.604 9.12364   1
   4  -5   0 65.3059 5.73501   7
  -4   5   0 73.6835 5.96980   7
   4   5   0 59.1598 4.15441   3
  -4   5   0 64.4724 5.40691   1
   4   5   0 58.7122 4.45593   8
  -5   5   0 4.84623 2.13640   1
   5   5   0 4.48780 1.71019   8
   5   5   0 5.64561 1.31055   3
  -6   5   0 6.64204 1.98439   1
   6   5   0 5.20128 1.14798   3
   6   5   0 5.15153 1.51681   8
   0   6   0 42.2014 3.75154   3
   1   6   0 22.2193 2.20905   3
   2   6   0 20.9306 2.14076   3
   3   6   0 18.8075 1.97549   3
   4   6   0 44.7920 3.07558   3
  -4   6   0 42.9447 3.99942   1
  -9   0   1 2.81909 1.36620   6
  -9   0   1 3.75000 1.20753  10
  -8   0   1 203.355 10.7011   4
  -8   0   1 194.096 11.8598   6
  -8   0   1 195.296 10.6910  10
  -7   0   1 252.688 13.8176  10
  -7   0   1 264.503 13.8418   4
  -7   0   1 266.243 14.9187   6
  -6   0   1 898.933 47.5470   2
  -6   0   1 924.080 46.1582  10
  -6   0   1 871.206 46.6280   6
   5   0  -1 8.81620 3.99443   5
  -5   0   1 8.03708 1.66983   2
  -4   0   1 153.342 9.57423   2
   4   0  -1 177.611 10.9877   9
   4   0  -1 162.466 12.9982   5
   3   0  -1 141.893 10.6538   9
  -3   0   1 154.606 8.90312   2
   3   0  -1 178.197 11.8973   5
   2   0  -1 165.988 10.8487   5
   2   0  -1 155.182 9.89650   9
  -2   0   1 140.501 8.36812   2
  -1   0   1 300.765 16.8189   9
   1   0  -1 344.363 17.1352   9
   1   0  -1 285.181 17.6537   5
   0   0   1 141.442 8.08430   9
   0   0  -1 143.673 7.99241   9
   1   0   1 2337.61 119.389   9
   2   0   1 40.0187 2.88195   9
   2   0   1 44.7161 3.54199   5
  -2   0  -1 37.9903 2.71352   2
   2   0   1 45.4160 3.07945   9
  -3   0  -1 351.735 19.1870   2
   3   0   1 371.752 20.8536   5
  -4   0  -1 9.85188 1.61847   2
  -5   0  -1 986.954 51.6196   2
  -6   0  -1 430.578 23.3488   2
  -6   0  -1 406.551 22.0815  10
  -6   0  -1 413.635 22.3932   6
  -7   0  -1 111.110 6.29532   4
  -7   0  -1 109.755 6.28667  10
  -7   0  -1 111.809 7.36591   6
  -8   0  -1 4.53147 1.47011   4
  -8   0  -1 1.33187 1.31638   6
  -8   0  -1 1.87989 0.80528  10
  -9   0  -1 16.8841 1.69862  10
  -9   0  -1 15.1628 2.60534   6
  -9  -1   1 28.3447 3.19058   6
  -9  -1   1 32.8042 2.35066  10
  -9  -1   1 31.6155 2.30917   4
  -8  -1   1 15.3440 1.78368  10
  -8  -1   1 17.5296 1.81828   4
  -8  -1   1 18.3370 2.70887   6
  -8   1   1 19.0111 3.05363   6
  -7  -1   1 124.481 8.07673   6
  -7  -1   1 126.279 7.17400   4
  -7  -1   1 129.745 7.13775  10
  -7   1   1 132.680 8.45576   6
  -7   1   1 129.219 7.20550  10
  -6  -1   1 39.3355 3.27236   6
  -6  -1   1 40.6656 3.95987   2
  -6  -1   1 41.2505 2.56000  10
  -6   1   1 36.2987 3.50553   6
  -6   1   1 34.7475 2.63750  10
  -5  -1   1 319.919 17.6039   2
   5   1  -1 298.363 24.1811   5
   4  -1  -1 87.1598 9.20807   5
  -4  -1   1 115.263 6.89690   2
   4   1  -1 113.288 11.6056   5
  -4   1   1 115.291 6.62122   2
  -4   1   1 103.061 6.60219   7
   3  -1  -1 324.453 19.2092   9
   3  -1  -1 389.101 21.3912   5
  -3  -1   1 342.742 18.6760   2
   3   1  -1 337.751 23.3802   5
   3   1  -1 348.748 21.5726   9
   2  -1  -1 85.2022 6.31171   5
  -2  -1   1 75.4514 4.85129   2
   2  -1  -1 78.9764 5.87510   9
   2   1  -1 83.8954 8.17442   5
   2   1  -1 91.2973 7.43274   9
  -2   1   1 82.5891 4.70852   2
   1  -1  -1 1540.07 85.1225   5
  -1  -1   1 1639.92 83.2411   2
  -1  -1   1 1663.53 86.0346   9
   1  -1  -1 1672.99 84.9537   9
   1   1  -1 1690.30 85.8820   9
   0  -1  -1 271.052 15.4049   9
   0   1   1 260.060 15.2704   9
   0   1  -1 251.993 15.3908   9
  -1  -1  -1 3186.27 175.761   2
  -1  -1  -1 3772.09 181.240   5
   1   1   1 3586.35 178.063   9
  -1   1  -1 3358.74 177.238   9
  -2  -1  -1 2654.75 138.486   2
   2   1   1 2916.51 141.488   9
   2   1   1 2769.94 141.039   9
  -2   1  -1 2580.44 138.198   2
   3  -1   1 587.782 28.6027   5
  -3  -1  -1 504.630 27.8972   2
   3   1   1 551.488 30.8309   9
  -3   1  -1 480.683 27.6203   2
  -4  -1  -1 80.8010 5.19012   2
  -4   1  -1 67.3286 4.93813   7
  -5  -1  -1 203.161 12.1712   2
  -6  -1  -1 229.180 12.9757   6
  -6  -1  -1 221.496 12.5813   8
  -6  -1  -1 248.699 14.1975   2
  -7  -1  -1 242.319 12.8633  10
  -7  -1  -1 248.798 13.8895   6
  -7  -1  -1 236.059 12.9131   4
  -8  -1  -1 48.4769 3.35915   4
  -8  -1  -1 51.6898 3.34478  10
  -8  -1  -1 54.0421 4.44196   6
  -9  -1  -1 11.1949 1.47228  10
  -9  -1  -1 11.9469 2.32124   6
  -9  -1  -1 11.1222 1.44781   4
  -9  -2   1 6.09164 1.09202  10
  -9  -2   1 4.36522 1.10422   4
  -9  -2   1 4.32496 1.68428   6
  -8  -2   1 62.3564 3.83239  10
  -8  -2   1 59.9710 3.84066   4
  -8  -2   1 61.6205 4.79061   6
  -7  -2   1 25.9734 2.30786   8
  -7  -2   1 22.6718 2.00549  10
  -7  -2   1 22.2721 2.79612   6
  -7  -2   1 26.6518 2.13424   4
  -7   2   1 30.5661 3.21784   1
   7   2  -1 26.1519 2.32475   8
  -6  -2   1 156.986 8.45157   8
   6  -2  -1 148.873 9.71651   7
  -6  -2   1 155.081 8.48527   4
  -6  -2   1 161.202 8.92969   6
  -6   2   1 130.989 10.7890   7
  -6   2   1 141.540 9.15767   1
   6   2  -1 146.237 8.38449   8
  -5  -2   1 108.242 6.29240   8
   5  -2  -1 89.4794 10.5016   5
  -5  -2   1 132.475 7.87448   2
   5   2  -1 111.658 6.30368   8
  -5   2   1 122.778 7.72698   7
  -5   2   1 104.140 6.94885   1
   4  -2  -1 21.6246 4.37909   5
  -4  -2   1 22.1171 2.56325   2
  -4   2   1 21.6744 2.66239   7
  -3  -2   1 982.737 48.7964   2
   3  -2  -1 1012.40 52.3165   5
   3   2  -1 908.025 54.1609   9
  -3   2   1 856.111 48.7747   7
  -2  -2   1 1160.85 59.1497   2
   2  -2  -1 1100.72 62.7815   5
   2  -2  -1 1132.70 62.1927   9
   2   2  -1 1224.07 64.7973   9
   1  -2  -1 678.500 36.9069   9
   1  -2  -1 620.724 37.2581   5
  -1  -2   1 659.862 33.0999   2
  -1  -2   1 624.879 38.5007   5
   1   2  -1 638.117 37.8462   9
   0  -2   1 311.163 21.2346   5
   0   2  -1 332.082 21.0452   9
  -1  -2  -1 92.7632 5.23881   2
   1  -2   1 90.7731 8.61714   5
  -2  -2  -1 97.4745 5.94296   2
   2   2   1 103.866 9.97153   9
  -3  -2  -1 532.415 29.1798   2
   3  -2   1 513.223 31.7612   5
  -3   2  -1 565.615 29.5805   7
   3   2   1 608.313 35.0102   9
  -4  -2  -1 44.0245 3.78136   2
   4  -2   1 43.5107 5.18207   5
  -4   2  -1 47.3543 4.12799   7
  -5  -2  -1 41.3756 3.08300   8
  -5  -2  -1 50.7841 4.35851   2
  -5   2  -1 51.8246 4.44062   7
  -5   2  -1 45.0691 3.69313   1
  -6  -2  -1 33.3745 2.41670   4
  -6  -2  -1 29.8512 3.00658   6
  -6  -2  -1 36.8660 2.69614   8
  -6   2  -1 35.4637 3.33624   1
   6   2   1 33.6860 2.71393   8
  -7  -2  -1 26.2217 2.17498  10
  -7  -2  -1 29.4748 2.34547   4
  -7  -2  -1 27.0204 2.97132   6
  -7  -2  -1 33.0603 2.55656   8
   7   2   1 30.1838 2.58552   8
  -8  -2  -1 -0.2444 0.66231  10
  -8  -2  -1 0.23751 1.06682   6
  -8  -2  -1 0.18453 0.65792   4
  -9  -2  -1 26.6549 2.80170   6
  -9  -2  -1 31.8049 2.22358   4
  -9  -2  -1 28.6492 2.09916  10
  -9  -3   1 13.3988 1.30313   4
  -8  -3   1 30.6166 3.06982   6
  -8  -3   1 33.3779 2.33152  10
  -8  -3   1 37.9412 2.42701   4
   8   3  -1 30.5882 2.54324   8
  -8   3   1 28.7447 3.12799   1
  -7  -3   1 111.570 5.84837  10
  -7  -3   1 105.296 5.86946   4
  -7  -3   1 106.623 6.69375   6
   7   3  -1 97.0938 6.22289   8
  -7   3   1 91.6783 6.96809   1
   6  -3  -1 45.9319 4.72367   7
  -6  -3   1 43.8147 3.78015   6
  -6  -3   1 46.0110 3.15825   4
  -6  -3   1 41.9003 3.03013  10
  -6  -3   1 50.1886 3.55704   8
   6   3  -1 56.6392 3.68096   8
  -6   3   1 54.7730 4.51066   1
  -6   3   1 54.2621 4.95053   7
  -5  -3   1 29.3203 2.83697   6
  -5  -3   1 29.0523 3.49831   2
  -5   3   1 39.6274 3.50956   1
  -5   3   1 40.9294 4.08659   7
  -4  -3   1 72.8832 6.02066   2
  -4  -3   1 80.4035 4.93433   8
   4   3  -1 74.1794 4.88922   8
   4   3  -1 83.6324 4.83840   3
  -4   3   1 101.862 6.01329   1
   3  -3  -1 484.778 31.2603   5
  -3  -3   1 492.208 25.6299   8
  -3   3   1 467.218 26.2778   7
   2  -3  -1 112.016 11.4651   5
  -2   3   1 101.761 6.91290   7
   1  -3  -1 993.669 56.8410   5
  -1   3   1 929.012 49.8790   7
   1  -3   1 55.0782 7.97149   5
  -1   3  -1 48.5092 4.02586   7
   2  -3   1 25.3244 5.52489   5
  -2   3  -1 39.0864 3.41894   7
   3  -3   1 377.208 26.1903   5
  -3   3  -1 394.272 21.7505   7
  -4  -3  -1 267.852 13.9425   8
   4  -3   1 270.574 25.2810   5
  -4  -3  -1 269.045 13.8284   3
  -4  -3  -1 284.968 15.1994   2
  -4   3  -1 248.764 15.4817   7
  -4   3  -1 231.974 14.5642   1
   4   3   1 257.586 13.9326   8
   4   3   1 257.793 13.8330   3
  -5  -3  -1 78.5091 4.71386   3
  -5  -3  -1 73.9716 5.97055   2
  -5  -3  -1 79.7541 4.90664   8
  -5  -3  -1 80.5000 5.25860   6
  -5   3  -1 77.3629 6.37572   7
  -5   3  -1 73.7177 5.56623   1
   5   3   1 77.9135 4.74367   3
   5   3   1 80.4862 4.92262   8
  -6  -3  -1 112.848 6.55159   8
  -6  -3  -1 106.846 6.17551   4
  -6  -3  -1 101.629 6.84422   6
   6   3   1 107.816 6.56819   8
  -6   3  -1 112.039 8.15184   7
  -6   3  -1 111.580 7.41879   1
  -7  -3  -1 97.8486 6.08137   8
  -7  -3  -1 103.797 5.72416  10
  -7  -3  -1 99.7959 6.55332   6
  -7  -3  -1 106.782 5.82352   4
  -7   3  -1 91.4820 6.77440   1
   7   3   1 102.613 6.20393   8
  -8  -3  -1 10.8481 2.07784   6
  -8  -3  -1 11.6679 1.30543  10
  -8  -3  -1 11.6787 1.41500   4
   8   3   1 9.30915 1.53104   8
  -9  -3  -1 8.30118 1.06874   4
  -7  -4   1 16.7942 2.18836   6
  -7   4   1 16.8505 2.61669   1
   7   4  -1 17.0392 2.05620   8
   6  -4  -1 59.1899 5.25074   7
  -6  -4   1 69.6841 4.72827   6
  -6   4   1 52.7756 5.20397   7
  -6   4   1 56.0858 4.99549   1
   6   4  -1 60.5433 4.20781   8
   5  -4  -1 59.8484 5.42923   7
   5   4  -1 53.8230 3.88138   8
  -5   4   1 50.2125 5.08556   7
  -5   4   1 53.6203 4.82145   1
   5   4  -1 51.6261 3.54399   3
   4   4  -1 120.862 6.85593   8
  -4   4   1 114.415 8.38879   7
   4   4  -1 113.303 6.59850   3
  -4   4   1 110.341 7.75362   1
   3   4  -1 79.8167 4.67106   8
  -3   4   1 66.3746 5.34583   1
   3   4  -1 74.3496 4.45744   3
  -3   4   1 73.2607 5.94283   7
   2  -4  -1 37.6888 8.04954   5
  -2   4   1 35.9221 3.44795   1
   2   4  -1 38.8124 2.76178   8
  -2   4   1 40.7691 3.87406   7
   2   4  -1 38.6528 2.63265   3
   1   4  -1 151.104 8.24262   3
   0   4  -1 104.509 5.95719   3
   1   4   1 506.025 26.4868   3
  -1   4  -1 518.865 27.9924   7
  -2   4  -1 36.4391 3.35039   1
   2   4   1 38.1931 2.58830   3
  -2   4  -1 36.8797 3.81286   7
   2   4   1 32.4798 3.13687   8
  -3  -4  -1 226.262 12.7028   8
   3   4   1 253.027 12.8580   8
   3   4   1 237.659 12.6777   3
  -3   4  -1 219.578 13.5953   1
  -3   4  -1 241.631 14.5262   7
  -4  -4  -1 46.4612 3.35684   8
  -4  -4  -1 49.3168 4.17941   6
   4   4   1 44.9627 3.22168   3
  -4   4  -1 44.4054 4.72924   7
  -4   4  -1 45.5535 4.23583   1
   4   4   1 47.1071 3.45014   8
  -5  -4  -1 126.339 7.52913   8
  -5  -4  -1 129.314 7.85260   6
   5   4   1 130.539 7.61873   8
  -5   4  -1 125.529 9.24452   7
   5   4   1 121.214 7.32543   3
  -5   4  -1 131.475 8.53826   1
   6  -4   1 11.9307 2.87953   7
  -6  -4  -1 13.7571 2.13421   6
  -6   4  -1 14.5837 2.60879   1
  -6   4  -1 13.3775 2.86126   7
   6   4   1 14.8709 1.73715   3
   6   4   1 14.2582 2.11594   8
  -7  -4  -1 24.3876 2.61934   6
  -7  -4  -1 25.0873 1.92536  10
  -7   4  -1 24.8480 2.89998   1
   7   4   1 26.1618 2.41226   8
   6   5  -1 5.23626 1.10793   3
   6   5  -1 5.59974 1.54973   8
  -6   5   1 5.94247 2.05416   1
   5   5  -1 15.8560 2.20658   8
  -5   5   1 15.4673 2.70944   1
   5   5  -1 15.1271 1.74502   3
   4  -5  -1 92.5887 7.14983   7
  -4   5   1 94.5991 6.96419   1
   4   5  -1 95.8806 5.61378   3
  -4   5   1 85.7582 7.05019   7
   4   5  -1 95.0034 5.94572   8
   3  -5  -1 145.990 10.6225   7
   3   5  -1 177.913 9.10839   3
  -3   5   1 153.379 10.2889   1
  -3   5   1 162.529 10.9443   7
   3   5  -1 167.747 9.32081   8
   2   5  -1 1.11929 0.81361   3
   1   5  -1 128.297 7.28710   3
   0   5   1 122.763 7.02863   3
   0   5  -1 122.870 7.00273   3
   1   5   1 21.6983 2.02726   3
  -2   5  -1 180.788 11.7820   1
   2   5   1 210.994 10.8211   3
   3   5   1 76.8459 4.57699   3
  -3   5  -1 65.4270 5.52157   1
  -3   5  -1 68.7150 6.10365   7
  -4   5  -1 154.346 10.2130   1
  -4   5  -1 153.548 10.8712   7
   4   5   1 167.244 9.40425   8
   4   5   1 166.503 9.07519   3
   5   5   1 0.42321 0.76413   3
  -5   5  -1 1.13871 1.43497   1
   5   5   1 0.17775 0.95377   8
   6   5   1 9.37416 1.71968   8
   6   5   1 9.08640 1.39422   3
  -6   5  -1 11.5883 2.19964   1
  -4   6   1 6.38916 1.99196   1
   3   6  -1 24.9066 2.21971   3
   2   6  -1 64.4724 4.19480   3
   1   6  -1 31.2191 2.57848   3
   0   6  -1 169.904 9.51093   3
   1   6   1 12.9279 1.83250   3
   2   6   1 48.5724 3.46162   3
  -3   6  -1 6.82399 2.00926   1
   3   6   1 6.15777 1.48774   3
   4   6   1 11.9494 1.58838   3
  -4   6  -1 12.8042 2.29667   1
  -9   0   2 0.05676 1.08115   6
  -9   0   2 1.41365 0.78563  10
  -8   0   2 42.5580 2.79954   4
  -8   0   2 34.8310 2.67610  10
  -8   0   2 34.8410 3.71966   6
  -7   0   2 143.636 8.13628   4
  -7   0   2 153.261 9.26590   6
  -7   0   2 148.764 8.17829  10
   5   0  -2 1.60608 2.37773   5
  -5   0   2 1.48152 0.96942   2
   4   0  -2 15.0562 4.13664   5
   4   0  -2 13.0370 2.91696   9
  -4   0   2 13.4414 1.82890   2
   3   0  -2 453.737 26.1359   5
   3   0  -2 368.011 24.3887   9
  -3   0   2 416.028 21.8078   2
   2   0  -2 119.045 9.59385   5
   2   0  -2 113.498 8.40571   9
  -2   0   2 106.263 6.34845   2
  -1   0   2 609.787 31.7686   9
   1   0  -2 647.704 32.0466   9
   1   0  -2 510.453 32.7284   5
   0   0   2 376.274 21.3491   9
   0   0  -2 409.246 21.4629   9
  -1   0  -2 142.270 8.80067   9
   1   0   2 164.314 9.51087   5
   1   0   2 176.559 9.20774   9
   2   0   2 875.900 47.8441   5
   2   0   2 973.977 47.5006   9
  -2   0  -2 926.772 47.3143   2
  -3   0  -2 4.16519 0.99658   2
  -4   0  -2 423.984 22.7473   2
  -6   0  -2 51.2600 3.37751  10
  -6   0  -2 54.7569 4.74169   2
  -6   0  -2 56.2141 4.13921   6
  -7   0  -2 279.626 15.4146   4
  -7   0  -2 294.103 15.4281  10
  -7   0  -2 305.164 16.5852   6
  -8   0  -2 32.5991 2.47446  10
  -8   0  -2 32.7086 3.63772   6
  -9   0  -2 102.088 7.44032   6
  -9   0  -2 100.887 5.82873  10
  -9  -1   2 53.4791 3.29389   4
  -9  -1   2 51.0683 4.14488   6
  -9  -1   2 50.8497 3.26342  10
  -9   1   2 45.3524 4.21737   6
  -8  -1   2 8.19101 1.37842   4
  -8  -1   2 7.41612 1.36127  10
  -8  -1   2 8.17979 2.23180   6
  -8   1   2 7.05437 2.48199   6
  -8   1   2 7.32074 1.42889  10
  -7  -1   2 245.996 12.9610  10
  -7  -1   2 246.048 13.9678   6
  -7  -1   2 223.220 12.9406   4
  -7   1   2 248.353 13.0351  10
  -7   1   2 258.128 14.3170   6
  -6  -1   2 57.0878 4.14213   6
  -6  -1   2 57.9716 3.43484  10
  -6  -1   2 59.4736 5.02513   2
  -6   1   2 55.2915 4.41952   6
  -6   1   2 54.2094 3.47535  10
  -5  -1   2 20.5280 2.61018   2
   5  -1  -2 23.8723 5.12344   5
  -4  -1   2 49.9201 3.82357   2
   4  -1  -2 39.7685 6.48266   5
   4  -1  -2 42.5015 3.83602   9
   4   1  -2 51.1564 7.70896   5
  -4   1   2 53.3809 3.74967   7
  -4   1   2 50.1670 3.61446   2
   3  -1  -2 646.163 34.8703   5
   3  -1  -2 537.002 31.9329   9
  -3  -1   2 612.346 30.9556   2
   3   1  -2 569.589 36.2494   5
   3   1  -2 589.927 34.2976   9
   2  -1  -2 1901.42 109.898   9
   2  -1  -2 2374.07 111.189   5
  -2  -1   2 2058.38 108.531   2
   2   1  -2 2195.86 113.616   5
  -2   1   2 1998.35 108.346   2
   2   1  -2 2288.60 111.945   9
   1  -1  -2 2273.08 109.647   9
   1  -1  -2 2049.43 109.731   5
  -1  -1   2 2154.01 107.575   2
  -1  -1   2 1969.45 110.328   9
   1   1  -2 2163.99 110.448   9
   0  -1  -2 9073.19 476.579   5
   0  -1   2 8953.46 476.952   9
   0  -1  -2 9999.99 478.831   9
   0   1  -2 9069.57 476.088   9
   0   1   2 8911.25 473.993   9
  -1  -1  -2 2407.78 121.626   9
   1  -1   2 2326.58 121.449   5
  -1  -1  -2 2167.45 119.218   2
   1   1   2 2380.93 121.518   9
  -1   1  -2 2485.21 120.899   9
  -2  -1  -2 890.400 43.4619   2
   2   1   2 837.099 45.8505   9
   2   1   2 867.180 46.2829   9
  -2   1  -2 788.692 43.1132   2
  -3  -1  -2 269.358 14.7128   2
   3   1   2 283.566 17.3718   9
  -3   1  -2 257.570 14.4027   2
  -4  -1  -2 128.443 8.04495   2
  -4   1  -2 133.474 8.07449   7
  -5  -1  -2 16.1365 2.35447   2
  -6  -1  -2 53.1070 4.72546   2
  -6  -1  -2 47.9108 3.35316   8
  -6  -1  -2 52.0961 3.89119   6
  -7  -1  -2 123.761 6.87721  10
  -7  -1  -2 125.273 7.84941   6
  -7  -1  -2 120.029 6.92147   4
  -8  -1  -2 30.1389 3.35927   6
  -8  -1  -2 29.5342 2.28729  10
  -8  -1  -2 27.2333 2.25571   4
  -9  -1  -2 16.2504 2.43747   6
  -9  -1  -2 16.0737 1.62651   4
  -9  -1  -2 17.2811 1.66747  10
  -9  -2   2 5.63001 1.74371   6
  -9  -2   2 6.43368 1.16900   4
  -9  -2   2 6.28257 1.11333  10
  -8  -2   2 31.2010 3.30079   6
  -8  -2   2 30.5981 2.42723  10
  -8  -2   2 33.2579 2.43939   4
  -7  -2   2 10.6087 1.43412   4
  -7  -2   2 10.9839 2.18485   6
  -7  -2   2 9.30989 1.42834  10
   7   2  -2 14.1947 2.30315   8
  -7   2   2 12.9060 2.33470   1
  -6  -2   2 33.6864 2.42653  10
  -6  -2   2 30.9791 3.03401   6
  -6  -2   2 31.2688 2.53281   4
  -6  -2   2 40.0761 2.77726   8
   6   2  -2 34.2828 2.68949   8
  -6   2   2 36.8719 3.87559   7
  -6   2   2 45.4227 3.65701   1
   5  -2  -2 92.1814 11.4625   5
  -5  -2   2 122.093 7.89395   2
  -5  -2   2 107.662 6.43533   8
  -5   2   2 119.140 7.25975   1
  -5   2   2 127.989 7.86306   7
   5   2  -2 112.970 6.45263   8
   4  -2  -2 252.671 18.7005   5
  -4  -2   2 257.598 14.4122   2
   4   2  -2 242.294 22.3026   5
  -4   2   2 249.241 14.4982   7
  -3  -2   2 572.537 30.9895   2
   3  -2  -2 514.493 33.1740   9
   3  -2  -2 600.612 34.7592   5
  -3   2   2 585.785 31.1345   7
   3   2  -2 649.125 37.0659   9
   3   2  -2 616.823 39.9196   5
  -2  -2   2 490.793 25.2626   2
   2  -2  -2 499.541 29.1831   5
   2  -2  -2 444.983 28.1762   9
   2   2  -2 492.843 30.5225   9
   1  -2  -2 8.30325 2.62316   9
   1  -2  -2 8.44671 2.92004   5
  -1  -2   2 7.55185 0.95418   2
   0  -2  -2 242.250 16.9931   5
   0  -2  -2 261.733 16.7306   9
   0   2  -2 210.371 18.0860   9
  -1  -2  -2 245.052 13.4400   2
   1   2   2 250.459 18.0678   9
   1   2   2 263.398 13.5013   2
   2  -2   2 76.7432 7.64538   5
  -2  -2  -2 79.9219 4.86221   2
   2   2   2 74.9140 8.49950   9
   3  -2   2 719.761 43.1094   5
  -3  -2  -2 779.813 40.5225   2
   3   2   2 845.603 46.5225   9
  -3   2  -2 767.515 40.8487   7
  -4  -2  -2 153.587 9.20703   2
   4  -2   2 151.631 10.6283   5
  -4   2  -2 139.831 9.26777   7
  -5  -2  -2 0.71544 1.01739   2
   5   2   2 0.64184 0.58275   3
  -6  -2  -2 93.8720 5.48634   4
  -6  -2  -2 100.171 6.27118   6
  -6  -2  -2 93.1401 5.76025   8
  -7  -2  -2 113.238 6.36680   4
  -7  -2  -2 110.713 6.62031   8
  -7  -2  -2 107.411 7.11054   6
  -7  -2  -2 113.083 6.28150  10
   7   2   2 111.531 6.66670   8
  -8  -2  -2 5.35437 1.23008  10
  -8  -2  -2 3.73412 1.23467   4
  -8  -2  -2 4.65778 2.02072   6
   8   2   2 6.14006 1.55070   8
  -9  -2  -2 82.4104 4.66867  10
  -9  -2  -2 80.8248 4.67795   4
  -9  -2  -2 80.1299 5.44137   6
  -9  -3   2 29.5902 2.00602   4
  -8  -3   2 21.7869 1.81619   4
  -8  -3   2 16.7284 1.61679  10
  -8  -3   2 19.5168 2.43569   6
   8   3  -2 14.9806 2.00568   8
  -8   3   2 16.3015 2.45943   1
  -7  -3   2 163.540 8.44516  10
   7  -3  -2 147.551 10.4316   7
  -7  -3   2 166.714 8.53089   4
  -7  -3   2 155.538 9.31827   6
   7   3  -2 153.987 8.83761   8
  -7   3   2 140.337 9.67332   1
  -6  -3   2 162.124 8.68994   4
  -6  -3   2 163.109 9.43504   6
  -6  -3   2 166.254 8.61124  10
   6  -3  -2 144.507 10.3256   7
  -6   3   2 159.981 10.5535   7
  -6   3   2 155.983 10.0320   1
   6   3  -2 159.901 9.07308   8
  -5  -3   2 2.79257 1.42023   2
  -5  -3   2 6.26580 1.38687   8
  -5  -3   2 4.95103 1.45220   6
  -5   3   2 3.60798 1.95646   7
   5   3  -2 2.10563 0.83847   8
  -5   3   2 5.15577 1.84570   1
  -4  -3   2 40.9990 2.65229   8
  -4   3   2 38.2224 3.80272   7
   4   3  -2 27.7436 2.39875   8
   4   3  -2 29.1726 2.28698   3
  -4   3   2 35.4621 3.23601   1
  -3  -3   2 112.959 6.48270   8
   3  -3  -2 119.209 11.6357   5
   3   3  -2 106.131 6.44443   8
  -3   3   2 121.433 7.70170   7
   2  -3  -2 981.744 55.9716   5
  -2   3   2 922.405 49.6057   7
   1  -3  -2 190.831 16.2001   5
  -1   3   2 186.310 10.8777   7
   0  -3   2 901.885 55.0570   5
   1  -3   2 579.512 37.5211   5
  -1   3  -2 582.169 30.9491   7
   2  -3   2 369.049 25.4180   5
  -2   3  -2 340.317 19.6828   7
   3  -3   2 137.754 12.7234   5
  -3  -3  -2 137.987 7.46770   8
   3   3   2 113.028 7.86458   8
  -3   3  -2 131.030 8.82301   7
  -4  -3  -2 34.0765 3.48590   2
  -4  -3  -2 30.6036 2.62962   8
  -4  -3  -2 30.1203 2.51062   3
   4   3   2 41.9305 2.82287   8
  -4   3  -2 46.9371 4.39799   7
   4   3   2 40.7735 3.65652   2
   4   3   2 42.7769 2.72761   3
  -4   3  -2 40.1957 3.45189   1
  -5  -3  -2 29.8130 2.34557   8
  -5  -3  -2 24.2827 2.02193   3
  -5  -3  -2 24.8644 2.53194   6
  -5  -3  -2 26.7926 3.21177   2
   5   3   2 22.0823 2.20681   8
  -5   3  -2 24.6556 3.42502   7
   5   3   2 20.6138 2.00552   3
  -5   3  -2 25.0099 2.88278   1
   5   3   2 18.4970 2.92010   2
  -6  -3  -2 153.128 8.62953   4
  -6  -3  -2 151.345 9.36408   6
  -6  -3  -2 152.628 8.97328   8
  -6   3  -2 163.724 9.90040   1
   6   3   2 168.838 9.13057   8
  -6   3  -2 155.833 10.6297   7
   6   3   2 156.510 8.83319   3
  -7  -3  -2 30.0237 2.20561  10
  -7  -3  -2 30.4982 2.28440   4
  -7  -3  -2 27.6487 2.87400   6
  -7  -3  -2 26.7294 2.49147   8
   7   3   2 27.2469 2.58160   8
  -7   3  -2 24.4361 3.02693   1
  -8  -3  -2 17.0201 2.25905   6
  -8  -3  -2 15.7885 1.60202   4
  -8  -3  -2 17.0467 1.55712  10
   8   3   2 17.1343 1.93922   8
  -9  -3  -2 35.9747 2.33088   4
  -7   4   2 23.1628 3.02535   1
   7   4  -2 22.4517 2.27455   8
   6  -4  -2 32.4580 3.78343   7
   6   4  -2 29.1861 2.69368   8
  -6   4   2 27.8928 3.37484   1
  -6   4   2 26.5306 3.59556   7
   5  -4  -2 28.0888 3.65134   7
   5   4  -2 18.9433 2.24463   8
   5   4  -2 16.8147 1.86177   3
  -5   4   2 21.7436 3.26263   7
  -5   4   2 20.4821 3.12904   1
   4   4  -2 14.0009 1.79865   8
   4   4  -2 13.1797 1.53800   3
   3   4  -2 83.9352 5.04627   8
  -3   4   2 85.8289 6.36184   7
   3   4  -2 79.4946 4.82083   3
  -3   4   2 77.9518 5.90417   1
   2  -4  -2 126.588 14.8873   5
  -2   4   2 148.703 9.21189   7
   2   4  -2 145.005 7.77435   3
   2   4  -2 149.864 7.94128   8
  -2   4   2 130.732 8.70723   1
   1   4  -2 174.111 9.40520   3
   0   4  -2 140.084 7.67156   3
   1  -4   2 167.833 20.1370   5
  -1   4  -2 178.386 11.0366   7
  -1   4  -2 176.899 9.47811   3
   1   4   2 177.880 9.54507   3
  -2   4  -2 41.9687 4.22613   7
  -2   4  -2 39.6487 3.60191   1
   2   4   2 40.4380 2.79425   3
  -3  -4  -2 294.694 14.8658   8
  -3   4  -2 258.151 15.6409   1
   3   4   2 281.606 14.8999   8
  -3   4  -2 269.807 16.5372   7
   3   4   2 275.604 14.7532   3
  -4  -4  -2 58.7437 4.31975   6
  -4  -4  -2 57.5184 4.03989   8
  -4   4  -2 68.4528 5.10166   1
   4   4   2 51.0604 3.85072   3
   4   4   2 57.9533 4.13100   8
  -4   4  -2 64.2007 5.77684   7
  -5  -4  -2 147.326 9.18792   6
  -5  -4  -2 147.506 8.91601   8
  -5   4  -2 152.858 9.82697   1
   5   4   2 163.700 9.09416   8
   5   4   2 161.253 8.83415   3
  -5   4  -2 161.234 10.8279   7
  -6  -4  -2 16.9426 2.27286   6
   6  -4   2 21.3864 4.49959   7
   6   4   2 16.2821 1.83893   3
  -6   4  -2 13.5459 3.24287   7
  -6   4  -2 18.2380 2.71483   1
   6   4   2 16.7766 2.26244   8
  -7  -4  -2 11.1911 1.26236  10
  -7  -4  -2 11.4203 1.97359   6
   7   4   2 12.2101 1.82832   8
  -7   4  -2 11.3865 2.08740   1
  -8  -4  -2 16.7497 1.62293   4
   6   5  -2 48.7159 3.57420   8
  -6   5   2 53.8734 4.59751   1
  -5   5   2 3.66782 2.10665   1
   5   5  -2 0.09908 0.85919   8
   5   5  -2 0.69864 0.72175   3
   4  -5  -2 89.2580 7.00503   7
   4   5  -2 95.5092 5.84108   8
  -4   5   2 85.1345 6.94428   7
  -4   5   2 94.7490 6.97734   1
   4   5  -2 90.8762 5.48690   3
   3  -5  -2 80.4145 6.14206   7
   3   5  -2 64.6446 4.59865   8
  -3   5   2 61.9572 5.50088   1
   3   5  -2 65.8895 4.34889   3
  -3   5   2 73.6154 5.86562   7
   2   5  -2 55.8598 3.68541   3
   1   5  -2 164.319 9.08336   3
   0   5   2 118.108 7.05271   3
   0   5  -2 105.103 6.35086   3
  -1   5  -2 0.48204 0.81433   3
   1   5   2 1.08063 0.83716   3
   2   5   2 104.357 5.91129   3
  -2   5  -2 92.3103 6.83798   1
  -2   5  -2 93.7575 9.63406   7
  -3   5  -2 11.5296 2.50086   1
  -3   5  -2 10.5662 2.89275   7
   3   5   2 12.6897 1.74018   3
  -4   5  -2 69.0687 5.53138   1
   4   5   2 70.4541 4.49217   3
   4   5   2 72.6394 4.80220   8
  -4   5  -2 59.3714 5.90274   7
   5   5   2 3.36790 1.16512   8
   5   5   2 2.18693 0.94096   3
  -5   5  -2 2.78852 1.81721   1
   6   5   2 29.7253 2.90372   8
  -6   5  -2 33.4186 3.30684   1
   6   5   2 31.7890 2.45832   3
   4   6  -2 13.5376 1.57437   3
   3   6  -2 8.50261 1.45744   3
   2   6  -2 9.70244 1.58746   3
   1   6  -2 62.6061 4.10852   3
   0   6  -2 18.6189 2.08798   3
   1   6   2 104.048 6.24083   3
   2   6   2 5.35479 1.48100   3
   3   6   2 79.3940 4.85450   3
  -3   6  -2 72.4061 5.63204   1
   4   6   2 10.1385 1.50059   3
  -4   6  -2 12.7012 2.20034   1
  -9   0   3 72.0423 4.33846  10
  -9   0   3 71.6135 5.32493   6
  -8   0   3 37.4247 2.65500  10
  -8   0   3 34.9040 2.66451   4
  -8   0   3 36.0641 3.74697   6
  -6   0   3 139.794 7.58536  10
  -6   0   3 137.278 9.13001   2
  -6   0   3 139.474 8.41515   6
   5   0  -3 75.1158 9.69336   5
  -5   0   3 72.8379 5.34035   2
   4   0  -3 109.112 10.9555   5
   4   0  -3 91.2143 8.91395   9
  -4   0   3 102.508 6.41704   2
  -3   0   3 90.1285 5.48990   2
   3   0  -3 96.6101 9.56423   5
   3   0  -3 78.8978 8.01650   9
  -2   0   3 5431.88 262.447   2
   2   0  -3 4898.65 266.145   5
   2   0  -3 5166.58 264.581   9
   1   0  -3 108.357 7.76621   9
  -1   0   3 92.7701 5.43774   2
   1   0  -3 94.3884 8.82053   5
  -1   0   3 100.750 7.46388   9
   0   0   3 2.98407 1.33947   9
   0   0  -3 3.04663 1.39772   9
  -1   0  -3 1596.42 85.2033   2
   1   0   3 1843.91 86.9096   9
   1   0   3 1564.27 85.1888   2
   1   0   3 1715.27 87.2949   5
  -2   0  -3 150.823 9.51756   2
   2   0   3 180.323 10.3832   9
   2   0   3 199.076 10.7512   5
  -3   0  -3 434.840 22.9107   2
  -4   0  -3 101.781 6.45577   2
  -5   0  -3 333.564 18.6567   2
  -6   0  -3 18.1133 2.56851   2
  -6   0  -3 17.5323 1.51492  10
  -6   0  -3 14.8930 2.20495   6
  -7   0  -3 74.6383 5.47029   6
  -7   0  -3 71.0666 4.32608  10
  -7   0  -3 70.5538 4.35613   4
  -8   0  -3 72.4318 5.59527   6
  -8   0  -3 71.6271 4.41838  10
  -9  -1   3 26.2952 2.05734  10
  -9  -1   3 24.9521 2.88796   6
  -9  -1   3 26.1832 2.03714   4
  -9   1   3 23.3479 2.09641  10
  -9   1   3 21.8041 2.99219   6
  -8  -1   3 145.443 8.00954  10
  -8  -1   3 133.153 7.95798   4
  -8  -1   3 145.403 9.07334   6
  -8   1   3 149.878 9.35625   6
  -8   1   3 148.619 8.08429  10
  -7  -1   3 63.3601 4.84960   6
  -7  -1   3 73.1240 4.02361   4
  -7  -1   3 63.9409 3.90278  10
  -7   1   3 57.4608 5.03055   6
  -7   1   3 57.3011 3.89131  10
  -6  -1   3 139.195 8.38101   6
  -6  -1   3 132.602 7.54804  10
  -6  -1   3 133.850 9.21780   2
  -6   1   3 146.919 7.65382  10
  -6   1   3 149.898 8.68659   6
  -6   1   3 133.293 8.49142   1
   5  -1  -3 1.70101 2.26580   5
   5  -1  -3 2.35444 1.39472   7
  -5  -1   3 1.90631 1.16895   2
   5   1  -3 1.97099 2.55130   5
  -5   1   3 1.65208 1.29681   2
   4  -1  -3 187.900 11.1401   7
   4  -1  -3 172.498 16.0984   5
  -4  -1   3 212.692 11.5342   2
  -4   1   3 192.944 11.1889   7
   4   1  -3 209.630 17.8114   5
  -4   1   3 209.846 11.2733   2
   3  -1  -3 84.1048 8.63844   5
  -3  -1   3 82.0153 5.13838   2
   3  -1  -3 79.2203 6.52105   9
  -3   1   3 75.5475 4.89333   2
   3   1  -3 77.3994 7.80871   9
   3   1  -3 76.6076 9.22946   5
   2  -1  -3 912.484 46.8499   5
   2  -1  -3 807.089 45.4161   9
  -2  -1   3 811.564 43.3454   2
   2   1  -3 843.624 48.7732   5
   2   1  -3 839.024 46.7147   9
  -1  -1   3 181.704 9.84425   2
   1  -1  -3 202.040 12.5071   5
   1  -1  -3 194.238 12.0749   9
   1   1  -3 180.981 12.4703   9
   1   1  -3 160.533 13.4065   5
   0  -1  -3 562.176 30.2608   5
   0  -1  -3 579.018 30.1430   9
   0  -1   3 472.244 29.7494   9
   0   1   3 547.649 29.6842   9
   0   1  -3 546.737 29.9577   9
   0   1   3 512.080 27.7170   2
   1  -1   3 261.676 16.9536   5
   1  -1   3 266.247 16.4015   9
  -1  -1  -3 287.667 17.2327   9
  -1  -1  -3 250.944 14.7639   2
  -1   1  -3 318.783 16.6291   9
   1   1   3 308.791 17.0806   9
   1   1   3 281.258 14.8284   2
  -2  -1  -3 448.017 23.1723   2
   2  -1   3 435.474 22.8853   2
   2  -1   3 437.018 24.5601   5
   2   1   3 451.713 25.4760   9
  -2   1  -3 443.450 22.9074   2
  -3  -1  -3 745.679 41.9849   2
   3   1   3 880.385 45.1962   9
  -3   1  -3 808.184 41.8221   2
  -4  -1  -3 82.5374 5.41277   2
  -4   1  -3 73.5241 5.44774   7
  -5  -1  -3 310.793 16.8285   2
  -5  -1  -3 276.961 15.4178   8
  -6  -1  -3 1.45642 1.30768   2
  -6  -1  -3 1.21104 0.88479   6
  -7  -1  -3 55.8660 3.52867  10
  -7  -1  -3 56.8488 4.52890   6
  -7  -1  -3 55.3708 3.56475   4
  -8  -1  -3 66.9398 5.16060   6
  -8  -1  -3 66.2529 4.06796   4
  -8  -1  -3 63.8219 4.01551  10
  -9  -1  -3 8.51250 1.22792   4
  -9  -1  -3 12.6000 1.40503  10
  -9  -1  -3 9.32769 2.12138   6
  -9  -2   3 48.8667 2.99447   4
  -9  -2   3 43.8410 3.66284   6
  -9  -2   3 46.4803 2.94967  10
  -8  -2   3 17.5803 2.63457   6
  -8  -2   3 19.3451 1.87598   4
  -8  -2   3 16.2632 1.73778  10
  -7  -2   3 26.3452 2.88647   6
  -7  -2   3 25.0166 2.00433  10
  -7  -2   3 23.8389 2.02146   4
  -7   2   3 18.7510 4.19360   6
  -7   2   3 19.1194 2.81583   1
  -6  -2   3 13.5520 1.38481  10
  -6  -2   3 14.3123 1.70671   8
   6  -2  -3 14.1455 2.59514   7
  -6  -2   3 13.7091 2.03995   6
  -6  -2   3 12.5304 1.47961   4
   6   2  -3 14.3267 1.65277   8
  -6   2   3 14.8323 2.51270   7
  -6   2   3 14.6283 2.33541   1
  -6   2   3 16.0017 2.57744   6
  -5  -2   3 37.6386 2.68963   8
   5  -2  -3 40.1540 3.81636   7
  -5  -2   3 28.3005 3.42292   2
   5   2  -3 31.2527 2.52112   8
  -5   2   3 43.1879 3.81668   7
  -5   2   3 46.8412 3.55690   1
   5   2  -3 31.1320 8.26432   5
  -4  -2   3 110.244 6.67612   2
   4  -2  -3 110.256 11.1233   5
   4   2  -3 77.0475 11.9080   5
  -4   2   3 87.4759 6.38507   7
  -3  -2   3 424.017 21.7637   2
   3  -2  -3 436.758 26.2811   5
   3  -2  -3 380.286 29.1068   9
  -3   2   3 405.740 21.7765   7
   3   2  -3 397.258 26.9927   9
   3   2  -3 370.248 29.4748   5
   2  -2  -3 626.711 38.0272   9
  -2  -2   3 686.251 34.6377   2
   2  -2  -3 765.756 39.4441   5
   2   2  -3 664.408 39.9814   9
  -2   2   3 656.368 35.0630   7
   2   2  -3 599.350 42.3201   5
   1  -2  -3 436.254 26.3381   9
   1  -2  -3 483.121 27.1650   5
  -1  -2   3 432.549 22.2319   2
   1   2  -3 359.595 26.3302   9
   0  -2  -3 651.465 36.0515   9
   0  -2  -3 636.568 36.3751   5
   0   2   3 543.797 31.4355   2
  -1  -2  -3 199.915 10.8562   2
  -2  -2  -3 333.340 17.9488   2
   2   2   3 356.899 23.4214   9
  -2   2  -3 329.022 18.3886   7
   2   2   3 325.614 17.9203   2
   3  -2   3 827.071 48.1538   5
  -3  -2  -3 902.428 45.4738   2
  -3   2  -3 859.527 45.8332   7
   3   2   3 908.820 51.3840   9
  -4  -2  -3 430.781 23.4899   2
   4  -2   3 452.235 24.9129   5
  -4   2  -3 407.628 23.8007   7
  -5  -2  -3 69.9284 4.54613   8
  -5  -2  -3 80.2197 5.97488   6
  -5  -2  -3 79.4109 5.83973   2
  -5  -2  -3 73.6568 4.41883   3
  -5   2  -3 73.3341 5.88068   7
   5   2   3 75.2289 4.47861   3
  -5   2  -3 71.6888 5.16735   1
  -6  -2  -3 37.5512 2.93291   8
  -6  -2  -3 37.4614 3.29054   6
  -6  -2  -3 36.4344 2.57565   4
  -7  -2  -3 125.964 7.78876   6
  -7  -2  -3 128.650 6.95423   4
  -7  -2  -3 119.809 7.20471   8
   7   2   3 116.119 7.24261   8
  -8  -2  -3 20.1781 2.73395   6
  -8  -2  -3 21.9094 1.94724   4
  -8  -2  -3 18.0158 1.93727   8
  -8  -2  -3 20.4906 1.85482  10
   8   2   3 22.8220 2.09582   8
  -9  -2  -3 5.33589 1.60271   6
  -9  -2  -3 5.48173 1.05047   4
  -9  -2  -3 4.04006 1.10329  10
  -9  -3   3 28.9285 2.00329   4
  -8  -3   3 39.8863 2.50830  10
  -8  -3   3 34.9396 3.15473   6
  -8  -3   3 39.2098 2.57148   4
  -8   3   3 28.8740 3.23372   1
   7  -3  -3 79.0500 6.75637   7
  -7  -3   3 66.5202 5.10843   6
  -7  -3   3 71.4740 4.31432  10
  -7  -3   3 73.2694 4.38972   4
   7   3  -3 74.2781 4.72604   8
  -6  -3   3 181.234 9.57791   4
  -6  -3   3 184.411 9.50101  10
  -6  -3   3 182.323 10.3367   6
   6  -3  -3 183.947 11.3693   7
  -6   3   3 167.049 10.9194   1
   6   3  -3 170.164 9.91583   8
  -6   3   3 166.517 11.2471   7
  -5  -3   3 61.6956 4.26289   6
  -5  -3   3 64.3754 5.76545   2
   5  -3  -3 57.5735 5.28935   7
  -5   3   3 59.8944 4.85694   1
  -5   3   3 63.4748 5.33694   7
   5   3  -3 59.5394 4.00147   8
  -4  -3   3 78.2873 4.87263   8
  -4   3   3 78.6487 5.68014   1
   4   3  -3 76.0848 4.67833   3
  -4   3   3 88.1071 6.21777   7
   4   3  -3 84.3047 4.92905   8
   3  -3  -3 74.3835 8.87354   5
  -3   3   3 60.1110 4.85963   7
   3   3  -3 52.4025 3.71247   8
   2  -3  -3 467.446 31.3139   5
  -2   3   3 487.133 25.7061   7
   1  -3  -3 374.342 25.2696   5
  -1   3   3 321.261 18.7531   7
   0  -3   3 12.5565 4.66819   5
   0   3  -3 18.5588 2.30439   7
   1  -3   3 91.6564 10.7160   5
  -1   3  -3 84.4098 6.03642   7
   2  -3   3 149.239 14.0791   5
  -2   3  -3 152.820 9.56687   7
  -3  -3  -3 815.518 40.3769   2
   3  -3   3 687.956 45.3821   5
  -3  -3  -3 760.708 39.0877   8
  -3   3  -3 781.908 40.8273   7
  -4  -3  -3 64.0965 4.12547   8
  -4  -3  -3 64.3900 5.10787   2
  -4  -3  -3 62.4304 3.96409   3
  -4  -3  -3 72.8088 5.54195   6
   4   3   3 65.3389 5.11695   2
  -4   3  -3 61.1253 4.71232   1
   4   3   3 65.4259 4.07909   3
  -4   3  -3 67.3821 5.74515   7
  -5  -3  -3 91.6436 5.33589   8
  -5  -3  -3 86.7814 5.09204   3
  -5  -3  -3 87.2888 5.62392   6
  -5  -3  -3 89.0340 6.74211   2
   5   3   3 75.1032 6.48884   2
   5   3   3 80.3760 5.10513   3
  -5   3  -3 82.4185 6.75779   7
   5   3   3 85.9018 5.32667   8
  -5   3  -3 77.2507 5.83353   1
  -6  -3  -3 83.0725 5.58403   6
  -6  -3  -3 79.9802 4.78823   4
  -6  -3  -3 79.0395 5.19913   8
  -6  -3  -3 80.8335 4.95735   3
   6   3   3 83.9911 5.05391   3
  -6   3  -3 73.3022 6.63463   7
  -6   3  -3 76.6291 5.85213   1
   6   3   3 88.6087 5.34776   8
  -7  -3  -3 12.9843 2.14055   6
  -7  -3  -3 10.8893 1.45081   4
  -7  -3  -3 12.3725 1.75443   8
   7   3   3 10.7806 1.79754   8
  -8  -3  -3 6.97354 1.18683  10
  -9  -3  -3 34.7208 2.34087   4
   7   4  -3 52.9083 3.83541   8
  -7   4   3 58.5035 4.81451   1
   6  -4  -3 12.2802 2.61661   7
  -6   4   3 12.5801 2.58661   7
   6   4  -3 10.6012 1.91767   8
  -6   4   3 11.6574 2.57849   1
   5  -4  -3 36.3257 4.29893   7
   5   4  -3 47.7409 3.36392   8
  -5   4   3 45.0784 4.45436   1
   5   4  -3 42.1471 2.96091   3
  -5   4   3 45.7112 4.59365   7
   4  -4  -3 176.620 11.4057   7
   4   4  -3 186.774 9.97081   8
  -4   4   3 183.176 11.4000   7
   4   4  -3 171.471 9.66938   3
  -4   4   3 167.856 11.0432   1
   3   4  -3 303.991 15.6830   3
  -3   4   3 304.880 17.3634   7
  -3   4   3 269.735 16.8135   1
   3   4  -3 307.517 15.8817   8
   2  -4  -3 374.070 30.3935   5
  -2   4   3 313.134 19.3788   1
  -2   4   3 361.224 19.8714   7
   2   4  -3 363.445 18.5474   8
   2   4  -3 349.176 18.3728   3
   1   4  -3 119.156 6.78416   3
   1   4  -3 125.989 7.07002   8
   0   4  -3 65.4388 3.93347   3
   1  -4   3 93.3101 13.4990   5
  -1   4  -3 112.854 7.71797   7
  -1   4  -3 110.909 6.10741   3
  -1   4  -3 106.495 6.97797   1
   1   4   3 114.053 6.20645   3
  -2   4  -3 19.0157 2.50913   1
   2   4   3 18.0438 1.73970   3
  -2   4  -3 20.5614 3.01955   7
  -3  -4  -3 47.1437 3.42396   8
  -3  -4  -3 41.3394 3.55868   6
  -3   4  -3 50.4881 4.95828   7
  -3   4  -3 49.7954 4.18227   1
   3   4   3 53.8624 3.58005   8
   3   4   3 52.9924 3.41500   3
  -4  -4  -3 459.875 23.9654   6
  -4  -4  -3 472.326 23.6218   8
  -4   4  -3 419.648 24.3917   1
  -4   4  -3 417.384 25.4231   7
   4   4   3 464.816 23.7047   8
   4   4   3 445.095 23.4891   3
  -5  -4  -3 101.788 6.71867   6
  -5  -4  -3 100.446 6.43606   8
   5   4   3 111.467 6.38429   3
  -5   4  -3 107.734 7.35052   1
   5   4   3 113.012 6.63972   8
  -5   4  -3 98.1969 8.08860   7
  -6  -4  -3 54.0408 4.15721   6
  -6  -4  -3 58.0558 3.89832   8
   6   4   3 52.5437 3.94214   8
   6   4   3 51.0385 3.65336   3
  -6   4  -3 48.8830 4.46412   1
  -7  -4  -3 38.5127 2.61249  10
  -7  -4  -3 39.5176 3.32310   6
   7   4   3 44.9516 3.28844   8
  -7   4  -3 39.8563 3.53240   1
   6   5  -3 8.67121 1.54230   8
  -6   5   3 11.1592 2.32906   1
  -5   5   3 16.0274 2.86561   1
   5   5  -3 13.3983 1.94013   8
   5   5  -3 12.5935 1.53481   3
   4  -5  -3 19.6507 3.11972   7
  -4   5   3 14.9980 2.86822   7
   4   5  -3 10.6687 1.59246   3
  -4   5   3 15.7861 2.89804   1
   4   5  -3 11.0108 1.93528   8
   3  -5  -3 57.4311 5.17537   7
   3   5  -3 54.4714 3.89062   8
  -3   5   3 50.8018 4.85952   1
   3   5  -3 58.4517 3.73374   3
  -3   5   3 53.2896 5.00052   7
   2   5  -3 37.8164 2.79362   3
   1   5  -3 109.076 6.30568   3
   0   5  -3 224.587 12.1226   3
  -1   5  -3 25.8904 2.28874   3
  -1   5  -3 24.2324 2.97484   1
   1   5   3 25.3615 2.27012   3
  -2   5  -3 28.6239 3.29190   1
   2   5   3 31.1967 2.57316   3
  -2   5  -3 28.0997 3.84117   7
  -3   5  -3 5.75360 2.47274   7
  -3   5  -3 3.17948 2.06207   1
   3   5   3 4.69641 1.47216   3
   4   5   3 14.4134 2.15471   8
  -4   5  -3 12.8913 2.56901   1
   4   5   3 13.5323 1.93304   3
  -4   5  -3 12.8220 2.98441   7
   5   5   3 9.41916 1.65697   3
   5   5   3 10.8999 1.98520   8
  -5   5  -3 13.9208 2.47422   1
   6   5   3 13.5414 1.59903   3
  -6   5  -3 12.7704 2.07882   1
   4   6  -3 36.2054 2.58204   3
   3   6  -3 55.2790 3.62858   3
   2   6  -3 12.2987 1.68673   3
   1   6  -3 11.5109 1.67004   3
   0   6  -3 49.1535 3.49772   3
   1   6   3 76.0494 4.95368   3
   2   6   3 47.7791 3.52291   3
  -2   6  -3 52.6632 5.97784   1
   3  -6   3 19.8086 2.41928   1
  -3   6  -3 24.6219 2.90741   1
   3   6   3 27.4894 2.36894   3
  -4   6  -3 119.955 7.68816   1
   4   6   3 117.436 6.86026   3
  -9   0   4 17.2065 2.73268   6
  -9   0   4 18.9042 1.80310  10
  -8   0   4 97.1662 6.65402   6
  -8   0   4 93.3276 5.49653  10
  -8   0   4 91.0572 5.48304   4
  -7   0   4 200.009 11.5673   4
  -7   0   4 227.877 11.6435  10
  -7   0   4 223.170 12.7223   6
  -6   0   4 140.227 7.39023  10
  -6   0   4 125.285 8.79650   2
  -6   0   4 136.036 8.22190   6
   5   0  -4 46.2638 8.01503   5
  -5   0   4 40.8646 3.69281   2
   4   0  -4 220.995 18.4199   5
  -4   0   4 211.756 12.2827   2
   3   0  -4 165.018 13.5197   9
  -3   0   4 174.578 9.94120   2
   3   0  -4 188.675 15.6495   5
   2   0  -4 425.528 28.6756   5
   2   0  -4 433.391 26.7770   9
  -2   0   4 467.563 23.1484   2
   1   0  -4 1193.29 67.8875   9
  -1   0   4 1258.56 67.8931   9
  -1   0   4 1367.01 64.8849   2
   0   0  -4 405.154 23.2833   9
   0   0   4 398.673 20.8351   2
   0   0   4 394.429 23.2797   9
   0   0  -4 406.364 25.1539   5
   1   0   4 3816.32 203.884   9
  -1   0  -4 4277.26 200.017   9
  -1   0  -4 3681.24 198.288   2
   1   0   4 3780.90 198.337   2
   1   0   4 4016.28 202.318   5
   2   0   4 764.585 38.7936   9
  -2   0  -4 712.663 37.1653   2
   2   0   4 688.345 37.1423   2
  -3   0  -4 270.978 14.6830   2
  -4   0  -4 162.732 9.57791   2
  -5   0  -4 6.21281 1.64528   2
  -6   0  -4 31.3758 3.49827   2
  -6   0  -4 32.9796 3.07558   6
   6   0   4 32.8621 3.59795   2
  -7   0  -4 14.8701 2.77446   6
  -7   0  -4 14.0226 1.58636   4
  -7   0  -4 15.3284 1.64715  10
  -9  -1   4 4.96883 1.13184  10
  -9  -1   4 4.23988 1.87662   6
  -9  -1   4 3.75708 1.13524   4
  -9   1   4 1.72637 1.21079   6
  -9   1   4 5.66999 1.24913  10
  -8  -1   4 86.4019 4.84977   4
  -8  -1   4 79.2275 5.83807   6
  -8  -1   4 82.3746 4.79404  10
  -8   1   4 73.5515 5.91674   6
  -8   1   4 77.7606 4.83755  10
  -7  -1   4 85.4080 5.17971  10
  -7  -1   4 85.5124 5.19430   4
  -7  -1   4 87.1905 6.16984   6
  -7   1   4 95.3945 6.47801   6
  -7   1   4 92.3683 5.26224  10
  -6  -1   4 12.0140 2.43272   2
  -6   1   4 19.5617 2.44109   6
  -6   1   4 19.9228 1.64213  10
  -5  -1   4 216.083 12.8714   2
   5  -1  -4 186.936 12.3618   7
   5  -1  -4 222.138 19.5119   5
  -5   1   4 240.808 12.8277   2
  -5   1   4 208.094 12.6915   7
   5   1  -4 237.357 21.2270   5
   4  -1  -4 385.865 20.5691   7
  -4  -1   4 389.630 20.8497   2
   4  -1  -4 349.149 27.1866   5
   4   1  -4 392.761 28.6003   5
  -4   1   4 393.035 20.6560   2
  -4   1   4 381.076 20.6174   7
   3  -1  -4 652.389 38.3712   9
  -3  -1   4 649.612 35.7304   2
   3   1  -4 713.215 40.3220   9
  -3   1   4 679.913 35.5713   2
   3   1  -4 732.075 43.3998   5
   2  -1  -4 315.120 19.5150   5
   2  -1  -4 296.294 18.0975   9
  -2  -1   4 281.374 15.1958   2
  -2   1   4 254.301 15.0135   2
   2   1  -4 282.523 20.7943   5
   2   1  -4 273.322 18.5734   9
  -1  -1   4 1012.51 55.3682   2
   1  -1  -4 1140.17 58.4919   9
   1  -1  -4 1118.62 58.9602   5
  -1   1   4 1077.49 55.4098   2
   1   1  -4 1071.62 60.8448   5
   1   1  -4 1092.68 58.7895   9
   0  -1   4 1415.01 80.8959   9
   0  -1  -4 1752.15 81.3541   9
   0  -1  -4 1713.53 81.5913   5
   0  -1   4 1565.13 77.9795   2
   0   1   4 1424.48 80.5820   9
   0   1  -4 1479.32 80.7456   9
   0   1   4 1400.75 78.1476   2
   1  -1   4 62.4139 6.14837   5
   1  -1   4 72.3566 5.84325   9
  -1  -1  -4 67.2175 4.07773   2
   1  -1   4 76.7059 4.04149   2
  -1   1  -4 65.4337 5.60164   9
   1   1   4 57.8679 4.02937   2
   1   1   4 66.9918 5.86005   9
  -2  -1  -4 120.869 7.16690   2
   2  -1   4 122.983 8.85729   5
   2  -1   4 124.082 6.95743   2
  -2   1  -4 129.392 6.98505   2
   2   1   4 123.821 7.18546   2
   2   1   4 130.168 9.39044   9
   3  -1   4 500.613 26.2513   2
  -3  -1  -4 494.399 26.4927   2
  -3   1  -4 500.855 27.0086   2
   3   1   4 513.039 29.5541   9
   4  -1   4 436.614 21.0309   2
  -4  -1  -4 393.463 20.9810   2
  -4   1  -4 325.573 21.7808   7
  -5  -1  -4 17.9065 1.74046   8
  -5  -1  -4 19.9150 2.53991   2
  -6  -1  -4 82.1779 5.19499   8
  -6  -1  -4 86.7988 6.58989   2
  -6  -1  -4 82.0056 5.64523   6
   6   1   4 94.5159 6.83881   2
  -7  -1  -4 76.6157 4.60304   4
  -7  -1  -4 77.3454 4.56806  10
  -7  -1  -4 82.0440 5.58975   6
  -7  -1  -4 70.8208 4.83274   8
  -8  -1  -4 53.7929 4.47099   6
  -8  -1  -4 50.4701 3.31680  10
  -8  -1  -4 48.8012 3.31382   4
  -9  -1  -4 40.4622 2.66977   4
  -9  -1  -4 37.3064 3.50193   6
  -9  -1  -4 41.9470 2.72805  10
  -9  -2   4 57.5009 3.44574  10
  -9  -2   4 56.9351 3.49501   4
  -9  -2   4 54.9852 4.20285   6
  -8  -2   4 66.1987 3.94228   4
  -8  -2   4 60.3075 4.76021   6
  -8  -2   4 65.3834 3.89602  10
  -8   2   4 66.5964 6.12424   6
  -8   2   4 55.1054 4.81821   1
  -7  -2   4 174.667 9.68324   4
  -7  -2   4 177.173 10.5874   6
  -7  -2   4 181.687 9.64672  10
  -7   2   4 161.667 10.8348   1
  -7   2   4 198.088 11.3410   6
   6  -2  -4 34.7621 3.77636   7
  -6  -2   4 37.5888 3.21308   6
  -6  -2   4 36.1023 2.42629  10
  -6  -2   4 36.1187 2.51590   4
  -6   2   4 38.3567 3.67753   6
   6   2  -4 34.9277 2.72217   8
  -6   2   4 33.2331 3.40401   1
  -6   2   4 34.6845 3.73032   7
  -5  -2   4 105.943 6.08168   8
   5  -2  -4 108.742 7.25813   7
  -5  -2   4 124.870 7.68889   2
  -5   2   4 96.6316 6.75749   1
   5   2  -4 93.9691 5.97652   8
  -5   2   4 109.385 7.26770   7
  -4  -2   4 61.3201 4.78853   2
   4  -2  -4 54.7192 8.46134   5
   4  -2  -4 59.5177 4.62060   7
  -4   2   4 77.3531 5.14329   7
   4   2  -4 64.3438 10.7872   5
   3  -2  -4 205.873 15.9273   5
  -3  -2   4 206.231 11.2933   2
   3   2  -4 193.452 16.2210   9
   3   2  -4 175.775 18.3085   5
  -3   2   4 196.252 11.2735   7
   2  -2  -4 466.245 27.5830   5
  -2  -2   4 458.874 22.8024   2
   2  -2  -4 413.534 26.6520   9
   2   2  -4 394.285 30.3968   5
   2   2  -4 421.750 27.9393   9
  -2   2   4 425.532 22.9055   7
   1  -2  -4 193.303 14.0525   5
  -1  -2   4 171.782 9.67951   2
   1  -2  -4 170.249 13.5168   9
   0  -2  -4 381.832 23.4945   9
   0  -2  -4 386.845 23.6740   5
   0   2   4 304.093 18.7755   2
   1   2   4 32.0094 2.51182   2
  -2  -2  -4 4.47375 1.07769   2
   2   2   4 1.22932 0.73161   2
  -2   2  -4 1.01338 0.90729   7
   3  -2   4 214.923 15.0102   5
  -3  -2  -4 247.403 12.5019   2
   3   2   4 198.722 12.2060   2
  -3   2  -4 207.826 12.7246   7
   4  -2   4 142.246 10.6764   5
  -4  -2  -4 145.315 8.81617   8
  -4  -2  -4 162.401 9.86763   2
   4   2   4 188.655 10.0937   2
  -4   2  -4 176.363 10.3960   7
  -5  -2  -4 25.3288 2.18875   8
  -5  -2  -4 22.8647 1.99302   3
  -5  -2  -4 26.1775 3.14745   2
  -5  -2  -4 23.1967 2.48460   6
  -5   2  -4 26.6671 3.28949   7
   5   2   4 29.2357 2.18338   3
  -5   2  -4 29.0780 2.96516   1
   5   2   4 29.9854 3.28180   2
  -6  -2  -4 9.91433 1.62026   8
  -6  -2  -4 10.9807 1.37428   3
  -6  -2  -4 10.0072 1.93336   6
  -6  -2  -4 10.4974 1.37490   4
   6   2   4 10.2201 1.42862   3
  -7  -2  -4 32.1735 3.19397   6
  -7  -2  -4 30.6884 2.67343   8
  -7  -2  -4 28.2752 2.37731   4
   7   2   4 33.7258 2.86547   8
  -8  -2  -4 19.6201 1.88590   4
  -8  -2  -4 20.8493 1.82954  10
  -8  -2  -4 16.9509 1.88048   8
  -8  -2  -4 21.4013 2.74525   6
   8   2   4 19.7085 2.05488   8
  -9  -2  -4 14.9404 1.50112  10
  -9  -2  -4 15.0358 2.05757   6
  -9  -2  -4 16.2155 1.49588   4
  -9  -3   4 11.2366 1.19762   4
  -8  -3   4 12.3265 2.07290   6
  -8  -3   4 11.9028 1.42693  10
  -8  -3   4 12.0791 1.48057   4
  -8   3   4 12.4183 2.22579   1
  -7  -3   4 14.6808 1.62209  10
  -7  -3   4 12.5789 1.58927   4
  -7  -3   4 14.6876 2.33507   6
   7   3  -4 19.4535 2.04869   8
  -7   3   4 17.5778 2.81572   1
   5  -3  -4 99.3103 7.11174   7
   5   3  -4 90.0182 5.61189   8
  -5   3   4 95.1070 6.92359   7
  -5   3   4 89.1493 6.56437   1
   4  -3  -4 48.0062 4.28235   7
  -4   3   4 47.4728 4.20395   7
   4   3  -4 40.8638 2.98850   8
   4   3  -4 39.7511 2.77651   3
  -4   3   4 42.6409 3.79322   1
   3  -3  -4 160.331 14.9316   5
  -3   3   4 158.535 9.72440   7
   3   3  -4 156.746 8.70816   8
   2  -3  -4 129.093 12.6154   5
  -2   3   4 118.511 7.68836   7
   1  -3  -4 56.4425 7.81790   5
   1  -3  -4 50.9293 7.33963   9
  -1   3   4 40.4223 3.55861   7
   0  -3   4 274.606 22.7288   5
   0   3  -4 302.998 16.3105   7
   1  -3   4 269.781 21.2472   5
  -1   3  -4 257.724 15.0867   7
   2  -3   4 79.5085 9.94140   5
  -2   3  -4 84.9647 6.19159   7
  -3  -3  -4 743.471 37.6022   2
  -3  -3  -4 727.133 36.5159   8
   3  -3   4 651.887 42.7172   5
  -3   3  -4 712.840 38.2732   7
  -4  -3  -4 55.0924 3.79217   3
  -4  -3  -4 56.7746 3.95558   8
  -4  -3  -4 51.0749 4.11675   6
  -4  -3  -4 60.6559 4.92053   2
  -4   3  -4 68.7453 5.73944   7
   4   3   4 72.4814 4.04036   3
   4   3   4 69.4322 5.11116   2
  -4   3  -4 62.2353 4.61269   1
  -5  -3  -4 183.970 10.1585   8
  -5  -3  -4 175.252 9.91195   3
  -5  -3  -4 185.711 10.5164   6
  -5  -3  -4 171.624 9.73740   4
   5   3   4 189.896 10.0523   3
  -5   3  -4 176.173 11.9082   7
  -5   3  -4 176.192 10.8344   1
  -6  -3  -4 46.9316 3.37607   8
  -6  -3  -4 42.4824 3.02125   3
  -6  -3  -4 47.5901 3.71123   6
  -6  -3  -4 45.8610 2.90466   4
  -6   3  -4 34.0998 3.67139   1
  -6   3  -4 33.9648 4.29850   7
   6   3   4 37.3690 3.01787   3
   6   3   4 41.1678 3.35595   8
  -7  -3  -4 62.7330 3.84085   4
  -7  -3  -4 56.9156 4.08353   8
  -7  -3  -4 61.0803 4.54904   6
   7   3   4 61.0083 4.28173   8
  -8  -3  -4 58.6553 3.46710   4
  -8  -3  -4 49.8794 3.85907   8
  -8  -3  -4 54.8319 3.34038  10
  -8  -3  -4 55.4717 4.15447   6
   8   3   4 52.6675 3.86511   8
   7   4  -4 25.7696 2.39081   8
  -7   4   4 25.6975 3.16407   1
   6  -4  -4 60.6977 6.99459   7
  -6   4   4 77.4643 6.06034   1
   6   4  -4 75.9159 4.82876   8
   5  -4  -4 78.1914 6.49144   7
  -5   4   4 86.4863 6.72126   1
   5   4  -4 90.3328 5.45212   8
  -5   4   4 87.5021 6.73906   7
   5   4  -4 84.8167 5.20745   3
   4  -4  -4 199.880 11.3789   7
  -4   4   4 166.422 10.9573   1
   4   4  -4 158.724 9.43439   3
   4   4  -4 166.799 9.71416   8
  -4   4   4 177.251 11.0984   7
   3  -4  -4 237.623 13.6585   7
  -3   4   4 228.660 13.6226   7
  -3   4   4 205.118 13.2152   1
   3   4  -4 231.717 12.2231   8
   3   4  -4 216.510 11.9745   3
   2  -4  -4 333.882 18.7433   7
  -2   4   4 326.629 18.5184   7
   2   4  -4 324.927 17.1774   3
   2   4  -4 324.376 17.3344   8
   1   4  -4 143.953 8.15958   8
   1   4  -4 148.646 8.03022   3
   0   4  -4 278.685 14.6642   3
   1  -4   4 122.888 16.1223   5
  -1   4  -4 157.324 8.25174   3
  -1   4  -4 156.378 9.95654   7
  -1   4  -4 151.079 9.10457   1
   1   4   4 157.860 8.35504   3
  -2  -4  -4 212.510 12.1104   6
  -2   4  -4 202.851 13.0454   7
  -2   4  -4 201.326 11.1951   3
  -2   4  -4 208.482 12.1724   1
   2   4   4 215.450 11.3558   3
  -3  -4  -4 240.543 13.2231   6
  -3  -4  -4 253.854 12.8700   8
  -3   4  -4 227.052 14.7263   7
  -3   4  -4 217.354 13.5128   1
   3   4   4 233.624 12.7593   3
   3   4   4 234.013 12.8701   8
  -4  -4  -4 254.896 14.6386   8
  -4  -4  -4 257.328 14.9905   6
   4   4   4 281.866 14.6738   3
   4   4   4 291.862 14.8738   8
  -4   4  -4 267.282 15.5350   1
  -4   4  -4 266.858 16.8155   7
  -5  -4  -4 135.108 8.31357   8
  -5  -4  -4 142.865 8.67328   6
  -5   4  -4 132.033 10.1104   7
   5   4   4 154.483 8.32082   3
   5   4   4 149.397 8.49560   8
  -5   4  -4 142.214 9.20337   1
  -6  -4  -4 7.34292 1.64233   8
  -6  -4  -4 9.86481 2.03935   6
   6   4   4 10.5599 1.92576   8
  -6   4  -4 10.4360 2.28023   1
   6   4   4 11.1215 1.63536   3
  -7  -4  -4 47.4986 2.88199  10
  -7  -4  -4 43.7289 3.54873   6
  -7   4  -4 40.6831 3.64380   1
   7   4   4 44.5140 3.10023   3
   7   4   4 48.3861 3.48192   8
   6   5  -4 3.97074 1.50574   8
  -6   5   4 5.66713 2.04834   1
   5   5  -4 4.48968 1.10102   3
  -5   5   4 5.92653 2.36590   1
   5   5  -4 4.59515 1.57498   8
   4  -5  -4 1.66975 1.38320   7
   4   5  -4 2.11981 1.00459   8
  -4   5   4 3.46694 2.21467   1
  -4   5   4 2.13271 1.32816   7
   4   5  -4 2.36566 0.91109   3
   3  -5  -4 46.9481 4.74835   7
   3   5  -4 50.1850 3.38985   3
  -3   5   4 47.4492 4.52562   7
   3   5  -4 50.3863 3.64328   8
   2   5  -4 18.5400 2.23647   8
   2   5  -4 18.3879 1.86748   3
   1   5  -4 63.6378 4.04233   3
   0   5  -4 192.185 10.5113   3
   1   5   4 108.953 6.39144   3
  -1   5  -4 108.109 6.31659   3
  -1   5  -4 105.642 7.26338   1
   2   5   4 95.0246 5.55619   3
  -2   5  -4 84.6841 6.31685   1
  -2   5  -4 84.9107 7.33249   7
   3   5   4 248.350 12.9354   3
  -3   5  -4 219.229 15.0268   7
  -3   5  -4 232.080 13.8159   1
  -4   5  -4 28.3679 3.99081   7
   4   5   4 29.7045 2.67686   3
  -4   5  -4 30.1691 3.42620   1
  -5  -5  -4 75.8819 5.10164   6
   5   5   4 73.7460 5.02991   8
  -5   5  -4 70.5829 5.45493   1
   5   5   4 75.4040 4.80047   3
  -6  -5  -4 9.16917 1.66723   6
  -6   5  -4 10.4309 1.79995   1
   6   5   4 10.2417 1.43263   3
   3   6  -4 13.5320 1.63743   3
   2   6  -4 42.0414 3.01511   3
   1   6  -4 63.5884 4.15213   3
   0   6  -4 27.7273 2.47115   3
  -1   6  -4 42.1097 3.23920   3
   2  -6   4 3.84585 1.48315   1
  -2   6  -4 4.33687 1.84921   1
   2   6   4 5.62722 1.55699   3
   3  -6   4 20.3963 2.36643   1
  -3   6  -4 23.8630 2.79608   1
   3   6   4 23.0153 2.26131   3
   4  -6   4 18.3812 2.14595   1
  -4   6  -4 21.6020 2.54012   1
   4   6   4 19.9908 2.02747   3
  -9   0   5 47.1980 4.13556   6
  -9   0   5 50.6981 3.23152  10
  -8   0   5 25.8494 2.26129  10
  -8   0   5 31.3303 2.36360   4
  -8   0   5 26.6597 3.30540   6
  -6   0   5 311.491 18.1044   2
  -6   0   5 317.059 17.3377   6
  -6   0   5 314.328 16.4356  10
   5   0  -5 39.5962 7.97823   5
  -5   0   5 36.7251 3.46959   2
   4   0  -5 247.765 20.9032   5
  -4   0   5 235.117 13.6203   2
  -3   0   5 149.517 8.40944   2
   3   0  -5 139.150 14.1759   5
   3   0  -5 141.961 12.4676   9
   2   0  -5 297.709 22.3867   5
  -2   0   5 315.116 15.9642   2
   2   0  -5 278.040 19.7665   9
   1   0  -5 13.0041 5.35493   5
   1   0  -5 8.85366 2.97960   9
  -1   0   5 9.28141 1.30684   2
   0   0   5 515.231 27.8477   2
   0   0  -5 545.884 30.9560   9
   0   0  -5 564.893 33.5947   5
   0   0   5 526.107 30.9811   9
  -1   0  -5 2826.40 147.317   9
   1   0   5 2966.89 148.054   9
   1   0   5 2785.76 145.020   2
   2   0   5 253.577 15.1577   2
  -2   0  -5 271.346 15.2014   2
   2   0   5 313.910 18.0409   5
   2   0   5 301.574 17.3710   9
   3   0   5 54.1363 3.74199   2
  -3   0  -5 51.4956 3.68434   2
   4   0   5 23.2734 2.48532   2
  -4   0  -5 24.8580 2.51912   2
  -5   0  -5 73.2910 5.40656   2
   5   0   5 70.7019 5.42019   2
  -5   0  -5 70.6593 4.34286   8
  -6   0  -5 26.2652 3.21408   2
   6   0   5 26.7605 3.30416   2
  -7   0  -5 122.208 6.89530   4
  -9  -1   5 81.0454 5.69709   6
  -9  -1   5 84.9103 4.85821   4
  -9   1   5 81.2139 4.83852  10
  -9   1   5 83.8302 5.91019   6
  -8   1   5 8.14057 1.47407  10
  -8   1   5 6.62018 2.30985   6
  -7  -1   5 76.6909 4.71789  10
  -7  -1   5 81.6185 4.79235   4
  -7  -1   5 73.9476 5.62333   6
  -7   1   5 81.4697 5.93610   6
  -7   1   5 79.0932 4.77272  10
  -7   1   5 84.9584 5.97958   1
  -6  -1   5 16.6784 2.24335   6
  -6  -1   5 14.8366 2.53245   2
  -6  -1   5 16.6077 1.53164  10
  -6   1   5 17.2114 2.37889   1
  -6   1   5 17.0081 1.57021  10
  -6   1   5 17.3287 2.41658   6
   5  -1  -5 155.962 9.06437   7
  -5  -1   5 141.720 9.14023   2
   5  -1  -5 127.265 15.1693   5
  -5   1   5 147.777 8.89646   7
   5   1  -5 140.139 16.4484   5
  -5   1   5 144.087 8.96362   2
  -4  -1   5 53.4519 4.19385   2
   4  -1  -5 61.2411 4.17551   7
   4  -1  -5 52.0644 8.85104   5
  -4   1   5 53.1148 4.06941   2
   4   1  -5 53.4240 9.11320   5
  -4   1   5 53.6896 4.00808   7
  -3  -1   5 1536.22 76.1812   2
   3  -1  -5 1414.04 75.8455   7
   3  -1  -5 1538.75 80.2579   9
  -3   1   5 1531.40 75.9552   7
   3   1  -5 1426.94 81.0415   9
   3   1  -5 1511.06 85.0438   5
  -3   1   5 1424.29 75.9057   2
   2  -1  -5 1136.81 59.2771   9
  -2  -1   5 1027.28 54.9812   2
   2  -1  -5 1048.49 60.3564   5
   2   1  -5 1039.62 59.2749   9
   2   1  -5 1131.67 63.9446   5
  -2   1   5 1045.49 54.9342   2
   1  -1  -5 157.392 13.7907   5
  -1  -1   5 154.193 8.70614   2
   1  -1  -5 165.344 11.8912   9
  -1   1   5 151.484 8.74390   2
   1   1  -5 160.362 11.9774   9
   1   1  -5 159.060 14.0708   5
   0  -1  -5 1827.56 91.5322   9
   0  -1   5 1580.82 91.3994   9
   0  -1   5 1710.51 87.9324   2
   0  -1  -5 1833.77 92.1854   5
   0   1  -5 1721.06 91.2805   9
   0   1   5 1799.11 91.5554   9
   0   1   5 1637.90 88.1354   2
   1  -1   5 266.292 16.2539   9
  -1  -1  -5 271.415 16.7886   9
  -1  -1  -5 266.950 13.6709   2
   1  -1   5 273.560 13.6036   2
  -1   1  -5 222.627 15.5718   9
   1   1   5 227.380 13.6035   2
   1   1   5 251.405 16.3073   9
  -2  -1  -5 683.033 33.7929   2
   2  -1   5 659.282 33.5449   2
   2  -1   5 558.311 36.3493   5
   2  -1   5 657.720 35.0646   9
   2   1   5 688.580 33.8032   2
   3  -1   5 0.86448 0.63316   2
  -3  -1  -5 0.68190 0.74862   2
   3   1   5 0.25347 0.63277   2
   3   1   5 0.48962 1.12942   9
  -4  -1  -5 396.133 21.2687   2
   4   1   5 381.471 21.2287   2
  -5  -1  -5 25.3687 2.18793   8
  -5  -1  -5 26.1908 2.99949   2
   5   1   5 29.2735 3.14998   2
  -6  -1  -5 1.80630 1.38811   2
  -6  -1  -5 1.84451 1.04149   6
  -6  -1  -5 4.13423 1.26787   8
   6   1   5 1.31069 1.26585   2
  -7  -1  -5 59.5652 4.12346   8
  -7  -1  -5 59.4463 3.83732   4
  -7  -1  -5 64.6349 4.88188   6
  -8  -1  -5 25.4908 3.17227   6
  -8  -1  -5 26.1931 2.15604  10
  -8  -1  -5 28.0559 2.23138   4
  -9  -1  -5 24.5849 1.85860   4
  -9  -1  -5 22.8701 1.84698  10
  -9  -1  -5 23.0263 2.70097   6
  -9  -2   5 30.6275 2.18783   4
  -9  -2   5 30.8626 2.14069  10
  -9  -2   5 27.8070 2.80460   6
  -8  -2   5 34.9319 2.46858  10
  -8  -2   5 37.1957 2.53381   4
  -8  -2   5 33.9728 3.30324   6
  -8   2   5 29.1349 3.92158   6
  -8   2   5 28.2010 3.33108   1
  -7  -2   5 174.344 9.46357  10
  -7  -2   5 172.257 10.3949   6
  -7  -2   5 174.022 9.52241   4
  -7   2   5 181.969 11.0157   6
  -7   2   5 179.575 10.5811  10
  -7   2   5 167.225 10.8019   1
   6  -2  -5 80.8574 6.36317   7
  -6  -2   5 87.9074 5.77629   6
  -6  -2   5 84.5745 4.91415  10
  -6  -2   5 82.4744 4.99501   4
  -6   2   5 86.4874 6.42040   7
  -6   2   5 87.4687 5.05365  10
  -6   2   5 90.2208 6.25660   6
   6   2  -5 90.8661 5.34741   8
  -6   2   5 82.8467 6.17313   1
  -5  -2   5 46.4793 4.25075   2
   5  -2  -5 57.1069 4.45626   7
  -5   2   5 43.3678 3.85401   1
   5   2  -5 41.1289 3.07780   8
  -5   2   5 44.3446 5.21183   6
  -5   2   5 48.8123 4.16789   7
   4  -2  -5 145.587 9.25216   7
   4  -2  -5 131.244 14.7426   5
  -4  -2   5 164.103 9.52720   2
  -4   2   5 164.691 9.47177   7
   4   2  -5 153.793 17.9369   5
   3  -2  -5 21.2041 5.01316   5
   3  -2  -5 20.1153 2.31351   7
  -3  -2   5 22.5960 2.33337   2
  -3   2   5 24.2756 2.47115   7
   3   2  -5 23.7935 6.71924   5
   3   2  -5 21.7261 5.09326   9
   2  -2  -5 45.9040 6.49315   5
   2  -2  -5 40.6313 3.31052   7
   2  -2  -5 42.4285 6.02181   9
  -2  -2   5 42.3986 3.26711   2
  -2   2   5 52.6774 3.59056   7
   1  -2  -5 264.278 18.3445   5
  -1  -2   5 246.723 13.4729   2
   1  -2  -5 243.474 18.0273   9
   0  -2  -5 143.703 11.9047   9
   0   2   5 118.310 7.64917   2
   1   2   5 103.978 6.33628   2
  -2  -2  -5 66.9573 4.27276   2
   2   2   5 59.6494 4.21777   2
  -2   2  -5 54.7980 4.58538   7
  -3  -2  -5 53.9504 4.19283   2
  -3   2  -5 55.8069 4.67106   7
   3   2   5 61.0385 4.31368   2
  -4  -2  -5 129.230 6.99040   8
  -4  -2  -5 129.579 8.05956   2
  -4   2  -5 110.470 8.20722   7
   4   2   5 120.971 7.95564   2
  -5  -2  -5 245.459 13.0550   8
  -5  -2  -5 258.035 14.5718   2
  -5  -2  -5 237.578 13.4069   6
  -5  -2  -5 235.887 12.8595   3
  -5   2  -5 212.671 14.3490   7
   5   2   5 244.670 14.4941   2
   5   2   5 250.835 12.9650   3
  -6  -2  -5 29.0456 2.31554   4
  -6  -2  -5 32.4176 2.70716   8
  -6  -2  -5 31.5438 3.06644   6
  -6  -2  -5 32.0513 2.47648   3
   6   2   5 33.6213 2.59114   3
  -7  -2  -5 91.6112 5.47903   4
  -7  -2  -5 93.6139 6.35862   6
  -7  -2  -5 95.9974 5.86787   8
  -8  -2  -5 18.8962 1.75296  10
  -8  -2  -5 19.4178 1.87021   4
  -8  -2  -5 15.6101 1.84835   8
  -8  -2  -5 18.8102 2.59338   6
   8   2   5 21.0274 2.10010   8
  -9  -2  -5 5.58120 1.13972  10
  -9  -2  -5 5.19436 0.97857   4
  -9  -3   5 24.7977 2.25895   4
   9   3  -5 20.7870 2.20712   4
  -8  -3   5 7.23323 1.26258   4
  -8  -3   5 5.64356 1.62688   6
  -8  -3   5 7.86706 1.10788  10
  -8   3   5 5.04407 1.89691   1
  -7  -3   5 17.4111 2.43035   6
  -7  -3   5 18.3430 1.92519  10
  -7  -3   5 17.0602 1.79615   4
  -7   3   5 20.8006 3.05784   1
   7   3  -5 21.0894 2.18787   8
  -6  -3   5 9.31920 1.30835   4
   6  -3  -5 9.03624 2.40530   7
  -6   3   5 11.1855 2.47403   7
  -6   3   5 14.5335 2.70547   1
   6   3  -5 13.6110 1.80718   8
   5  -3  -5 161.416 11.0410   7
   5  -3  -5 175.440 11.0425   6
  -5   3   5 178.096 11.0492   1
   5   3  -5 185.600 9.92423   8
  -5   3   5 186.608 11.3910   7
   4  -3  -5 59.1135 4.71266   7
  -4   3   5 44.0910 4.15738   1
   4   3  -5 46.4530 3.32302   8
  -4   3   5 51.6931 4.53066   7
   3  -3  -5 84.7971 10.8902   5
   3  -3  -5 94.8722 6.43586   7
   3   3  -5 92.3064 5.36765   8
  -3   3   5 93.4326 6.43586   7
   2  -3  -5 165.286 15.0363   5
   2  -3  -5 153.537 9.24210   7
  -2   3   5 150.107 9.33393   7
   1  -3  -5 43.8204 3.61414   7
  -1   3   5 55.7404 3.92595   7
   0   3  -5 52.8881 4.32156   7
  -1   3  -5 9.23975 2.13341   7
   2  -3   5 54.7414 8.26538   5
  -2   3  -5 58.6335 4.94354   7
  -3  -3  -5 46.4143 3.88176   2
  -3  -3  -5 43.6596 3.04467   8
   3  -3   5 38.7912 6.83003   5
  -3  -3  -5 41.5033 2.89640   3
   3   3   5 45.7627 3.03043   3
  -3   3  -5 45.8383 4.52882   7
  -4  -3  -5 59.1715 3.71180   8
  -4  -3  -5 56.2240 3.96193   6
  -4  -3  -5 55.3166 3.48803   3
  -4  -3  -5 57.4651 4.61734   2
   4   3   5 49.0854 4.45458   2
   4   3   5 49.8302 3.51591   3
  -4   3  -5 47.0277 4.91653   7
  -4   3  -5 44.3913 4.02131   1
  -5  -3  -5 36.5932 2.74473   3
  -5  -3  -5 34.4139 2.52966   4
  -5  -3  -5 38.8864 3.06496   8
  -5  -3  -5 37.7918 3.30720   6
   5   3   5 35.4503 2.82978   3
  -5   3  -5 33.7245 4.21068   7
  -5   3  -5 34.7646 3.46069   1
  -6  -3  -5 31.3767 2.75267   8
  -6  -3  -5 32.1191 2.25740   4
  -6  -3  -5 33.3864 3.09538   6
  -6  -3  -5 30.7230 2.45146   3
   6   3   5 25.6202 2.43126   3
  -6   3  -5 22.6556 3.55900   7
   6   3   5 26.3617 2.72400   8
  -6   3  -5 21.8050 2.91433   1
  -7  -3  -5 28.3732 2.24555   4
  -7  -3  -5 28.7818 2.93625   6
  -7  -3  -5 27.2815 2.52514   8
   7   3   5 27.1538 2.70881   8
   7   3   5 27.0523 2.40363   3
  -8  -3  -5 14.1040 1.37133  10
  -8  -3  -5 11.8938 2.00104   6
  -8  -3  -5 14.3406 1.43870   4
  -7   4   5 11.0799 2.37616   1
   7   4  -5 10.1574 1.57184   8
   6   4  -5 41.7177 3.29239   8
  -6   4   5 41.7390 4.39501   1
   5  -4  -5 55.4045 4.92353   7
  -5   4   5 49.1773 4.89515   1
   5   4  -5 51.2939 3.72692   8
  -5   4   5 45.1342 4.71439   7
   4  -4  -5 203.172 13.1987   7
   4   4  -5 218.496 11.8019   8
  -4   4   5 219.982 13.2740   7
  -4   4   5 212.913 13.1836   1
   4   4  -5 213.127 11.5153   3
   3  -4  -5 384.984 20.8136   7
   3   4  -5 378.635 19.3513   8
  -3   4   5 334.879 20.4280   1
  -3   4   5 367.338 20.7107   7
   3   4  -5 357.878 19.0918   3
   2  -4  -5 87.0999 6.39727   7
  -2   4   5 96.7467 6.64147   7
   2   4  -5 97.6879 5.44843   3
   2   4  -5 93.6413 5.59357   8
   1   4  -5 370.856 19.8150   8
   1   4  -5 384.232 19.6970   3
   0  -4   5 14.4510 1.81713   1
   0   4  -5 11.5820 1.91005   1
   0   4  -5 12.0735 1.33613   3
   1  -4   5 86.4000 13.7456   5
  -1   4  -5 95.6007 5.45081   3
  -1   4  -5 97.2957 7.17835   7
   1   4   5 94.2442 5.53677   3
  -1   4  -5 94.5814 6.26277   1
  -2  -4  -5 151.311 8.81592   6
  -2   4  -5 145.707 10.0337   7
  -2   4  -5 140.633 8.07396   3
   2   4   5 144.882 8.22092   3
  -2   4  -5 144.225 8.99771   1
  -3  -4  -5 294.744 14.8728   8
  -3  -4  -5 290.141 15.3493   6
   3   4   5 294.993 14.8904   3
  -3   4  -5 268.973 16.8270   7
  -3   4  -5 262.756 15.5476   1
   3   4   5 222.228 15.7354   8
  -4  -4  -5 68.0188 4.68909   8
  -4  -4  -5 67.3410 4.95002   6
   4   4   5 73.5728 4.69409   3
  -4   4  -5 68.3999 5.39523   1
   4   4   5 77.0400 4.89144   8
  -4   4  -5 65.5461 6.42833   7
  -5  -4  -5 53.0455 3.91427   6
  -5  -4  -5 52.2342 3.59834   8
   5   4   5 41.8105 3.30646   3
   5   4   5 39.6495 3.51413   8
  -5   4  -5 39.3908 3.95615   1
  -5   4  -5 37.4262 4.69901   7
  -6  -4  -5 27.3106 2.54646   8
  -6  -4  -5 27.2145 2.87448   6
   6   4   5 24.4468 2.60442   8
  -6   4  -5 24.6306 2.98862   1
   6   4   5 26.1199 2.43004   3
  -7  -4  -5 35.4028 3.04455   6
  -7  -4  -5 38.1571 2.33537  10
  -7  -4  -5 41.9263 2.70862   4
   7   4   5 32.2260 2.81933   8
  -7   4  -5 27.6112 2.90251   1
   7   4   5 29.5945 2.49166   3
  -6   5   5 5.09428 2.02448   1
  -5   5   5 59.2844 5.32925   1
   5   5  -5 56.5822 3.68334   3
   5   5  -5 60.2579 4.05032   8
   4  -5  -5 48.0280 4.99380   7
   4   5  -5 61.6318 3.68288   3
  -4   5   5 47.8717 4.77243   7
   4   5  -5 62.2564 3.98581   8
  -4   5   5 55.0524 5.18090   1
  -3   5   5 732.811 41.1968   7
   3   5  -5 776.418 39.4748   8
   3   5  -5 775.614 39.2367   3
   2   5  -5 64.1078 4.08656   3
   2   5  -5 63.6909 4.36142   8
   1   5  -5 30.6588 2.44938   3
   0   5  -5 3.49052 2.17913   1
   0   5  -5 3.98553 1.31460   3
   1  -5   5 88.7840 6.29562   1
   1   5   5 99.7672 5.94845   3
  -1   5  -5 103.225 5.89690   3
  -1   5  -5 101.931 6.82248   1
  -2   5  -5 91.6317 5.59560   3
  -2   5  -5 88.1640 6.43585   1
  -2   5  -5 88.3955 7.42544   7
   2   5   5 93.2693 5.70009   3
  -3  -5  -5 63.6341 5.43704   6
   3   5   5 72.4892 4.63439   3
  -3   5  -5 65.8777 5.31972   1
  -3   5  -5 66.1018 6.27167   7
  -4  -5  -5 400.344 21.3249   6
   4   5   5 376.413 20.9420   3
  -4   5  -5 369.390 21.7185   1
  -4   5  -5 439.878 26.2191   7
  -5  -5  -5 69.4405 4.79872   6
   5   5   5 64.3654 4.63110   8
  -5   5  -5 67.6368 5.07168   1
   5   5   5 67.8670 4.46510   3
  -6  -5  -5 22.0250 2.23632   6
  -6   5  -5 19.7892 2.28616   1
   6   5   5 17.2249 1.89621   3
   4   6  -5 16.9971 1.89493   3
   3   6  -5 165.470 9.10938   3
   2   6  -5 12.8991 1.71242   3
   1   6  -5 75.7096 4.73307   3
   0   6  -5 13.3229 1.83308   3
  -1   6  -5 72.1375 4.69948   3
   2  -6   5 53.8791 4.05052   1
  -2   6  -5 51.8119 4.39315   1
   2   6   5 51.2931 3.69606   3
   3  -6   5 45.1215 3.70568   1
   3   6   5 50.1493 3.56368   3
  -3   6  -5 54.4912 4.25280   1
   4  -6   5 12.3214 1.69772   1
  -4   6  -5 12.6037 1.96633   1
   4   6   5 13.3865 2.31025   3
  -9   0   6 4.47636 1.22510  10
  -8   0   6 95.3761 6.80010   6
  -8   0   6 103.027 5.75707   4
  -8   0   6 96.5481 5.71863  10
  -7   0   6 29.4732 3.22770   6
  -7   0   6 30.6987 2.30801  10
  -7   0   6 28.5927 2.36066   4
  -6   0   6 57.0046 4.36464   6
  -6   0   6 53.1116 4.81446   2
  -6   0   6 59.7569 3.52146  10
  -5   0   6 140.376 9.12532   2
   5   0  -6 151.105 16.9046   5
  -4   0   6 360.793 19.7464   2
   4   0  -6 345.338 19.4647   7
   4   0  -6 377.580 28.9146   5
  -3   0   6 245.190 13.7195   2
   3   0  -6 251.585 18.8773   9
   3   0  -6 246.734 21.3614   5
  -2   0   6 1665.62 82.1959   2
   2   0  -6 1561.76 87.2780   9
   2   0  -6 1594.10 90.8310   5
   1   0  -6 2011.53 109.779   5
  -1   0   6 2010.49 101.826   2
   1   0  -6 1978.82 106.316   9
   0   0   6 1986.26 98.4233   2
   0   0   6 1959.73 102.523   9
   0   0  -6 1825.11 104.884   5
   0   0  -6 1959.85 102.220   9
  -1   0  -6 1034.14 58.7462   9
   1   0   6 1106.64 56.1016   2
   1   0   6 1140.54 59.6951   9
  -2   0  -6 68.7212 4.46893   2
   2   0   6 66.5982 4.48610   2
   2   0   6 75.7509 6.65596   9
   3   0   6 0.62186 0.67878   2
   3   0   6 0.55989 0.82256   9
  -3   0  -6 0.83355 0.71098   2
  -4   0  -6 240.228 13.3999   2
   4   0   6 227.935 13.3561   2
  -5   0  -6 24.4934 2.06679   8
   5   0   6 24.8544 2.90739   2
  -5   0  -6 22.7456 2.79720   2
  -6   0  -6 58.2174 3.94668   8
  -6   0  -6 62.2659 5.23095   2
   6   0   6 59.5180 5.24304   2
  -7   0  -6 -0.0998 0.59917   4
  -9  -1   6 12.4132 1.46970  10
  -9  -1   6 14.8774 2.43688   6
  -9  -1   6 19.6550 1.70006   4
  -9   1   6 14.7383 1.56770  10
  -9   1   6 13.1607 2.51579   6
  -8  -1   6 86.4485 5.25908  10
  -8  -1   6 84.5986 6.23795   6
  -8  -1   6 87.0406 5.29007   4
  -8   1   6 97.9033 5.37140  10
  -8   1   6 95.2123 6.52437   6
  -7  -1   6 164.598 9.27932   4
  -7  -1   6 167.714 9.24613  10
  -7  -1   6 174.681 10.3048   6
  -7   1   6 176.174 10.6013   1
  -7   1   6 158.695 9.26689  10
  -7   1   6 177.201 10.4875   6
  -6  -1   6 75.5893 5.18760   6
  -6  -1   6 69.5795 5.83870   2
  -6  -1   6 75.9648 4.34746  10
  -6   1   6 77.0560 4.39790  10
  -6   1   6 71.2402 5.38893   1
  -6   1   6 70.9683 5.25119   6
   5  -1  -6 83.3847 12.5729   5
  -5  -1   6 87.4072 6.49423   2
   5  -1  -6 100.858 6.57303   7
  -5   1   6 93.2960 6.46040   2
  -5   1   6 95.5684 6.95597   1
   5   1  -6 95.2811 13.7924   5
  -4  -1   6 56.2926 4.23948   2
   4  -1  -6 50.0314 9.17489   5
   4  -1  -6 54.2257 4.08564   7
  -4   1   6 47.6600 3.93891   2
  -4   1   6 51.0982 3.96488   7
   4   1  -6 53.4311 9.57432   5
  -3  -1   6 65.2713 4.55791   2
   3  -1  -6 61.7464 4.33287   7
   3  -1  -6 69.7999 7.89406   9
   3   1  -6 66.2980 10.2143   5
  -3   1   6 62.9538 4.38854   2
  -3   1   6 63.4655 4.34166   7
   3   1  -6 61.6755 7.82457   9
   2  -1  -6 589.643 38.6109   5
   2  -1  -6 627.273 37.3666   9
  -2  -1   6 624.283 32.5840   2
  -2   1   6 642.064 32.5902   2
   2   1  -6 639.291 37.5397   9
   1   1  -6 7.91922 2.80401   9
  -1   1   6 6.21864 1.18144   2
   1   1  -6 6.63049 4.01716   5
   0  -1   6 1513.58 83.2096   9
   0  -1  -6 1572.78 83.7949   5
   0  -1  -6 1635.31 82.9583   9
   0  -1   6 1619.99 78.7952   2
   0   1  -6 1497.65 82.5104   9
   0   1   6 1528.86 78.9565   2
   0   1   6 1444.34 82.5777   9
   1  -1   6 650.163 37.7653   9
   1  -1   6 669.261 34.3507   2
   1   1   6 669.999 34.5026   2
   2  -1   6 135.962 7.96576   2
  -2  -1  -6 135.079 8.10505   2
   2  -1   6 134.406 9.66572   9
   2   1   6 155.702 8.29938   2
   3  -1   6 42.5871 3.46258   2
  -3  -1  -6 44.6359 3.61996   2
  -3   1  -6 50.5356 4.02588   7
   3   1   6 57.1817 3.85378   2
  -4  -1  -6 3.66620 1.33145   2
   4   1   6 5.25671 1.47794   2
  -5  -1  -6 14.6227 1.47057   3
  -5  -1  -6 13.0998 2.26653   2
  -5  -1  -6 13.6278 1.65927   8
   5   1   6 14.6056 2.38182   2
  -6  -1  -6 91.9405 5.52000   8
  -6  -1  -6 90.1038 5.97922   6
  -6  -1  -6 85.3806 5.21401   4
  -6  -1  -6 87.5594 5.41075   3
  -7  -1  -6 25.1138 2.35862   8
  -7  -1  -6 21.3597 1.96004   4
  -7  -1  -6 23.7811 2.96196   6
  -8  -1  -6 42.8279 2.91745   4
  -8  -1  -6 40.0662 3.76276   6
  -8  -1  -6 40.8278 2.82545  10
  -9  -1  -6 20.0407 1.62117   4
  -9  -1  -6 16.9736 1.62373  10
  -9  -2   6 39.9694 3.61901   6
  -9  -2   6 37.8397 2.47135   4
  -9  -2   6 34.2869 2.38185  10
   9   2  -6 33.8003 2.37317   4
  -8  -2   6 12.1438 1.47907  10
  -8  -2   6 10.8034 1.50405   4
  -8  -2   6 9.37598 2.09602   6
  -8   2   6 10.1800 2.29664   1
  -8   2   6 8.79148 2.33064   6
  -7   2   6 -0.0198 1.21560   6
  -7   2   6 0.22695 0.78394  10
  -6  -2   6 69.3844 4.97719   6
  -6  -2   6 66.2744 4.15274  10
   6  -2  -6 76.1604 5.75206   7
  -6  -2   6 66.7930 4.22797   4
  -6   2   6 71.8641 4.28936  10
  -6   2   6 75.3053 5.68109   7
  -6   2   6 68.6354 5.38843   6
  -6   2   6 71.0549 5.51871   1
  -5  -2   6 112.223 7.11506   6
   5  -2  -6 115.108 7.64135   7
  -5  -2   6 123.481 7.88541   2
  -5   2   6 103.301 7.23362   1
  -5   2   6 112.545 6.87997  10
   5   2  -6 105.000 6.30045   8
  -5   2   6 109.968 7.51206   7
  -5   2   6 104.891 7.10307   6
  -4  -2   6 642.329 31.4109   2
   4  -2  -6 592.820 31.0165   7
   4   2  -6 535.610 47.2877   5
   4   2  -6 535.678 29.9737   8
  -4   2   6 598.709 31.1911   7
  -3  -2   6 299.851 15.9550   2
   3  -2  -6 284.533 22.3739   5
   3  -2  -6 263.890 15.6629   7
  -3   2   6 294.392 15.8662   7
  -2  -2   6 255.829 13.7390   2
   2  -2  -6 256.760 19.3870   5
   2  -2  -6 237.874 13.6615   7
   2  -2  -6 234.000 18.3787   9
  -2   2   6 255.646 13.8060   7
  -1  -2   6 79.4519 4.74761   2
   1  -2  -6 79.1954 8.87592   9
  -1   2   6 70.2304 4.84542   2
   1   2   6 546.849 28.1364   2
  -1   2  -6 517.009 28.4711   7
  -2  -2  -6 271.654 15.0010   2
   2   2   6 280.829 15.1299   2
  -2   2  -6 260.619 15.4552   7
  -3  -2  -6 405.418 21.3383   2
   3   2   6 389.230 21.3249   2
  -3   2  -6 376.471 21.7474   7
  -4  -2  -6 158.006 9.66272   3
  -4  -2  -6 172.132 9.37324   8
  -4  -2  -6 166.492 10.4191   2
  -4   2  -6 166.352 10.7996   7
   4   2   6 182.987 10.5923   2
  -5  -2  -6 55.0754 3.68746   3
  -5  -2  -6 56.7068 4.95576   2
  -5  -2  -6 59.6039 3.91888   8
  -5  -2  -6 55.4743 4.21514   6
   5   2   6 62.2695 5.17608   2
  -5   2  -6 56.1503 5.15675   7
  -6  -2  -6 22.2518 1.91012   4
  -6  -2  -6 22.8078 2.63273   6
  -6  -2  -6 21.7300 2.02989   3
  -6  -2  -6 24.2356 2.35512   8
   6   2   6 19.1486 2.13070   3
  -7  -2  -6 20.7911 2.28886   8
  -7  -2  -6 21.5570 2.73183   6
  -7  -2  -6 18.6336 1.80506   4
  -8  -2  -6 21.1597 2.68891   6
  -8  -2  -6 20.9300 1.96701   4
  -8  -2  -6 19.2331 2.00405   8
  -8  -2  -6 20.8519 1.86031  10
   8   2   6 24.9966 2.28545   8
  -9  -2  -6 6.28152 1.00082   4
  -8  -3   6 24.1744 1.84002   4
  -8   3   6 16.1932 2.48792   1
  -7  -3   6 78.9230 4.56682   4
   7  -3  -6 72.5348 7.25541   6
   7   3  -6 69.9765 4.70701   8
  -7   3   6 78.5226 6.05894   1
   6  -3  -6 63.8838 5.26087   6
  -6  -3   6 60.7373 3.71616   4
   6  -3  -6 58.4320 5.24353   7
  -6   3   6 54.1333 5.02532   7
   6   3  -6 57.9532 4.03807   8
  -6   3   6 66.7775 6.05821   6
  -6   3   6 58.7645 5.21889   1
   5  -3  -6 234.776 13.9008   6
  -5  -3   6 215.399 12.7468   4
   5  -3  -6 248.961 14.2951   7
  -5   3   6 239.778 14.2669   7
  -5   3   6 230.704 14.0828   1
  -5   3   6 247.134 14.0685   6
   5   3  -6 226.485 12.7456   8
   4  -3  -6 51.6763 4.44045   6
   4  -3  -6 55.8470 4.82685   7
  -4   3   6 55.1416 4.80130   6
  -4   3   6 58.0703 4.82325   7
  -4   3   6 53.9236 4.61708   1
   4   3  -6 55.7417 3.67313   8
   3  -3  -6 59.9155 4.62150   7
   3  -3  -6 50.9063 8.77332   5
   3   3  -6 58.1480 3.73317   8
  -3   3   6 62.6535 4.69193   7
   2  -3  -6 42.5898 7.55213   5
   2  -3  -6 42.5491 3.53335   7
  -2   3   6 38.0721 3.45689   7
   1  -3  -6 47.9583 3.58558   7
  -1   3   6 39.1084 3.44005   7
   0   3  -6 65.9796 5.15195   7
  -1   3  -6 78.7876 5.98978   7
  -2   3  -6 6.65194 2.21098   7
  -3  -3  -6 114.008 6.17066   3
   3  -3   6 86.4577 10.7555   5
  -3  -3  -6 110.822 6.24379   8
  -3  -3  -6 113.493 7.25367   2
  -3   3  -6 102.641 6.74360   1
   3   3   6 110.177 7.48700   2
  -3   3  -6 99.0981 6.19894   3
   3   3   6 114.290 6.26196   3
  -3   3  -6 106.560 7.86552   7
  -4  -3  -6 98.2898 6.21127   6
  -4  -3  -6 100.024 5.71961   3
  -4  -3  -6 102.880 5.90874   8
  -4  -3  -6 100.776 7.02563   2
  -4   3  -6 90.4712 6.37447   1
  -4   3  -6 89.6608 7.45926   7
   4   3   6 91.3758 5.74343   3
   4   3   6 93.4357 6.99946   2
  -5  -3  -6 10.4241 1.42296   4
  -5  -3  -6 11.8058 2.08636   6
  -5  -3  -6 10.4420 1.82830   8
  -5  -3  -6 11.2013 1.60653   3
  -5   3  -6 12.4021 2.85215   7
   5   3   6 16.9934 1.89822   3
  -5   3  -6 15.1309 2.35527   1
  -6  -3  -6 27.2349 2.24401   4
  -6  -3  -6 29.5401 2.99100   6
  -6  -3  -6 31.8018 2.78354   8
  -6  -3  -6 27.8808 2.44981   3
   6   3   6 26.3612 2.53880   3
   6   3   6 30.0266 2.86141   8
  -6   3  -6 23.1539 3.63558   7
  -7  -3  -6 17.0812 1.97073   8
  -7  -3  -6 18.2586 2.46679   6
  -7  -3  -6 18.1568 1.77697   4
  -7  -3  -6 14.5862 1.78469   3
   7   3   6 17.3130 2.25008   8
   7   3   6 17.0046 1.86188   3
  -8  -3  -6 2.39183 0.73403   4
  -8  -3  -6 2.25822 1.03355   6
  -8  -3  -6 3.00455 0.89510  10
  -7   4   6 35.6152 3.66952   1
   7   4  -6 29.7561 2.52150   8
   6   4  -6 11.6525 1.87315   8
  -6   4   6 12.7804 2.83982   1
   5  -4  -6 60.7989 5.35406   7
   5   4  -6 61.6851 4.21946   8
  -5   4   6 59.4753 5.29091   7
  -5   4   6 59.0810 5.51457   1
   4  -4  -6 134.434 8.54350   7
   4   4  -6 121.130 7.00442   8
  -4   4   6 113.313 8.19284   7
   4   4  -6 110.067 6.61180   3
  -4   4   6 107.397 8.19190   1
   3  -4  -6 90.0278 6.82488   7
   3   4  -6 97.5007 5.51746   3
   3   4  -6 97.7063 5.76713   8
  -3   4   6 87.8992 6.79336   1
  -3   4   6 97.7559 6.91421   7
   2  -4  -6 16.7407 2.64263   7
  -2   4   6 16.6171 2.54329   7
   2   4  -6 16.9041 1.83606   8
   2   4  -6 17.3474 1.58660   3
  -1  -4   6 185.265 11.1868   1
   1   4  -6 204.809 10.9484   8
   1   4  -6 213.325 10.7982   3
   1   4  -6 197.844 11.5134   1
   0  -4   6 127.035 7.43966   1
   0   4  -6 123.490 6.91699   3
   0   4  -6 125.911 7.24589   8
   0   4  -6 117.480 7.61027   1
  -1  -4  -6 32.5554 3.28405   6
  -1   4  -6 37.7741 3.36950   1
  -1   4  -6 38.8963 2.65628   3
   1   4   6 35.6784 2.69277   3
  -1   4  -6 39.1043 4.23392   7
  -2  -4  -6 469.686 24.4990   6
  -2   4  -6 452.206 24.6001   1
  -2   4  -6 435.469 23.6638   3
  -2   4  -6 459.348 25.9734   7
  -3  -4  -6 153.587 9.48362   6
  -3   4  -6 158.567 11.1896   7
  -3   4  -6 154.866 9.23479   3
  -3   4  -6 158.692 9.79753   1
   3   4   6 165.752 9.10079   3
  -4  -4  -6 238.999 13.3269   8
  -4  -4  -6 239.701 13.6924   6
  -4  -4  -6 236.107 13.1999   3
   4   4   6 243.908 13.3282   3
  -4   4  -6 244.034 15.5479   7
   4   4   6 249.842 13.4885   8
  -4   4  -6 236.082 14.0349   1
  -5  -4  -6 23.0801 2.66460   6
  -5  -4  -6 22.0241 2.34615   8
  -5   4  -6 16.1537 3.34998   7
   5   4   6 18.1204 2.40768   8
  -5   4  -6 19.0853 2.81287   1
   5   4   6 18.2870 2.14556   3
  -6  -4  -6 12.1237 1.86811   8
  -6  -4  -6 12.6524 2.21479   6
   6   4   6 15.4723 1.86392   3
   6   4   6 13.9534 2.05711   8
  -6   4  -6 14.0970 2.27329   1
  -7  -4  -6 10.4408 1.31849   4
  -7  -4  -6 10.4868 1.82619   6
   7   4   6 8.69902 1.40057   3
   7   4   6 11.0530 2.37837   8
  -6   5   6 11.9762 2.43771   1
  -5   5   6 4.54753 2.39772   1
   5   5  -6 3.86078 1.43931   8
   4   5  -6 74.2262 4.36943   3
  -4   5   6 59.9712 5.74500   1
   4   5  -6 74.4585 4.68487   8
   3   5  -6 113.604 6.85490   8
   3   5  -6 114.016 6.57305   3
   2   5  -6 331.780 18.1151   8
   2   5  -6 345.755 17.9136   3
   1   5  -6 2.78766 0.98955   3
   0  -5   6 96.2081 6.58904   1
   0   5  -6 110.019 7.07981   1
   0   5  -6 105.369 6.11114   3
   1  -5   6 135.949 8.54661   1
  -1   5  -6 143.019 8.05248   3
  -1   5  -6 144.210 8.98919   1
  -2  -5  -6 86.3502 6.16181   6
  -2   5  -6 90.8510 6.37959   1
  -2   5  -6 89.1587 5.52075   3
   2   5   6 90.8613 5.64162   3
  -2   5  -6 84.7028 7.38429   7
  -3  -5  -6 134.914 8.55032   6
   3   5   6 143.016 8.30241   3
  -3   5  -6 144.624 9.04527   1
  -3   5  -6 137.741 10.2767   7
  -4  -5  -6 13.2869 2.09496   6
   4   5   6 14.3226 2.07122   3
  -4   5  -6 15.4162 2.45093   1
  -5  -5  -6 56.8941 4.29670   6
   5   5   6 59.7475 4.03190   3
  -5   5  -6 61.3139 4.68703   1
  -6  -5  -6 35.0795 2.98651   6
  -6   5  -6 40.9937 3.77523   1
   3   6  -6 4.52295 1.25583   3
   2   6  -6 8.39090 1.44153   3
   1   6  -6 29.0458 2.46597   3
   0   6  -6 45.8340 3.31125   3
  -1   6  -6 43.0760 4.33032   1
  -1   6  -6 45.9986 3.36355   3
   2  -6   6 74.6835 5.27444   1
  -2   6  -6 82.5936 5.74252   1
   2   6   6 79.7598 5.22982   3
   3  -6   6 40.0002 3.34283   1
  -3   6  -6 48.0484 3.82990   1
   3   6   6 43.0399 3.19877   3
   4  -6   6 25.0026 3.16433   1
  -9   0   7 127.133 6.99167  10
  -9   0   7 124.118 7.94005   6
   9   0  -7 127.712 6.93312   4
  -8   0   7 22.1508 2.98544   6
  -8   0   7 17.8833 1.97622  10
  -8   0   7 29.7475 2.20015   4
  -7   0   7 14.4790 1.72411   4
  -7   0   7 15.2238 1.61313  10
  -7   0   7 14.0026 2.61996   6
  -6   0   7 110.141 6.16413  10
  -6   0   7 109.974 7.01782   6
  -6   0   7 104.810 7.64324   2
  -6   0   7 112.328 7.22057   1
   5   0  -7 27.4791 7.80094   5
  -5   0   7 27.3670 2.99644   2
  -4   0   7 82.8285 5.66989   2
   4   0  -7 82.3630 5.57341   7
   4   0  -7 75.4385 11.9112   5
  -3   0   7 533.894 28.2695   2
   3   0  -7 537.030 34.4712   9
   3   0  -7 526.608 37.9808   5
   3   0  -7 533.988 28.1436   7
   2   0  -7 22.9910 6.35526   5
  -2   0   7 23.7284 2.29085   2
   2   0  -7 24.9613 5.02620   9
   1   0  -7 648.744 41.7080   5
   1   0  -7 642.986 38.1204   9
  -1   0   7 623.492 33.2168   2
   0   0  -7 282.185 18.8988   9
   0   0   7 269.954 19.0723   9
   0   0   7 284.288 15.0960   2
   1   0   7 1607.33 83.9216   2
   1   0   7 1676.94 89.5768   9
   2   0   7 1.17475 0.74651   2
   3   0   7 122.267 7.41578   2
  -3   0  -7 117.149 7.31916   2
   4   0   7 18.3166 2.29575   2
  -4   0  -7 16.7550 2.19719   2
  -5   0  -7 0.65041 0.59764   3
  -5   0  -7 0.65476 0.96935   2
  -5   0  -7 1.34176 0.68841   8
   5   0   7 0.50336 1.00301   2
  -6   0  -7 26.3150 3.88770   2
   6   0   7 25.6472 3.44311   2
  -6   0  -7 25.9279 2.37174   8
  -7   0  -7 3.32000 1.21324   4
  -9  -1   7 17.8671 2.42748   6
  -9  -1   7 17.5064 1.57840  10
  -9  -1   7 20.3074 1.73052   4
  -9   1   7 14.6918 2.53863   6
  -9   1   7 16.3889 1.66945  10
   9   1  -7 18.3647 1.57374   4
  -8  -1   7 58.1283 3.52977   4
  -8  -1   7 56.1690 4.53029   6
  -8  -1   7 53.7630 3.46786  10
  -8   1   7 47.2718 3.44161  10
  -8   1   7 50.1691 4.56067   6
  -7  -1   7 123.592 8.04946   6
  -7  -1   7 115.601 6.98928  10
  -7  -1   7 119.886 7.04708   4
  -7   1   7 142.802 8.59137   1
  -7   1   7 127.573 8.21529   6
  -7   1   7 124.869 7.07954  10
  -6  -1   7 181.572 10.0397  10
  -6  -1   7 190.438 10.9800   6
  -6  -1   7 193.919 10.3084   4
  -6   1   7 186.982 11.1123   6
  -6   1   7 188.333 10.1216  10
  -6   1   7 184.710 11.3190   1
   5  -1  -7 208.886 22.0591   5
  -5  -1   7 216.972 13.1269   2
   5  -1  -7 232.825 13.0964   7
   5   1  -7 217.555 23.1627   5
  -5   1   7 211.424 12.6271   1
  -5   1   7 227.361 13.0925   2
   4  -1  -7 35.4193 3.25927   7
   4  -1  -7 34.3635 8.14521   5
  -4  -1   7 33.7402 3.26586   2
   4   1  -7 30.4717 8.00182   5
  -4   1   7 32.3209 3.10384   2
   3  -1  -7 312.816 23.0300   9
   3  -1  -7 324.362 17.7442   7
  -3  -1   7 328.158 17.9581   2
  -3   1   7 326.751 17.8554   2
  -3   1   7 328.048 17.7135   7
   3   1  -7 310.752 23.2147   9
   3   1  -7 362.807 28.5124   5
   2  -1  -7 368.997 25.3819   9
   2  -1  -7 347.706 20.4832   7
   2  -1  -7 338.953 26.5832   5
  -2  -1   7 413.697 20.3486   2
   2   1  -7 373.297 25.2787   9
   2   1  -7 408.326 30.2304   5
  -2   1   7 396.442 20.3105   2
   1  -1  -7 292.660 21.9100   5
   1  -1  -7 294.225 20.6464   9
  -1  -1   7 328.012 16.3292   2
  -1   1   7 300.622 16.3390   2
   1   1  -7 291.096 20.5242   9
   0  -1   7 1182.30 60.2307   2
   0  -1  -7 1123.74 64.4975   9
   0   1   7 1216.15 60.4485   2
   1  -1   7 86.5085 5.28329   2
   1   1   7 82.5064 5.41089   2
   2  -1   7 100.761 6.02779   2
  -2  -1  -7 96.4349 6.06004   2
   2   1   7 92.2322 6.08397   2
   3  -1   7 6.15586 1.43377   2
  -3  -1  -7 4.30111 1.25580   2
   3   1   7 8.15941 1.49151   2
  -3   1  -7 8.76239 1.91203   7
  -4  -1  -7 147.476 8.93273   2
   4   1   7 135.234 8.85941   2
  -5  -1  -7 129.437 7.46503   8
  -5  -1  -7 124.320 8.59696   2
  -5  -1  -7 124.938 7.26633   3
   5   1   7 143.740 8.96511   2
  -6  -1  -7 91.4817 5.57531   3
  -6  -1  -7 98.1602 6.31226   6
  -6  -1  -7 94.1539 5.81831   8
  -6  -1  -7 92.2682 5.47363   4
  -7  -1  -7 138.335 8.68333   6
  -7  -1  -7 136.400 8.03977   8
  -7  -1  -7 138.341 7.70337   4
  -8  -1  -7 45.1083 3.00560  10
  -8  -1  -7 44.6264 3.06783   4
  -9  -1  -7 1.51915 0.59738   4
  -9  -2   7 51.4602 3.10880   4
   9   2  -7 48.5523 3.04667   4
   8  -2  -7 5.12979 1.96965   6
  -8  -2   7 4.80871 1.16619  10
  -8  -2   7 1.97007 0.77173   4
  -8  -2   7 3.51482 1.79156   6
  -8   2   7 1.61175 0.97691  10
  -8   2   7 1.34571 1.65982   6
  -8   2   7 2.97402 1.91478   1
  -7  -2   7 3.53588 1.22842   4
  -7  -2   7 4.97761 1.91718   6
  -7  -2   7 4.19635 1.16907  10
  -7   2   7 5.46171 1.28138  10
  -7   2   7 2.49044 1.52594   6
  -7   2   7 3.32236 2.13616   1
  -6  -2   7 15.3485 2.32808   6
   6  -2  -7 21.2820 3.01983   7
  -6  -2   7 11.8161 1.48761   4
  -6  -2   7 11.7632 1.43986  10
  -6   2   7 16.6560 1.69684  10
  -6   2   7 20.1821 2.85094   1
  -6   2   7 15.4529 2.59898   6
   5  -2  -7 281.612 16.4351   7
  -5  -2   7 270.828 16.5553   2
  -5   2   7 289.774 16.3088   1
  -5   2   7 286.601 16.0024   6
  -5   2   7 284.955 14.9375  10
  -5   2   7 303.515 16.5359   7
   5   2  -7 267.743 15.0428   8
  -4  -2   7 183.675 11.0623   2
   4   2  -7 165.519 9.78187   8
  -4   2   7 196.111 11.0894   7
   3  -2  -7 665.445 35.9824   7
  -3  -2   7 719.560 36.2859   2
   3  -2  -7 619.767 43.9233   5
  -3   2   7 733.284 36.1649   7
   2  -2  -7 126.284 7.55316   7
   2  -2  -7 121.342 12.8308   5
   2  -2  -7 120.440 12.2107   9
  -2  -2   7 128.824 7.58366   2
   1  -2  -7 110.254 12.1383   5
   1  -2  -7 101.894 11.1125   9
   1  -2  -7 106.946 6.67116   7
  -1  -2   7 109.032 6.60052   2
  -1   2   7 123.679 6.83446   7
   0   2   7 9.22285 1.56549   2
   0   2  -7 9.66854 2.10527   7
   1   2   7 51.4663 3.90500   2
  -1   2  -7 48.5453 4.25001   7
   2   2   7 114.529 7.30098   2
  -2   2  -7 114.558 7.78078   7
  -3  -2  -7 148.148 9.22011   2
   3   2   7 151.043 9.33524   2
  -3   2  -7 150.553 9.81600   7
  -4  -2  -7 45.7226 3.18070   8
  -4  -2  -7 42.1343 3.94481   2
  -4  -2  -7 42.7416 2.96469   3
   4   2   7 47.9329 4.14950   2
  -4   2  -7 44.9099 4.46965   7
  -5  -2  -7 58.1010 3.85606   8
  -5  -2  -7 55.7382 4.88904   2
  -5  -2  -7 52.2290 4.11903   6
  -5  -2  -7 55.9594 3.63219   3
  -5   2  -7 50.5120 5.03003   7
   5   2   7 55.6884 5.01938   2
  -6  -2  -7 98.8577 5.94187   8
  -6  -2  -7 94.5270 6.36426   6
  -6  -2  -7 94.1775 5.68393   3
  -6  -2  -7 91.6231 5.48880   4
   6   2   7 91.6893 5.76192   3
  -7  -2  -7 46.6652 3.98609   6
  -7  -2  -7 48.7165 3.21960   4
  -7  -2  -7 46.8536 3.44198   3
  -7  -2  -7 46.2497 3.59779   8
   7   2   7 48.9597 3.47193   3
  -8  -2  -7 16.4952 1.61691   4
  -8  -2  -7 13.3167 1.68743   8
  -8  -2  -7 15.4787 1.50806  10
  -8  -2  -7 14.6072 2.23145   6
   8   2   7 14.6447 1.85453   8
  -9  -2  -7 5.54601 0.89268   4
  -8  -3   7 15.7919 1.53067   4
   8   3  -7 15.8670 1.45042   4
  -8   3   7 12.5205 2.33591   1
  -7  -3   7 31.4882 2.39477   4
   7  -3  -7 24.3628 3.58173   6
  -7   3   7 30.7413 3.72099   1
  -7   3   7 43.8161 5.00443   6
  -6  -3   7 46.0998 3.07002   4
   6  -3  -7 45.4581 4.40728   6
   6  -3  -7 46.7987 4.53760   7
  -6   3   7 45.8386 4.59686   1
   6   3  -7 41.5664 3.29799   8
  -6   3   7 49.2582 5.29978   6
   5  -3  -7 194.546 11.6819   7
   5  -3  -7 177.629 11.3171   6
  -5  -3   7 177.523 10.6978   4
  -5   3   7 181.805 11.4839   7
   5   3  -7 183.385 10.2730   8
  -5   3   7 185.347 11.5205   6
  -5   3   7 192.957 11.7994   1
   4  -3  -7 217.932 12.9935   7
   4  -3  -7 213.197 12.7235   6
  -4   3   7 216.182 13.0830   1
  -4   3   7 218.155 12.9774   7
  -4   3   7 213.217 12.7874   6
   4   3  -7 217.304 11.7821   8
   3  -3  -7 151.466 16.6217   5
   3  -3  -7 155.085 9.78045   7
   3   3  -7 162.539 8.88166   8
  -3   3   7 170.898 10.0579   7
   3   3  -7 157.753 8.72696   3
   2  -3  -7 165.727 9.66093   7
   2   3  -7 145.591 8.72347   8
  -2   3   7 168.038 9.72574   7
   1  -3  -7 85.5959 5.66797   7
  -1   3   7 78.4432 5.49210   7
   0   3  -7 107.514 7.52364   7
  -1   3  -7 11.7707 2.47917   7
  -2   3  -7 7.46489 2.35158   7
  -3  -3  -7 68.3962 4.15924   8
  -3  -3  -7 68.0128 4.04456   3
   3   3   7 64.0554 4.09996   3
   3   3   7 66.7492 5.22086   2
  -3   3  -7 57.4597 3.91010   3
  -3   3  -7 57.1802 4.53261   1
  -3   3  -7 61.8706 5.72920   7
  -4  -3  -7 432.609 23.1497   6
  -4  -3  -7 427.790 24.0770   2
  -4  -3  -7 458.008 22.8017   8
  -4  -3  -7 439.284 22.6367   3
  -4   3  -7 415.387 23.3125   1
   4   3   7 433.569 22.7166   3
  -4   3  -7 405.814 24.7308   7
   4   3   7 426.183 24.2071   2
  -5  -3  -7 101.379 5.91240   3
  -5  -3  -7 106.810 6.20539   8
  -5  -3  -7 102.241 6.47072   6
  -5  -3  -7 101.709 5.65967   4
  -5   3  -7 83.1637 7.54264   7
   5   3   7 91.8507 5.93921   3
  -5   3  -7 89.4210 6.54587   1
  -6  -3  -7 80.3236 5.74489   6
  -6  -3  -7 88.9800 5.28853   3
  -6  -3  -7 89.7538 5.49395   8
  -6  -3  -7 85.8391 5.03483   4
   6   3   7 84.6651 5.33860   3
  -6   3  -7 72.8610 6.80590   7
  -7  -3  -7 35.9793 2.79283   3
  -7  -3  -7 36.4004 2.93660   8
  -7  -3  -7 40.6425 2.65182   4
  -7  -3  -7 38.2507 3.37561   6
   7   3   7 32.4873 2.80331   3
   7   3   7 31.8433 3.01600   8
  -8  -3  -7 10.9615 1.24496  10
  -8  -3  -7 10.5726 1.80616   6
  -8  -3  -7 12.5112 1.39373   4
  -7   4   7 24.3083 3.12712   1
   6   4  -7 59.2995 4.12367   8
  -6   4   7 64.7590 5.61513   1
   5  -4  -7 156.726 11.0285   7
  -5   4   7 187.743 11.7281   1
  -5   4   7 167.825 11.1855   7
   5   4  -7 193.362 10.0136   8
   4  -4  -7 164.303 11.0502   7
  -4   4   7 175.304 11.1153   7
  -4   4   7 165.637 11.3153   1
   4   4  -7 182.323 9.61047   3
   4   4  -7 190.327 9.98119   8
   3  -4  -7 289.529 16.5513   7
   3  -4  -7 265.010 16.0452   6
   3   4  -7 293.955 15.2261   8
   3   4  -7 284.343 14.9363   3
  -3   4   7 275.292 16.2943   7
   2  -4  -7 140.724 9.67819   7
   2  -4  -7 127.179 9.16426   6
   2   4  -7 162.888 8.35788   3
   2   4  -7 160.110 8.56512   8
  -2   4   7 160.535 9.64529   7
   1  -4  -7 52.1683 4.70907   6
  -1  -4   7 53.6662 4.29142   1
   1   4  -7 75.4834 4.29514   8
   1   4  -7 74.9093 4.08338   3
   1   4  -7 70.3234 4.75405   1
   0  -4   7 151.137 9.84138   1
   0  -4  -7 150.558 10.2533   6
   0   4  -7 195.242 9.78038   8
   0   4  -7 187.240 10.3461   1
   0   4  -7 184.181 9.49613   3
  -1  -4  -7 73.9858 5.33566   6
  -1   4  -7 69.1039 4.38124   3
  -1   4  -7 70.5070 5.14990   1
  -1   4  -7 73.8902 6.31317   7
  -2   4  -7 56.0309 4.51222   1
  -2   4  -7 62.4623 5.92907   7
  -2   4  -7 58.0544 3.84456   3
   2   4   7 59.7529 4.01748   3
  -3  -4  -7 222.228 13.2689   6
  -3  -4  -7 228.356 12.7416   3
  -3   4  -7 220.279 12.5928   3
  -3   4  -7 233.050 15.1623   7
   3   4   7 248.375 12.9473   3
  -3   4  -7 241.118 13.5866   1
  -4  -4  -7 250.527 14.0940   6
  -4  -4  -7 255.005 13.7311   8
  -4  -4  -7 256.717 13.6419   3
  -4   4  -7 248.671 14.4131   1
  -4   4  -7 234.904 15.8497   7
   4   4   7 245.034 13.7049   3
   4   4   7 242.201 13.7998   8
  -5  -4  -7 25.7607 2.52157   8
  -5  -4  -7 24.5720 2.77159   6
   5   4   7 22.5072 2.35304   3
   5   4   7 22.1621 2.55284   8
  -5   4  -7 20.8756 2.88417   1
  -5   4  -7 18.1215 3.54132   7
  -6  -4  -7 63.5372 4.81719   6
  -6  -4  -7 65.7493 4.50597   8
  -6   4  -7 66.8371 4.99908   1
   6   4   7 69.5259 4.46539   3
   6   4   7 70.1442 4.68049   8
  -7  -4  -7 42.2217 2.63122   4
  -7  -4  -7 35.5192 3.16224   6
  -5   5   7 27.9326 3.71413   1
   5   5  -7 31.0170 2.61765   8
   4   5  -7 56.6769 3.98192   8
   4   5  -7 55.3338 3.63573   3
   3   5  -7 123.071 7.02183   3
   3   5  -7 122.465 7.31665   8
   2   5  -7 64.1067 4.43093   8
   2   5  -7 65.2324 4.17419   3
   1   5  -7 132.241 7.55973   3
   1   5  -7 133.150 7.88783   8
   0  -5   7 2.42965 1.53786   1
   0   5  -7 2.06647 1.30571   1
   0   5  -7 0.83727 0.86040   3
   1  -5   7 323.005 18.3648   1
  -1  -5  -7 330.504 18.6189   6
  -1   5  -7 344.705 18.8208   1
  -1   5  -7 342.201 17.8475   3
   2  -5   7 3.49413 1.53602   1
  -2  -5  -7 3.65695 1.76325   6
  -2   5  -7 4.58671 2.72960   7
   2   5   7 1.98115 1.03191   3
  -2   5  -7 4.80453 1.63929   3
  -2   5  -7 2.17762 1.37693   1
  -3  -5  -7 90.5497 5.93619   6
  -3   5  -7 84.6963 6.13545   1
  -3   5  -7 81.4305 7.46693   7
   3   5   7 84.7458 5.56190   3
  -4  -5  -7 10.3300 1.91316   6
   4   5   7 5.35669 1.70731   3
  -4   5  -7 6.98435 1.93504   1
  -5  -5  -7 12.9976 1.96966   6
  -5   5  -7 12.5829 2.06783   1
   5   5   7 11.8424 1.72376   3
  -6  -5  -7 24.3797 2.68138   6
   3   6  -7 149.770 8.28585   3
   2   6  -7 21.8378 2.05147   3
   1   6  -7 3.19403 1.29610   3
   0   6  -7 0.99731 0.95724   3
   1  -6   7 15.9197 2.08321   1
  -1   6  -7 18.8720 2.44910   1
  -1   6  -7 17.0441 1.99055   3
   2  -6   7 11.0940 1.76788   1
  -2   6  -7 12.3914 2.10258   1
   3  -6   7 23.3870 2.43141   1
  -3   6  -7 31.8261 2.94455   1
   3   6   7 24.0063 2.28949   3
  -9   0   8 3.75249 1.04972  10
   8   0  -8 8.63461 1.29058   4
  -8   0   8 9.44031 2.39483   6
  -8   0   8 8.70333 1.47087  10
  -8   0   8 8.65533 1.41234   4
  -7   0   8 74.6454 5.50202   6
  -7   0   8 73.9425 4.40399  10
  -7   0   8 70.7283 4.37910   4
  -7   0   8 67.9120 5.46783   1
  -6   0   8 22.7130 2.01023  10
  -6   0   8 24.5300 2.86662   6
  -6   0   8 30.4760 3.05348   1
  -5   0   8 121.928 8.00236   2
   5   0  -8 110.029 15.9942   5
  -5   0   8 117.813 7.40376   1
  -4   0   8 449.858 23.7124   2
   4   0  -8 433.618 35.0160   5
   4   0  -8 417.224 23.4933   7
  -3   0   8 0.63604 0.83169   2
   3   0  -8 0.05351 2.50618   5
   3   0  -8 0.64819 1.84684   9
   3   0  -8 0.72193 0.86358   7
   2   0  -8 129.927 12.6419   9
  -2   0   8 140.454 8.19467   2
  -1   0   8 16.6236 1.94078   2
   1   0  -8 15.9607 4.15167   9
   1   0  -8 17.2195 6.51425   5
   0   0   8 94.5618 5.89678   2
   1   0   8 262.422 14.5146   2
   2   0   8 32.2630 2.85184   2
   3   0   8 748.387 39.1983   2
  -3   0  -8 742.521 39.0859   2
   4   0   8 68.4938 5.19789   2
  -4   0  -8 67.4407 5.08981   2
  -5   0  -8 176.312 9.66083   8
  -5   0  -8 162.414 9.40773   3
   5   0   8 181.252 11.1703   2
  -5   0  -8 177.199 10.9169   2
  -6   0  -8 107.623 6.34757   8
  -6   0  -8 106.413 6.12837   3
  -6   0  -8 100.990 6.00203   4
  -7   0  -8 114.153 7.02124   4
  -9  -1   8 21.1788 1.76021  10
  -9  -1   8 23.6327 2.54894   6
  -9  -1   8 21.9388 1.83839   4
  -9   1   8 21.5760 2.92918   6
  -9   1   8 25.2309 1.94719  10
   9   1  -8 24.3650 1.79453   4
  -8  -1   8 25.1009 2.15820  10
  -8  -1   8 26.9885 3.11522   6
  -8  -1   8 28.3336 2.22855   4
  -8   1   8 24.4081 3.21596   6
  -8   1   8 28.4808 3.30378   1
  -8   1   8 24.3347 2.18895  10
  -7  -1   8 117.001 7.75300   6
  -7  -1   8 118.595 6.78363  10
  -7  -1   8 114.922 6.80144   4
  -7   1   8 126.835 6.87034  10
  -7   1   8 116.413 7.91356   6
  -7   1   8 130.542 8.33594   1
  -6  -1   8 21.2029 1.85664   4
  -6  -1   8 21.7477 1.78191  10
  -6  -1   8 21.9227 2.61666   6
  -6   1   8 22.4109 2.75140   6
  -6   1   8 20.6485 1.84741  10
  -5  -1   8 76.8626 6.07138   2
   5  -1  -8 85.0674 6.12347   7
  -5  -1   8 79.3391 5.41518   1
  -5   1   8 82.6916 5.59696   6
  -5   1   8 85.6503 6.15690   2
  -5   1   8 81.4685 5.78414   1
  -4  -1   8 461.321 25.3680   2
   4  -1  -8 434.782 35.6211   5
   4  -1  -8 477.172 25.2705   7
   4   1  -8 464.024 37.6903   5
  -4   1   8 483.723 25.3280   2
  -3  -1   8 295.745 16.5789   2
   3  -1  -8 302.607 16.4066   7
   3  -1  -8 250.123 24.1121   5
   3   1  -8 277.876 22.2532   9
   3   1  -8 320.648 17.3256   7
   3   1  -8 312.641 27.6483   5
  -3   1   8 320.864 16.6470   2
   2  -1  -8 1514.85 74.5145   7
   2  -1  -8 1225.43 80.1078   9
  -2  -1   8 1589.91 74.7948   2
   2   1  -8 1469.66 85.1585   9
  -2   1   8 1458.21 74.6736   2
   1  -1  -8 87.1028 9.55378   9
   1  -1  -8 79.4742 10.5817   5
  -1  -1   8 110.726 6.01234   2
  -1   1   8 90.4217 5.88584   2
   0  -1   8 159.637 9.54698   2
   0   1   8 176.190 9.77426   2
   1  -1   8 646.439 32.8927   2
   1   1   8 610.187 33.0792   2
   2  -1   8 339.163 17.1422   2
  -2   1  -8 292.947 17.4268   7
   2   1   8 303.056 17.1493   2
   3  -1   8 49.8306 3.89024   2
  -3  -1  -8 49.0415 3.92643   2
  -3   1  -8 49.4379 4.30438   7
   3   1   8 50.2611 4.04290   2
  -4  -1  -8 2.73573 1.28412   2
  -4  -1  -8 2.91825 1.10140   8
   4   1   8 3.41471 1.54002   2
  -4   1  -8 3.43115 1.47370   8
  -5  -1  -8 80.0945 6.33872   2
  -5  -1  -8 83.9570 5.05114   3
  -5  -1  -8 81.0432 5.59755   6
  -5  -1  -8 85.9134 5.25279   8
  -5   1  -8 83.6560 4.95431   3
   5   1   8 89.8407 6.64218   2
  -5   1  -8 85.9933 5.11774   8
  -6  -1  -8 4.11977 1.77197   6
  -6  -1  -8 1.20695 0.69128   4
  -6  -1  -8 1.57959 0.89926   8
  -6  -1  -8 1.58858 0.85222   3
  -7  -1  -8 38.2230 2.73581   4
  -7  -1  -8 36.8446 3.05681   8
  -8  -1  -8 77.9197 4.47920   4
  -8  -1  -8 66.9726 4.71730   8
  -8  -1  -8 75.0424 4.38149  10
  -9  -1  -8 -0.3150 0.45048   4
  -9  -2   8 22.0608 1.70433   4
   9   2  -8 21.1425 1.65377   4
   8  -2  -8 12.8678 2.45166   6
  -8  -2   8 13.6460 1.49860  10
  -8  -2   8 14.6881 1.56934   4
  -8  -2   8 14.9612 2.25831   6
  -8   2   8 6.74498 2.96839   6
  -8   2   8 13.2349 2.38527   1
  -8   2   8 12.6320 1.76466  10
  -7  -2   8 44.9041 3.84317   6
  -7  -2   8 48.7688 3.15969   4
  -7  -2   8 46.4736 3.06936  10
  -7   2   8 44.0245 4.46190   1
  -7   2   8 44.0842 4.46272   6
  -7   2   8 46.9242 3.22921  10
   6  -2  -8 173.344 11.5126   7
  -6  -2   8 182.820 9.87361  10
  -6  -2   8 176.608 10.9399   6
  -6  -2   8 184.032 9.97873   4
  -6   2   8 183.838 11.5064   1
  -6   2   8 191.402 11.2881   6
  -6   2   8 195.244 10.0412  10
   5  -2  -8 201.764 11.7622   7
  -5  -2   8 176.965 11.6631   2
  -5   2   8 188.666 10.0738  10
  -5   2   8 191.574 11.5363   1
  -5   2   8 185.022 11.1332   6
   5   2  -8 175.085 10.1739   8
   4  -2  -8 79.8519 5.59517   7
  -4  -2   8 59.3771 5.28479   2
  -4   2   8 85.6847 5.61430   7
  -4   2   8 70.5791 5.35098   1
   4   2  -8 65.2974 4.33864   8
   3  -2  -8 27.2420 6.99504   5
  -3  -2   8 35.5592 3.30131   2
   3  -2  -8 40.3739 3.43475   7
  -3   2   8 40.7079 3.41915   7
  -2  -2   8 55.0039 4.07182   2
   2  -2  -8 54.7456 4.12159   7
   2  -2  -8 49.6295 8.44754   5
   2  -2  -8 50.3906 8.00614   9
  -2   2   8 61.1363 4.22388   7
   1  -2  -8 30.2359 2.72151   7
  -1  -2   8 31.2382 2.73378   2
   1   2  -8 29.8551 3.49855   7
  -1   2   8 28.2114 2.75767   2
   0   2  -8 337.253 18.7999   7
   0   2   8 322.759 18.0920   2
   1   2   8 204.803 11.9957   2
  -1   2  -8 206.312 12.5018   7
  -2   2  -8 75.8181 5.93374   7
   2   2   8 72.5866 5.34139   2
  -3  -2  -8 342.418 20.3725   2
   3   2   8 394.358 20.7491   2
  -3   2  -8 373.268 21.1607   7
  -4  -2  -8 76.0203 5.59103   2
  -4  -2  -8 76.7110 4.55714   8
  -4  -2  -8 72.6958 4.33089   3
  -4   2  -8 62.2308 4.15733   3
  -4   2  -8 62.6453 5.79955   7
   4   2   8 69.2894 5.56935   2
  -5  -2  -8 97.9494 5.63288   3
  -5  -2  -8 100.880 5.87736   8
  -5  -2  -8 98.4235 6.21564   6
  -5  -2  -8 93.4742 8.05217   2
  -5   2  -8 76.5279 7.21139   7
   5   2   8 84.9409 8.26870   2
  -6  -2  -8 173.559 9.53606   4
  -6  -2  -8 171.136 9.71822   3
  -6  -2  -8 174.925 9.94522   8
  -6  -2  -8 169.539 10.3637   6
   6   2   8 180.234 9.85693   3
  -7  -2  -8 48.5148 3.43198   3
  -7  -2  -8 50.7808 4.16772   6
  -7  -2  -8 51.7061 3.77813   8
  -7  -2  -8 54.6656 3.37011   4
   7   2   8 46.1338 3.54481   3
  -8  -2  -8 7.72000 1.27455   4
  -8  -2  -8 8.21903 1.92650   6
  -8  -2  -8 8.78195 1.25903  10
  -8  -2  -8 8.00627 1.35707   8
   8   2   8 8.48524 1.52519   8
  -9  -2  -8 8.54528 1.02997   4
  -8  -3   8 3.29084 0.97861   4
   8  -3  -8 0.47260 1.32279   6
  -8   3   8 3.30135 1.76318   1
   8   3  -8 1.85367 0.62727   4
  -7  -3   8 14.5474 1.60591   4
   7  -3  -8 7.54696 2.72023   6
  -7   3   8 28.3484 4.46973   6
  -7   3   8 13.1860 2.77283   1
  -6  -3   8 22.3747 2.02101   4
   6  -3  -8 20.5658 3.31751   6
   6  -3  -8 27.7324 3.50699   7
  -6   3   8 23.2781 3.48021   1
  -6   3   8 31.2564 4.40663   6
   6   3  -8 20.5495 2.20444   8
   5  -3  -8 43.9669 4.31234   6
  -5   3   8 43.3321 4.52970   1
  -5   3   8 45.2603 4.38845   7
   5   3  -8 42.5651 3.24449   8
  -5   3   8 48.3302 4.65652   6
   4  -3  -8 279.268 15.3819   7
   4  -3  -8 241.829 14.8463   6
  -4   3   8 255.540 13.9160  10
  -4   3   8 256.299 14.9993   6
   4   3  -8 255.300 13.9802   8
  -4   3   8 250.248 15.3254   1
  -4   3   8 277.179 15.2959   7
   3  -3  -8 186.923 11.4025   7
   3  -3  -8 168.809 18.8964   5
  -3  -3   8 194.320 10.7885   1
   3   3  -8 201.350 10.4805   8
  -3   3   8 173.872 11.4315   1
  -3   3   8 212.817 11.6256   7
   2  -3  -8 140.300 8.48213   7
  -2   3   8 135.822 8.46296   7
   2   3  -8 127.626 7.53477   8
   1  -3  -8 118.722 7.37158   7
   1   3  -8 92.0540 5.92056   8
   0   3  -8 67.6282 5.68633   7
  -1   3  -8 219.939 13.6962   7
  -2  -3  -8 120.087 6.62349   3
  -2   3  -8 112.918 7.14335   8
  -2   3  -8 99.3902 7.46938   1
   2   3   8 116.073 6.67273   3
  -2   3  -8 117.424 8.33782   7
  -2   3  -8 99.2022 6.19636   3
  -3  -3  -8 21.8599 2.06656   8
  -3  -3  -8 20.1155 1.94875   3
  -3  -3  -8 17.9100 2.29240   6
  -3   3  -8 21.0637 3.46994   7
   3   3   8 22.1004 2.91346   2
   3   3   8 21.5143 2.11590   3
  -3   3  -8 19.2477 2.40480   1
  -3   3  -8 19.7176 1.88929   3
  -4  -3  -8 234.482 12.6025   8
  -4  -3  -8 225.750 12.4584   3
  -4  -3  -8 221.592 12.9314   6
   4   3   8 226.660 14.0763   2
   4   3   8 235.999 12.6000   3
  -4   3  -8 217.556 13.0570   1
  -4   3  -8 232.705 14.7179   7
  -4   3  -8 227.133 12.2708   3
  -5  -3  -8 36.2616 3.50091   6
  -5  -3  -8 39.4334 3.33145   8
  -5  -3  -8 38.0140 3.03397   3
  -5  -3  -8 36.6504 2.75765   4
  -5   3  -8 43.5472 3.84737   1
   5   3   8 45.6553 3.30306   3
  -5   3  -8 39.5442 4.73187   7
  -6  -3  -8 14.5554 1.81402   3
  -6  -3  -8 15.4415 2.33773   6
  -6  -3  -8 14.4566 1.64021   4
  -6  -3  -8 16.3121 2.06190   8
   6   3   8 12.7272 1.87430   3
  -7  -3  -8 13.6334 2.21075   6
  -7  -3  -8 12.1879 1.68399   8
  -7  -3  -8 13.6715 1.54386   4
  -7  -3  -8 12.2801 1.67323   3
   7   3   8 11.5529 1.71144   3
   7   3   8 11.1405 1.98756   8
  -8  -3  -8 4.18813 1.39051   6
  -8  -3  -8 3.61864 0.86736  10
  -8  -3  -8 4.65020 1.00531   4
  -7   4   8 10.8519 2.31616   1
  -6   4   8 38.0840 4.23603   1
   6   4  -8 37.4725 2.91396   8
   5  -4  -8 77.5140 6.06288   7
   5  -4  -8 62.5085 5.61486   6
   5   4  -8 69.3845 4.57061   8
  -5   4   8 64.7517 5.97114   1
   4  -4  -8 75.4026 5.71516   7
   4  -4  -8 63.6500 5.33393   6
  -4   4   8 58.7227 5.64406   1
   4   4  -8 66.3813 4.43955   8
  -4   4   8 67.3867 5.45900   7
   3  -4  -8 184.193 11.9025   6
   3  -4  -8 187.475 12.2464   7
  -3   4   8 203.227 12.3049   7
   3   4  -8 212.377 10.8562   3
   3   4  -8 210.633 11.1138   8
  -2  -4   8 86.7960 5.79657   1
   2  -4  -8 83.0027 6.09120   6
   2   4  -8 86.7393 5.00515   3
  -2   4   8 82.2870 6.15389   7
   2   4  -8 78.5560 5.16891   8
   1  -4  -8 2.19904 1.20119   6
  -1  -4   8 3.77647 1.31462   1
   1   4  -8 5.43247 1.40683   8
   1   4  -8 4.38299 1.20459   3
   1   4  -8 4.98159 1.51911   1
   0  -4   8 221.026 12.8604   1
   0  -4  -8 222.101 13.3432   6
   0   4  -8 242.875 12.4088   3
   0   4  -8 237.727 12.6477   8
   0   4  -8 228.261 13.1444   1
   1  -4   8 176.116 10.9201   1
  -1  -4  -8 178.275 11.3398   6
  -1   4  -8 204.928 12.9574   7
  -1   4  -8 204.301 10.5401   3
  -1   4  -8 200.098 11.3510   1
  -2  -4  -8 58.7648 4.39598   6
  -2   4  -8 48.9408 3.53462   3
  -2   4  -8 50.4000 4.23982   1
   2   4   8 48.5710 3.68723   3
  -2   4  -8 53.2817 5.62721   7
  -3  -4  -8 38.9882 3.27676   3
  -3  -4  -8 39.7459 3.77724   6
   3   4   8 48.0448 3.55473   3
  -3   4  -8 45.4082 3.26575   3
  -3   4  -8 43.5032 5.25320   7
  -3   4  -8 47.3603 4.02181   1
  -4  -4  -8 24.4350 2.45605   3
  -4  -4  -8 25.6207 2.81633   6
  -4  -4  -8 25.2271 2.57123   8
   4   4   8 24.7772 2.57836   3
  -4   4  -8 25.3586 4.12170   7
  -4   4  -8 26.4976 3.09086   1
   4   4   8 25.1040 2.74704   8
  -5  -4  -8 27.5147 2.95937   6
  -5  -4  -8 27.9554 2.59950   3
  -5  -4  -8 28.3263 2.71095   8
   5   4   8 27.0247 2.81704   8
  -5   4  -8 31.3354 3.26564   1
   5   4   8 26.7290 2.66758   3
  -5   4  -8 28.9552 4.23797   7
  -6  -4  -8 48.3278 3.86310   6
  -6  -4  -8 45.8618 3.49014   8
   6   4   8 47.7751 3.50044   3
  -6   4  -8 49.6878 3.98387   1
   6   4   8 49.5864 3.64721   8
  -7  -4  -8 47.7990 2.91403   4
  -7  -4  -8 43.6503 3.43977   6
  -5   5   8 169.215 11.7844   1
   5   5  -8 214.837 10.7505   8
   4   5  -8 76.9900 4.65446   3
   4   5  -8 76.9617 5.00163   8
   3   5  -8 31.2580 2.88448   8
   3   5  -8 34.3828 2.63386   3
   2   5  -8 50.4855 3.82634   8
   2   5  -8 54.7224 3.61435   3
   1   5  -8 58.5064 3.94178   3
   1   5  -8 59.6355 4.24974   8
   0  -5   8 151.932 9.55427   1
   0  -5  -8 155.603 10.0113   6
   0   5  -8 163.782 9.08137   3
   0   5  -8 175.553 10.0761   1
   1  -5   8 27.0645 2.93815   1
  -1  -5  -8 25.5516 3.18645   6
  -1   5  -8 36.8430 2.74507   3
  -1   5  -8 34.2095 3.39445   1
  -2  -5  -8 431.335 23.6706   6
   2  -5   8 428.683 23.4381   1
  -2   5  -8 465.751 23.9339   1
   2   5   8 396.105 23.0056   3
  -2   5  -8 423.159 22.9307   3
  -2   5  -8 465.128 25.8963   7
   3  -5   8 19.9466 2.42216   1
  -3  -5  -8 20.5783 2.56571   6
  -3   5  -8 22.5677 2.75673   1
  -3   5  -8 23.8190 2.37204   3
   3   5   8 23.0505 2.46188   3
  -3   5  -8 24.7237 4.17112   7
  -4  -5  -8 34.6826 3.22301   6
   4  -5   8 31.7055 3.05247   1
  -4   5  -8 43.1241 3.60703   1
   4   5   8 33.2836 2.94142   3
  -5  -5  -8 14.1162 2.00366   6
   5  -5   8 13.1811 1.84676   1
  -5   5  -8 12.4353 1.99389   1
   5   5   8 11.4606 1.69843   3
   3   6  -8 36.6918 2.64607   3
   2   6  -8 23.4422 2.11562   3
   1   6  -8 0.50121 0.87405   3
   0   6  -8 48.6916 3.43159   3
   1  -6   8 24.0191 2.50590   1
  -1   6  -8 27.1592 2.45509   3
  -1   6  -8 29.9789 2.96938   1
   2  -6   8 14.3321 1.97391   1
  -2   6  -8 20.8872 2.00819   3
  -2   6  -8 21.6503 2.47136   1
   3  -6   8 4.05235 1.27568   1
  -3   6  -8 4.62437 1.50052   1
  -9   0   9 19.4494 2.56850   6
  -9   0   9 20.1507 2.32193   4
   9   0  -9 20.9265 1.67254   4
  -9   0   9 21.0268 1.71830  10
  -8   0   9 115.201 6.37227  10
  -8   0   9 114.017 6.35846   4
  -8   0   9 110.308 7.39056   6
   8   0  -9 108.239 6.30133   4
  -7   0   9 438.910 23.9037   6
  -7   0   9 443.142 22.8237  10
  -7   0   9 443.892 22.8181   4
   7   0  -9 438.050 22.8036   4
  -7   0   9 426.449 24.0817   1
  -6   0   9 50.6567 4.29982   1
  -6   0   9 45.4815 3.18586   4
  -6   0   9 48.0127 4.03208   6
  -6   0   9 48.3617 3.16002  10
  -5   0   9 290.874 16.3153   6
  -5   0   9 301.736 17.1970   2
  -5   0   9 293.491 16.4758   1
   4   0  -9 73.4195 12.9366   5
   4   0  -9 66.5155 5.32693   7
  -4   0   9 74.4953 5.39721   2
   3   0  -9 1459.14 79.9100   7
  -3   0   9 1612.28 80.1188   2
   3   0  -9 1585.28 94.0070   5
   3   0  -9 1561.54 87.9911   9
   2   0  -9 889.989 57.2194   5
   2   0  -9 787.266 42.7737   7
  -2   0   9 807.992 42.8869   2
   2   0  -9 802.934 49.4875   9
  -1   0   9 204.240 11.6668   2
   0   0   9 640.397 33.6121   2
   1   0   9 63.7669 4.58914   2
   2   0   9 177.929 10.4967   2
   3   0   9 165.946 10.0763   2
  -4   0  -9 392.590 21.0645   8
   4   0   9 412.827 22.4179   2
   5   0   9 0.74212 1.15874   2
  -5   0  -9 1.06948 0.75926   8
  -5   0  -9 1.77113 0.76136   3
  -5   0  -9 0.85795 1.18278   2
  -6   0  -9 214.034 11.5465   8
  -6   0  -9 205.070 11.1682   4
  -6   0  -9 203.021 11.2823   3
  -7   0  -9 0.95452 0.77119   8
   9  -1  -9 54.2343 4.20580   6
  -9  -1   9 54.0124 3.27441  10
  -9  -1   9 52.7391 4.25774   6
  -9  -1   9 59.6196 3.36312   4
  -9   1   9 51.7234 3.36388  10
   9   1  -9 54.5753 3.31597   4
  -9   1   9 53.0928 4.34540   6
  -8  -1   9 23.3871 2.84013   6
  -8  -1   9 23.5111 1.95005  10
  -8  -1   9 25.1249 2.03945   4
  -8   1   9 20.3958 2.99876   1
  -8   1   9 22.1783 2.02306  10
   8   1  -9 22.9057 1.92065   4
  -8   1   9 19.9559 2.92383   6
  -7  -1   9 10.5847 1.51124  10
  -7  -1   9 11.1246 2.35121   6
  -7  -1   9 9.73329 1.52639   4
  -7   1   9 16.0696 1.69590  10
  -7   1   9 16.1618 2.67626   6
  -6  -1   9 49.2741 3.97002   6
  -6  -1   9 50.3902 4.12487   1
  -6  -1   9 44.6180 3.13425   4
  -6  -1   9 48.4566 3.11992  10
  -6   1   9 47.0845 4.13253   6
  -6   1   9 47.2390 3.15076  10
  -6   1   9 48.7415 4.40710   1
   5  -1  -9 85.5615 6.15429   7
  -5  -1   9 76.6624 5.19552   6
  -5  -1   9 84.8401 5.38932   1
  -5  -1   9 74.3805 5.93477   2
  -5  -1   9 78.0601 4.47540  10
  -5   1   9 69.3146 4.46823  10
  -5   1   9 75.5059 5.39081   6
  -5   1   9 78.8573 6.00720   2
  -5   1   9 71.6434 5.54270   1
  -4  -1   9 380.661 21.9149   2
   4  -1  -9 367.256 32.6245   5
   4  -1  -9 415.001 21.8387   7
  -4   1   9 411.666 21.9651   2
  -3  -1   9 45.0468 3.80228   2
   3  -1  -9 48.1798 3.78921   7
   3  -1  -9 38.5560 8.78409   5
   3   1  -9 46.0449 4.28522   7
  -3   1   9 41.1630 3.71001   2
   2  -1  -9 148.633 14.7622   9
  -2  -1   9 173.262 9.99243   2
   2  -1  -9 163.376 9.72682   7
  -2   1   9 180.135 10.0264   2
  -1  -1   9 20.8800 2.25893   2
   1  -1  -9 20.3005 2.23492   7
   1   1  -9 14.5620 2.60595   7
  -1   1   9 13.6485 2.01059   2
   0  -1   9 426.760 25.7777   2
   0   1   9 526.743 26.1443   2
   0   1  -9 511.835 26.6855   7
   1  -1   9 1474.88 72.4659   2
   1   1   9 1411.78 72.7193   2
  -1   1  -9 1341.36 73.0436   7
   2  -1   9 275.986 15.0978   2
   2   1   9 269.157 15.2519   2
  -2   1  -9 263.518 15.6154   7
   3  -1   9 317.718 16.9092   2
   3   1   9 293.152 16.6834   2
  -3   1  -9 273.669 16.8666   7
  -4  -1  -9 467.510 23.4333   8
  -4  -1  -9 396.226 23.1462   3
  -4  -1  -9 457.628 24.6280   2
  -4   1  -9 435.610 23.1474   3
   4   1   9 487.511 24.9477   2
  -4   1  -9 442.235 23.2919   8
  -5  -1  -9 81.6944 4.92476   8
  -5  -1  -9 74.8376 5.99407   2
  -5  -1  -9 72.3809 4.61029   3
  -5   1  -9 74.4536 4.71286   8
  -5   1  -9 75.4362 4.56531   3
   5   1   9 76.2017 6.26268   2
  -6  -1  -9 84.1447 4.98727   4
  -6  -1  -9 81.9410 5.14570   3
  -6  -1  -9 84.3339 5.37758   8
  -7  -1  -9 85.5210 5.55846   3
  -7  -1  -9 91.1846 5.71451   8
  -7  -1  -9 93.9235 5.38415   4
  -8  -1  -9 6.89083 1.43841   8
  -8  -1  -9 7.85858 1.32151   4
  -9  -1  -9 7.32857 0.97228   4
  -9  -2   9 12.8489 1.27869   4
   9   2  -9 11.3895 1.15754   4
  -8  -2   9 18.5141 1.70527  10
   8  -2  -9 22.7552 2.84695   6
  -8  -2   9 21.8849 2.48854   6
  -8  -2   9 20.1916 1.81617   4
  -8   2   9 16.0191 3.27567   6
  -8   2   9 17.9058 2.01810  10
  -8   2   9 20.3584 2.79374   1
   8   2  -9 18.8679 1.70639   4
   7  -2  -9 67.5453 5.42538   6
  -7  -2   9 70.1862 4.12456  10
  -7  -2   9 64.8107 4.96382   6
  -7  -2   9 64.0671 4.14740   4
  -7   2   9 71.9063 5.77459   1
  -7   2   9 67.8138 4.27538  10
  -7   2   9 66.4445 5.54632   6
  -6  -2   9 6.72482 1.24981   4
  -6   2   9 5.06667 1.38505  10
  -6   2   9 12.4778 2.44979   1
  -6   2   9 4.13377 2.23283   6
  -5  -2   9 318.985 18.9364   2
   5  -2  -9 348.397 18.9063   7
  -5   2   9 318.317 17.1490  10
  -5   2   9 317.948 18.2478   6
  -5   2   9 328.195 18.7371   1
  -4  -2   9 32.0510 3.29664   2
   4  -2  -9 25.7707 7.70109   5
  -4   2   9 25.0635 3.00016   1
   4   2  -9 24.6377 2.12365   8
   3  -2  -9 90.5573 5.81246   7
  -3  -2   9 97.2328 5.98090   2
   3  -2  -9 62.7572 11.0414   5
   3   2  -9 64.5119 4.92557   8
   2  -2  -9 138.583 8.66338   7
  -2  -2   9 137.269 8.67899   2
   2   2  -9 140.919 9.70265   7
  -2   2   9 157.170 9.28336   2
   1  -2  -9 122.754 7.53712   7
  -1   2   9 115.883 7.66829   2
   1   2  -9 129.746 8.71563   7
   0   2  -9 956.411 49.4289   7
   0   2   9 901.858 48.4750   2
  -1   2  -9 160.220 10.1497   7
   1   2   9 143.391 9.36796   2
   2   2   9 35.2224 3.50094   2
  -2   2  -9 40.3014 4.22504   7
  -3  -2  -9 74.9457 4.85469   8
  -3   2  -9 82.9348 6.57307   7
  -3   2  -9 78.6483 4.72736   8
   3   2   9 83.1561 6.04172   2
  -4  -2  -9 316.790 16.6230   6
  -4  -2  -9 306.938 16.0159   3
  -4  -2  -9 338.551 16.2507   8
  -4   2  -9 289.147 15.8315   3
  -4   2  -9 282.362 17.8818   7
   4   2   9 296.657 17.5565   2
  -4   2  -9 269.357 16.4316   8
  -5  -2  -9 77.9432 4.70187   4
  -5  -2  -9 84.0256 5.17824   8
  -5  -2  -9 75.2954 5.39630   6
  -5  -2  -9 75.3212 4.85672   3
  -5   2  -9 76.8453 4.67938   3
  -6  -2  -9 281.703 16.1738   6
  -6  -2  -9 287.380 15.3582   4
  -6  -2  -9 286.169 15.7612   8
  -6  -2  -9 280.741 15.5416   3
   6   2   9 309.737 15.7174   3
  -7  -2  -9 33.1593 2.76179   3
  -7  -2  -9 39.4483 2.69209   4
  -7  -2  -9 39.7345 3.50999   6
  -7  -2  -9 37.4922 3.11271   8
   7   2   9 36.6865 2.97163   3
  -8  -2  -9 61.6436 3.72639  10
  -8  -2  -9 62.1768 3.80955   4
  -8  -2  -9 62.5274 4.46790   6
  -8  -3   9 10.2072 1.22254   4
   8  -3  -9 9.57367 2.54374   6
  -8   3   9 15.1045 3.61311   6
   8   3  -9 9.37302 1.17368   4
   7  -3  -9 13.8431 3.01333   6
  -7  -3   9 18.1679 1.68626   4
  -7   3   9 11.4883 2.66754   1
   7   3  -9 13.7278 1.53465   4
  -7   3   9 28.4911 4.25238   6
   6  -3  -9 105.779 7.82693   6
  -6  -3   9 118.822 6.53020   4
   6  -3  -9 101.448 8.02343   7
  -6   3   9 119.475 7.24350  10
   6   3  -9 108.032 6.65276   8
  -6   3   9 137.760 8.45624   6
  -6   3   9 114.445 8.32436   1
   5  -3  -9 22.8436 3.33419   6
   5  -3  -9 29.4776 3.75138   7
   5   3  -9 28.2507 2.53176   8
  -5   3   9 34.6535 2.63009  10
  -5   3   9 38.4264 4.07887   6
  -5   3   9 31.0203 3.89964   1
   4  -3  -9 114.098 7.59613   7
   4  -3  -9 85.7180 6.98993   6
  -4   3   9 111.536 7.39910   6
  -4   3   9 99.7076 7.53683   1
  -4   3   9 114.354 6.17711  10
   4   3  -9 110.500 6.30793   8
   3  -3  -9 272.342 16.2693   6
  -3  -3   9 324.884 15.8399   1
   3  -3  -9 297.601 16.6439   7
  -3   3   9 303.750 15.8658  10
  -3   3   9 245.622 16.4711   1
   3   3  -9 288.553 15.5142   8
  -3   3   9 294.951 16.4852   6
  -3   3   9 296.933 16.7577   7
  -2  -3   9 104.542 6.53528   1
   2  -3  -9 105.029 6.85014   7
   2   3  -9 94.8586 5.82821   8
   2   3  -9 93.6876 5.58979   3
   1   3  -9 48.3638 3.29006   8
   1   3  -9 48.9489 4.88776   7
   0   3  -9 26.3840 2.30336   8
   0   3  -9 25.6426 3.62638   7
  -1   3  -9 60.2193 3.90524   3
  -1   3  -9 63.9708 4.08945   8
  -1   3  -9 68.9480 5.99887   7
  -2  -3  -9 168.947 8.86073   3
  -2   3  -9 142.495 8.65837   3
  -2   3  -9 150.346 9.28125   1
   2   3   9 156.080 8.89767   3
  -2   3  -9 162.434 8.83106   8
  -2   3  -9 172.138 11.1449   7
  -3  -3  -9 89.0130 5.52800   8
  -3  -3  -9 86.3523 5.42711   3
  -3  -3  -9 84.1505 5.92131   6
   3   3   9 92.2154 6.84583   2
  -3   3  -9 91.2507 6.00259   1
  -3   3  -9 92.5750 7.60832   7
   3   3   9 89.1994 5.56165   3
  -3   3  -9 87.8885 5.30282   3
  -4  -3  -9 208.044 11.7503   3
  -4  -3  -9 211.629 11.8873   8
  -4  -3  -9 208.133 12.2618   6
  -4  -3  -9 205.834 11.4506   4
   4   3   9 214.366 11.8828   3
  -4   3  -9 223.294 14.2847   7
  -4   3  -9 210.876 11.5583   3
  -4   3  -9 222.194 12.4562   1
  -5  -3  -9 57.6042 3.96026   3
  -5  -3  -9 57.7951 3.69457   4
  -5  -3  -9 54.0002 4.39670   6
  -5  -3  -9 57.3073 4.19133   8
  -5   3  -9 53.3818 5.75938   7
   5   3   9 61.2869 4.13624   3
  -6  -3  -9 16.0433 2.12063   8
  -6  -3  -9 14.8020 1.88438   3
  -6  -3  -9 15.9210 1.72635   4
  -6  -3  -9 14.3825 2.37516   6
   6   3   9 16.6870 2.06121   3
  -7  -3  -9 26.0584 2.29624   3
  -7  -3  -9 28.6758 2.21602   4
  -7  -3  -9 24.9052 2.37067   8
  -7  -3  -9 29.7137 2.90672   6
   7   3   9 29.0497 2.69569   8
   7   3   9 29.8938 2.46183   3
  -8  -3  -9 2.89428 0.82345  10
  -8  -3  -9 2.42834 0.88767   4
  -7   4   9 1.77447 1.31726   1
   6  -4  -9 39.1889 4.23705   6
   6   4  -9 30.4511 2.59688   8
  -6   4   9 29.7406 3.80875   1
   5  -4  -9 26.3118 3.37117   6
   5  -4  -9 31.4236 3.79312   7
  -5   4   9 27.7228 3.81973   1
   5   4  -9 28.6206 2.61428   8
   4  -4  -9 87.8430 6.61220   7
   4  -4  -9 88.0561 6.33981   6
  -4   4   9 69.4165 6.42446   1
   4   4  -9 89.9988 5.39005   8
   3  -4  -9 315.244 17.9274   7
   3  -4  -9 307.909 17.5269   6
   3   4  -9 314.608 16.5764   8
   3   4  -9 293.505 16.2367   3
  -2  -4   9 7.03719 1.56025   1
   2  -4  -9 7.23468 2.16602   6
   2   4  -9 14.0164 1.84863   8
   2   4  -9 12.9822 1.55993   3
  -1  -4   9 51.7564 3.96168   1
   1  -4  -9 52.2207 4.49074   6
   1   4  -9 55.0231 3.60429   3
   1   4  -9 57.2249 3.84869   8
   1   4  -9 57.3183 4.30422   1
   0  -4   9 182.255 11.2622   1
   0  -4  -9 202.153 11.9280   6
   0   4  -9 191.388 11.5468   1
   0   4  -9 205.261 15.0746   7
   0   4  -9 205.722 11.1512   8
   0   4  -9 212.926 10.9078   3
   1  -4   9 226.671 12.8081   1
  -1  -4  -9 230.499 13.2825   6
  -1   4  -9 222.984 14.8275   7
  -1   4  -9 222.784 13.0507   1
  -1   4  -9 232.253 12.5792   8
  -1   4  -9 225.940 12.3063   3
  -2  -4  -9 73.5030 4.81526   3
  -2  -4  -9 69.1771 5.38073   6
  -2   4  -9 81.7541 7.21617   7
  -2   4  -9 76.4995 5.48520   1
   2   4   9 75.6768 4.94363   3
  -2   4  -9 73.4796 4.74536   3
  -3  -4  -9 74.7182 4.55734   3
  -3  -4  -9 76.1100 5.12978   6
   3   4   9 55.0627 4.40413   3
  -3   4  -9 63.5558 5.00818   1
  -3   4  -9 61.0137 6.51596   7
  -3   4  -9 58.0597 4.19541   3
  -4  -4  -9 160.664 9.56356   6
  -4  -4  -9 156.946 9.33491   8
  -4  -4  -9 160.806 9.10158   3
   4   4   9 138.027 9.06494   3
  -4   4  -9 167.412 9.83450   1
  -4   4  -9 161.254 11.5380   7
  -4   4  -9 151.663 9.29836   3
  -5  -4  -9 70.0250 4.72732   3
  -5  -4  -9 65.9182 4.77675   8
  -5  -4  -9 68.5589 5.14074   6
   5   4   9 72.5666 4.81965   3
   5   4   9 70.6920 4.94072   8
  -5   4  -9 81.9537 5.48937   1
  -6  -4  -9 17.9853 2.04895   8
  -6  -4  -9 17.1686 2.25997   6
   6   4   9 20.7427 2.20327   8
   6   4   9 19.6878 2.04198   3
  -7  -4  -9 12.0787 1.22659   4
  -7  -4  -9 8.70368 1.61850   6
   5   5  -9 3.38265 1.39858   8
   4   5  -9 154.515 8.29305   8
   4   5  -9 125.573 8.77981   3
   3   5  -9 22.4351 2.13560   3
   3   5  -9 22.9829 2.47369   8
   2  -5  -9 179.115 13.8738   6
   2   5  -9 199.224 11.1627   8
   2   5  -9 211.318 10.9422   3
   1  -5  -9 59.2563 5.18381   6
  -1  -5   9 67.1127 4.70652   1
   1   5  -9 71.7127 4.38606   3
   1   5  -9 69.1260 4.69939   8
   0  -5  -9 135.503 9.40561   6
   0  -5   9 137.489 8.92936   1
   0   5  -9 162.950 8.62568   3
   0   5  -9 167.227 9.52529   1
  -1  -5  -9 213.819 13.1243   6
   1  -5   9 214.354 12.8026   1
  -1   5  -9 242.083 12.4545   3
  -1   5  -9 233.266 13.2392   1
  -2  -5  -9 32.9916 3.28037   6
   2  -5   9 33.2871 3.11933   1
  -2   5  -9 29.3811 4.61476   7
  -2   5  -9 30.2620 3.27489   1
  -2   5  -9 29.8582 2.75432   3
   3  -5   9 43.3866 3.62416   1
  -3  -5  -9 43.4040 3.80164   6
  -3   5  -9 48.2865 4.02609   1
   3   5   9 38.1611 3.35386   3
  -3   5  -9 50.5895 3.41103   3
  -4  -5  -9 24.6228 2.70298   6
   4  -5   9 24.4931 2.56144   1
   4   5   9 19.8120 2.34665   3
  -4   5  -9 28.3056 2.89151   1
  -5  -5  -9 45.6054 3.60003   6
   5  -5   9 45.2015 3.46975   1
  -5   5  -9 51.6463 3.82060   1
   5   5   9 41.8407 3.22251   3
   2   6  -9 29.5305 2.41979   3
   1   6  -9 15.4222 1.85492   3
   0   6  -9 3.91982 1.14844   3
   1  -6   9 85.0408 5.88711   1
  -1   6  -9 112.182 6.54226   1
  -1   6  -9 90.9590 5.72338   3
   2  -6   9 4.17575 1.26777   1
  -2   6  -9 6.16234 1.40640   3
  -2   6  -9 4.83313 1.50619   1
   3  -6   9 8.67851 2.21980   1
  -3   6  -9 15.0004 2.69274   1
   9   0 -10 3.90632 0.88835   4
  -9   0  10 4.40562 0.97370  10
  -9   0  10 3.83413 1.78695   6
  -8   0  10 20.0706 1.86171  10
  -8   0  10 22.2137 1.91549   4
  -8   0  10 19.5419 2.82252   6
   8   0 -10 20.0003 1.81930   4
  -7   0  10 52.9100 3.52226   4
   7   0 -10 55.3216 3.50802   4
  -7   0  10 54.6358 4.50819   6
  -7   0  10 53.5298 3.54150  10
  -6   0  10 70.2341 4.31626  10
  -6   0  10 72.3306 5.49762   1
  -6   0  10 72.5343 5.26827   6
   6   0 -10 72.7600 4.32534   4
  -6   0  10 69.2161 4.33448   4
  -5   0  10 52.3975 4.59868   2
  -5   0  10 49.8631 3.13403  10
  -5   0  10 45.8345 3.84520   6
  -5   0  10 48.8847 4.00534   1
  -4   0  10 70.0393 5.34670   2
   4   0 -10 69.8482 13.2323   5
   4   0 -10 65.2463 5.38502   7
  -3   0  10 3.25443 1.41860   2
   3   0 -10 3.79094 1.82698   7
   2   0 -10 1618.20 83.0023   7
  -2   0  10 1607.31 83.0927   2
  -1   0  10 112.213 7.28287   2
   1   0 -10 117.908 7.36980   7
   0   0  10 6.99899 1.54625   2
   0   0 -10 7.51568 2.00987   7
   1   0  10 999.301 52.7757   2
  -1   0 -10 1029.68 53.0627   7
   2   0  10 53.3219 4.24086   2
  -2   0 -10 47.8223 4.38433   7
   3   0  10 87.3270 6.23529   2
  -4   0 -10 0.97429 0.64563   3
  -4   0 -10 0.73607 0.65822   8
   4   0  10 0.68157 1.09096   2
  -5   0 -10 0.37205 0.70142   8
   5   0  10 0.10243 1.06752   2
  -5   0 -10 0.72937 0.72099   3
  -6   0 -10 10.4243 1.36208   4
  -6   0 -10 11.6945 1.76293   8
  -6   0 -10 9.48789 1.54485   3
  -7   0 -10 1.84328 0.87615   8
  -9  -1  10 5.16749 1.00104   4
  -9   1  10 4.69159 1.42520  10
   9   1 -10 5.49035 0.97260   4
  -8  -1  10 2.72184 0.81376   4
  -8  -1  10 3.23265 0.85003  10
  -8  -1  10 4.58553 1.82465   6
  -8   1  10 2.22407 1.54938   1
  -8   1  10 0.97701 0.88002  10
  -8   1  10 0.10788 1.22870   6
   8   1 -10 2.42164 0.74013   4
  -7  -1  10 100.678 6.01902  10
  -7  -1  10 106.178 6.06859   4
  -7  -1  10 108.399 7.00876   6
  -7   1  10 104.863 6.08606  10
  -7   1  10 103.930 7.19513   6
  -7   1  10 105.573 7.54249   1
   7   1 -10 107.200 6.05669   4
  -6  -1  10 368.956 21.3171   4
  -6  -1  10 389.921 22.1950   6
  -6  -1  10 398.732 21.2993  10
  -6  -1  10 391.370 22.3730   1
  -6   1  10 444.084 22.6070   6
  -6   1  10 441.811 21.4067  10
  -6   1  10 437.123 23.0290   1
  -5  -1  10 70.5536 5.01849   6
   5  -1 -10 74.6158 5.98764   7
  -5  -1  10 70.7228 5.86703   2
  -5  -1  10 75.2917 5.13411   1
  -5  -1  10 73.9915 4.26266  10
  -5   1  10 72.2752 5.47202   1
  -5   1  10 70.9784 4.26957  10
  -5   1  10 71.7975 5.23013   6
  -5   1  10 69.2571 5.76264   2
   4  -1 -10 189.882 11.1533   7
   4  -1 -10 165.338 20.3563   5
  -4  -1  10 188.835 11.3055   2
  -4   1  10 169.681 10.6967   1
  -4   1  10 182.542 11.1537   2
   3  -1 -10 0.92905 2.74311   5
  -3  -1  10 1.22096 1.08924   2
   3  -1 -10 1.48835 0.99834   7
  -3   1  10 1.59176 1.11114   2
   3   1 -10 3.83019 2.18997   7
   2  -1 -10 142.037 9.38864   7
  -2  -1  10 154.031 9.67081   2
  -2   1  10 154.554 9.63430   2
   2   1 -10 185.549 10.3913   7
   1  -1 -10 84.1079 6.07107   7
  -1  -1  10 91.4271 6.22269   2
  -1   1  10 97.9541 6.36605   2
   1   1 -10 107.324 7.05345   7
   0  -1  10 297.385 15.3378   2
   0  -1 -10 262.698 15.0904   7
   0   1 -10 279.785 16.0029   7
   0   1  10 250.932 15.1682   2
   1  -1  10 1498.81 74.1502   2
  -1   1 -10 1378.74 74.8516   7
   1   1  10 1441.63 74.4392   2
   2  -1  10 257.498 14.8798   2
  -2   1 -10 265.889 15.6570   7
   2   1  10 269.453 15.2373   2
   3   1  10 484.987 25.5506   2
  -3   1 -10 443.995 25.7502   7
  -4  -1 -10 16.6571 1.62385   3
  -4  -1 -10 19.1807 1.93522   8
  -4   1 -10 17.9871 1.84484   8
   4   1  10 15.4163 2.61417   2
  -4   1 -10 19.1336 1.68547   3
  -5  -1 -10 229.257 13.3902   3
  -5  -1 -10 253.874 13.6923   8
   5   1  10 254.994 15.4470   2
  -5   1 -10 250.076 13.5438   8
  -5   1 -10 261.140 13.3718   3
  -6  -1 -10 65.0549 4.45186   8
  -6  -1 -10 65.7374 4.04702   4
  -6  -1 -10 63.5336 4.19024   3
  -6   1 -10 57.1329 4.37600   8
  -6   1 -10 67.3574 4.08499   3
  -7  -1 -10 257.622 14.4483   8
  -7  -1 -10 271.519 14.1273   4
  -8  -1 -10 14.0557 1.49098   4
  -8  -1 -10 13.5915 1.71172   8
  -9  -2  10 1.83399 0.60634   4
   9   2 -10 2.20394 0.77753   4
  -8  -2  10 6.28141 1.04957  10
  -8  -2  10 6.72519 1.22281   4
   8  -2 -10 4.06527 2.14597   6
   8   2 -10 4.63674 1.08664   4
  -8   2  10 5.92417 2.02500   1
  -8   2  10 9.80238 3.35523   6
  -8   2  10 7.95327 1.61343  10
  -7  -2  10 72.8615 4.84211  10
  -7  -2  10 73.1148 4.51636   4
   7  -2 -10 73.5921 5.82993   6
  -7   2  10 74.9607 6.01864   1
   7   2 -10 78.2645 4.50446   4
  -7   2  10 70.8414 5.83949   6
  -7   2  10 76.5268 4.63811  10
   6  -2 -10 47.1558 4.21980   6
  -6  -2  10 42.4561 2.91033   4
   6  -2 -10 41.2562 4.51993   7
  -6   2  10 40.8273 2.97341  10
  -6   2  10 39.8774 4.00759   6
  -6   2  10 36.0729 4.06683   1
  -5  -2  10 254.645 13.7474   1
   5  -2 -10 251.819 14.3147   6
  -5  -2  10 231.184 12.9774   4
   5  -2 -10 268.540 14.8806   7
  -5   2  10 232.077 14.5341   1
  -5   2  10 232.387 12.9901  10
  -5   2  10 234.733 14.0944   6
   4  -2 -10 207.416 12.3181   7
   4  -2 -10 194.376 11.8110   6
  -4  -2  10 215.977 11.3492   1
  -4  -2  10 204.558 12.3920   2
  -4   2  10 196.416 12.1451   1
   4   2 -10 199.368 10.8711   8
  -4   2  10 200.716 11.7974   6
  -4   2  10 181.914 10.7287  10
  -3  -2  10 34.9242 3.55368   2
   3  -2 -10 40.6609 3.84774   7
   3   2 -10 37.7558 2.68360   8
  -2  -2  10 79.5735 5.43641   2
   2  -2 -10 85.1316 5.51824   7
  -2   2  10 69.1887 5.36761   2
   2   2 -10 57.6439 6.05591   7
   1   2 -10 46.8664 4.91915   7
  -1   2  10 45.1286 3.85330   2
   0   2 -10 53.9028 5.26891   7
   0   2  10 55.2245 4.33088   2
  -1   2 -10 110.544 8.07952   7
   1   2  10 103.212 7.22935   2
   2   2  10 9.03131 2.07775   2
  -2   2 -10 10.5919 2.74230   7
  -3  -2 -10 15.1462 1.76448   3
  -3  -2 -10 17.5576 1.94899   8
  -3   2 -10 21.8769 1.77937   3
  -3   2 -10 22.3501 1.89008   8
  -3   2 -10 21.6511 3.39027   7
   3   2  10 24.7522 3.03765   2
  -4  -2 -10 199.673 11.9860   3
  -4  -2 -10 220.860 12.2197   8
  -4  -2 -10 217.392 12.5992   6
   4   2  10 238.302 13.8883   2
  -4   2 -10 230.095 12.0374   8
  -4   2 -10 217.297 14.1571   7
  -4   2 -10 228.969 11.9250   3
  -5  -2 -10 1.12638 0.74052   4
  -5  -2 -10 1.05690 0.85759   3
  -5  -2 -10 1.29961 0.98909   8
  -5  -2 -10 0.97843 0.98280   6
  -5   2 -10 1.15580 0.75156   3
  -6  -2 -10 21.1630 1.96730   4
  -6  -2 -10 20.7556 2.64846   6
  -6  -2 -10 20.4821 2.34322   8
  -6  -2 -10 18.3573 2.04239   3
   6   2  10 22.2857 2.27612   3
  -7  -2 -10 6.56002 1.85249   6
  -7  -2 -10 4.62467 1.20438   3
  -7  -2 -10 4.83824 1.09733   4
  -7  -2 -10 4.45889 1.49872   8
   7   2  10 4.67032 1.41151   3
  -8  -2 -10 29.2058 2.05958  10
  -8  -2 -10 29.5834 2.17135   4
  -8  -3  10 32.8211 2.13567   4
   8   3 -10 28.5112 2.09707   4
   7  -3 -10 17.7170 3.06818   6
  -7  -3  10 21.7921 1.80189   4
  -7   3  10 17.2187 2.86421   1
   7   3 -10 18.7942 1.69698   4
  -6  -3  10 60.8043 4.09429   4
   6  -3 -10 57.3511 5.35360   6
   6  -3 -10 69.4152 5.90734   7
   6   3 -10 65.4825 4.76807   8
  -6   3  10 69.3642 4.27265  10
   6   3 -10 68.5024 4.11486   4
  -6   3  10 80.2849 6.01446   6
  -6   3  10 65.8875 5.85695   1
   5  -3 -10 92.6259 7.32199   7
   5  -3 -10 97.2116 7.10764   6
  -5   3  10 101.343 5.89016  10
   5   3 -10 102.778 6.03084   8
  -5   3  10 111.051 7.36839   6
  -5   3  10 93.2567 7.50546   1
  -4  -3  10 239.564 13.4100   1
   4  -3 -10 244.737 14.1220   7
   4  -3 -10 235.260 13.7025   6
  -4   3  10 235.692 13.7361   6
  -4   3  10 234.816 12.5082  10
   4   3 -10 240.577 12.7214   8
  -4   3  10 199.143 13.9654   1
   3  -3 -10 31.0331 3.56109   7
   3  -3 -10 28.9044 3.16745   6
  -3  -3  10 31.5664 2.64501   1
  -3   3  10 34.5855 3.47209   6
   3   3 -10 28.4181 2.51489   8
   2  -3 -10 27.3845 3.03867   7
   2  -3 -10 26.7471 2.86463   6
  -2  -3  10 28.2825 2.34055   1
   2   3 -10 20.5163 2.13189   8
   2   3 -10 20.1292 1.86096   3
  -1  -3  10 2.22077 1.09910   1
   1   3 -10 0.31423 0.59159   3
   1   3 -10 1.16327 0.89920   1
   1   3 -10 0.27078 0.69902   8
   1   3 -10 0.01613 1.14046   7
   0  -3  10 42.4509 3.10014   1
   0   3 -10 36.2512 2.64432   3
   0   3 -10 40.1227 4.70816   7
   0   3 -10 35.2066 3.11683   1
   0   3 -10 35.0217 2.84921   8
   1  -3  10 79.1265 5.63003   1
  -1   3 -10 107.822 8.00662   7
  -1   3 -10 95.6732 5.40642   3
  -1   3 -10 91.2001 5.48571   8
  -1   3 -10 91.0025 5.93143   1
  -2  -3 -10 74.5023 5.17936   6
  -2  -3 -10 73.8285 4.54055   3
  -2   3 -10 67.8251 4.91862   1
  -2   3 -10 80.0727 6.84676   7
  -2   3 -10 74.8020 4.55027   8
   2   3  10 64.5807 4.54277   3
  -2   3 -10 67.7996 4.41186   3
  -3  -3 -10 176.593 9.81640   6
  -3  -3 -10 164.652 9.13479   3
  -3  -3 -10 173.417 9.27329   8
  -3   3 -10 167.136 9.67343   1
   3   3  10 130.563 9.03451   3
   3   3  10 152.569 10.6503   2
  -3   3 -10 153.324 8.90111   3
  -3   3 -10 166.109 11.5608   7
  -4  -3 -10 87.2548 6.23612   6
  -4  -3 -10 93.2596 5.86572   3
  -4  -3 -10 99.1866 5.59461   4
  -4  -3 -10 100.123 6.06612   8
   4   3  10 86.9700 5.90234   3
  -4   3 -10 95.5873 5.65387   3
  -4   3 -10 97.0713 8.17164   7
  -4   3 -10 100.901 6.50421   1
  -5  -3 -10 108.207 6.61477   3
  -5  -3 -10 124.008 6.45112   4
  -5  -3 -10 114.187 6.87198   8
  -5  -3 -10 112.496 7.16938   6
  -5   3 -10 99.7597 8.62718   7
  -5   3 -10 108.842 7.16071   3
   5   3  10 103.314 6.66881   3
  -6  -3 -10 63.3059 4.48029   8
  -6  -3 -10 66.1877 4.86399   6
  -6  -3 -10 65.6852 4.10037   4
  -6  -3 -10 62.2123 4.27002   3
   6   3  10 66.3565 4.40903   3
  -7  -3 -10 31.3679 2.89479   6
  -7  -3 -10 29.5154 2.43419   3
  -7  -3 -10 32.3490 2.28781   4
  -7  -3 -10 26.6816 2.41774   8
   7   3  10 30.7253 2.71060   8
   7   3  10 29.6210 2.50601   3
  -8  -3 -10 12.2565 1.18286   4
   6  -4 -10 22.0350 2.92196   6
   6   4 -10 17.6576 1.95082   8
  -6   4  10 16.6389 2.89633   1
   5  -4 -10 193.988 10.9622   6
   5   4 -10 182.467 9.82431   8
  -5   4  10 144.771 11.0416   1
   4  -4 -10 38.3769 4.16216   7
   4  -4 -10 33.6610 3.76414   6
  -4   4  10 31.2176 4.51497   1
   4   4 -10 41.5001 3.12922   8
   3  -4 -10 39.0595 3.80439   6
   3  -4 -10 38.0551 4.12130   7
   3   4 -10 32.0573 2.64370   3
   3   4 -10 34.0651 2.97246   8
  -2  -4  10 189.998 10.4795   1
   2  -4 -10 175.059 11.1083   6
   2   4 -10 180.391 10.0098   3
   2   4 -10 183.134 10.2984   8
   1  -4 -10 144.701 9.49456   6
  -1  -4  10 148.220 8.93775   1
   1   4 -10 150.273 8.75201   8
   1   4 -10 164.903 9.37935   1
   1   4 -10 151.217 8.50091   3
   0  -4 -10 73.0207 5.96825   6
   0   4 -10 87.6586 8.00695   7
   0   4 -10 92.8081 5.55688   8
   0   4 -10 91.7340 5.25053   3
   0   4 -10 82.3455 5.79887   1
  -1  -4 -10 234.247 13.8164   6
   1  -4  10 221.278 13.2711   1
  -1   4 -10 245.232 13.0588   8
  -1   4 -10 237.980 13.6222   1
  -1   4 -10 250.041 15.8663   7
  -1   4 -10 237.021 12.8777   3
  -2  -4 -10 134.374 7.98859   3
  -2  -4 -10 137.240 8.69969   6
   2  -4  10 138.069 8.35471   1
  -2   4 -10 150.476 10.8478   7
  -2   4 -10 141.777 8.64660   1
   2   4  10 125.753 8.03993   3
  -2   4 -10 135.025 7.89966   3
   3  -4  10 9.03407 1.81426   1
  -3  -4 -10 9.45603 1.76408   3
  -3  -4 -10 10.7494 2.07174   6
  -3   4 -10 6.23155 1.92556   1
  -3   4 -10 5.84595 1.52438   3
  -3   4 -10 6.35378 3.17812   7
   3   4  10 7.37258 1.76395   3
  -4  -4 -10 65.3023 4.93750   3
  -4  -4 -10 71.1198 5.38160   6
  -4   4 -10 88.4266 5.77916   1
   4   4  10 66.7306 5.00872   3
  -4   4 -10 80.8802 7.39214   7
  -4   4 -10 82.7705 4.84896   3
   5  -4  10 12.0832 2.00666   1
  -5  -4 -10 10.2204 1.87793   3
  -5  -4 -10 10.8166 1.82940   8
  -5  -4 -10 11.4461 2.13524   6
   5   4  10 12.8973 2.01924   8
   5   4  10 10.9731 1.88407   3
  -5   4 -10 15.2126 2.28178   1
  -6  -4 -10 10.4658 1.64432   8
  -6  -4 -10 12.5206 1.95236   6
   6   4  10 13.7389 1.79083   8
   6   4  10 11.8536 1.65876   3
  -7  -4 -10 16.3885 1.60942   4
   5   5 -10 49.3277 3.78709   8
   4   5 -10 11.0422 1.83431   8
   3  -5 -10 35.7574 3.95342   6
   3   5 -10 40.7570 3.27061   8
   3   5 -10 41.2397 2.94850   3
   2  -5 -10 33.8078 3.65195   6
   2   5 -10 33.0568 2.71878   3
   2   5 -10 34.4049 3.04441   8
   1  -5 -10 226.514 13.8549   6
  -1  -5  10 247.516 13.3059   1
   1   5 -10 232.245 12.8492   3
   1   5 -10 238.170 13.1478   8
   0  -5  10 14.3847 2.14917   1
   0  -5 -10 10.0077 2.59746   6
   0   5 -10 16.7333 2.04938   3
   0   5 -10 18.5663 2.41301   8
   0   5 -10 16.9355 2.42986   1
   1  -5  10 94.7719 6.48576   1
  -1  -5 -10 101.801 6.90739   6
  -1   5 -10 105.429 6.89404   1
  -1   5 -10 101.439 6.17983   3
  -2  -5 -10 10.1023 2.06749   6
   2  -5  10 8.76481 1.88845   1
  -2   5 -10 9.20651 1.79965   3
  -2   5 -10 9.08613 2.06135   1
  -2   5 -10 7.43767 3.43982   7
  -3  -5 -10 27.9518 2.94412   6
   3  -5  10 26.3966 2.76682   1
  -3   5 -10 29.2264 3.05376   1
   3   5  10 24.8589 2.55488   3
  -3   5 -10 30.6820 2.57556   3
   4  -5  10 2.14981 1.11170   1
  -4  -5 -10 1.21216 0.91182   6
  -4   5 -10 2.43783 1.28147   1
   4   5  10 1.57803 0.90454   3
  -5  -5 -10 22.7207 2.36026   6
   5  -5  10 20.9893 2.17619   1
   5   5  10 20.9928 2.24877   3
  -5   5 -10 24.4455 2.42228   1
   2   6 -10 1.41176 0.82688   3
   1   6 -10 22.7515 2.10150   3
   0  -6  10 5.91091 1.47336   1
   0   6 -10 6.55439 1.42832   3
   1  -6  10 7.00426 1.39925   1
  -1   6 -10 4.43476 1.45686   3
   2  -6  10 56.5350 4.23413   1
  -2   6 -10 75.5685 4.78694   1
   9   0 -11 1.64646 0.58540   4
  -8   0  11 63.9213 6.72685   1
  -8   0  11 68.2583 4.15809  10
  -8   0  11 66.3405 5.08245   6
  -8   0  11 71.2299 4.17156   4
   8   0 -11 70.4889 4.16631   4
  -7   0  11 2.43540 0.85520   4
  -7   0  11 2.51382 0.94009  10
   7   0 -11 2.56557 0.81019   4
  -7   0  11 2.33814 1.31329   6
  -7   0  11 3.32608 1.96431   1
  -6   0  11 20.4828 1.80028  10
  -6   0  11 17.6654 2.77048   1
  -6   0  11 18.2413 1.76968   4
   6   0 -11 18.2324 1.74303   4
  -6   0  11 19.5784 2.67016   6
  -5   0  11 85.7839 6.06685   1
  -5   0  11 92.0809 6.85945   2
  -5   0  11 87.9595 5.97803   6
  -5   0  11 87.6426 5.07352  10
  -4   0  11 12.1559 1.87900   1
   4   0 -11 11.7335 2.61818   7
  -4   0  11 11.5298 2.27609   2
   3   0 -11 249.075 14.5337   7
  -3   0  11 249.545 14.6009   2
  -2   0  11 1.08927 1.08461   2
   2   0 -11 0.61881 0.94085   7
   1   0 -11 105.401 6.89898   7
  -1   0  11 99.1925 6.79192   2
   0   0  11 1152.56 63.1241   2
   0   0 -11 1286.52 63.4971   7
  -1   0 -11 31.2556 3.44285   7
   1   0  11 27.0232 2.92252   2
   2   0  11 855.464 44.6880   2
  -2   0 -11 836.396 45.0282   7
  -3   0 -11 138.400 7.93031   8
   3   0  11 147.442 9.33238   2
  -4   0 -11 889.798 46.4614   8
  -4   0 -11 902.636 46.2589   3
   4   0  11 917.961 48.1213   2
   5   0  11 30.0784 3.88052   2
  -5   0 -11 30.5227 2.72830   8
  -5   0 -11 34.0121 2.49703   3
  -6   0 -11 255.698 13.6132   4
  -6   0 -11 258.318 13.7380   3
  -6   0 -11 249.770 13.9420   8
  -7   0 -11 0.95548 0.75472   8
  -7   0 -11 0.51309 0.79818   3
  -9  -1  11 9.54102 1.10477   4
   9   1 -11 9.32641 1.06974   4
  -8  -1  11 17.7748 2.32762   6
  -8  -1  11 18.0202 1.57269  10
  -8  -1  11 16.1399 1.66566   4
   8   1 -11 16.9137 1.62339   4
  -8   1  11 13.8248 1.71744  10
  -8   1  11 13.8659 2.70682   6
  -8   1  11 13.9331 2.55112   1
  -7  -1  11 20.0889 1.83767  10
  -7  -1  11 20.9363 2.63821   6
  -7  -1  11 18.6425 1.84813   4
  -7   1  11 17.7372 2.83612   6
  -7   1  11 20.9272 3.11124   1
  -7   1  11 17.4392 1.92671  10
   7   1 -11 19.7808 1.79523   4
  -6  -1  11 9.02249 2.11351   6
  -6  -1  11 8.20037 1.32764   4
  -6  -1  11 5.54565 1.27884  10
  -6  -1  11 9.95308 2.17548   1
  -6   1  11 7.47267 1.34836  10
  -6   1  11 7.53366 2.26185   1
   6   1 -11 7.75035 1.28780   4
  -6   1  11 9.43285 2.20515   6
  -5  -1  11 150.704 8.03251  10
  -5  -1  11 155.776 9.00956   1
  -5  -1  11 150.393 10.0931   2
   5  -1 -11 142.970 9.86121   7
  -5   1  11 141.108 9.02614   6
  -5   1  11 147.456 8.07746  10
  -5   1  11 143.967 9.86591   2
  -5   1  11 139.778 9.32113   1
   4  -1 -11 59.4482 5.20047   7
  -4  -1  11 67.6177 4.40194   1
  -4  -1  11 59.5209 5.14423   2
  -4   1  11 52.9509 4.56511   1
  -4   1  11 67.2154 5.27803   2
   3  -1 -11 402.919 22.2440   7
  -3  -1  11 415.359 22.4051   2
  -3   1  11 376.013 22.2484   2
   3   1 -11 408.500 22.7165   7
   2  -1 -11 72.9803 5.81037   7
  -2  -1  11 86.1422 6.16238   2
   2   1 -11 97.9709 6.73222   7
  -2   1  11 85.8578 6.06301   2
   1  -1 -11 1007.32 56.1025   7
  -1  -1  11 1014.14 56.2476   2
  -1   1  11 1106.03 56.4322   2
   1   1 -11 1202.12 57.1968   7
   0  -1  11 466.283 24.0842   2
   0  -1 -11 458.889 23.9793   7
   0   1 -11 425.931 24.6924   7
   0   1  11 420.281 23.9766   2
   1  -1  11 333.091 17.9443   2
   1   1  11 318.999 18.1742   2
  -1   1 -11 317.241 18.7922   7
   2  -1  11 170.666 9.54035   2
  -2   1 -11 136.378 9.93779   7
   2   1  11 150.512 9.67814   2
  -3  -1 -11 23.4274 2.20435   8
   3   1  11 30.0361 3.36837   2
  -3   1 -11 29.9543 2.22436   8
  -3   1 -11 26.8050 3.56066   7
  -3   1 -11 27.9993 2.53589   3
  -4  -1 -11 199.930 10.9145   3
  -4  -1 -11 198.598 11.1180   8
  -4   1 -11 200.694 10.8451   3
   4   1  11 196.960 12.5807   2
  -4   1 -11 207.614 11.0483   8
  -5  -1 -11 3.73726 1.13583   8
  -5  -1 -11 2.99619 0.88193   4
  -5  -1 -11 2.23959 0.91657   3
  -5   1 -11 2.08206 0.90515   8
  -5   1 -11 2.80557 1.10102   3
  -6  -1 -11 367.549 19.3411   4
  -6  -1 -11 354.670 19.6924   8
  -6  -1 -11 361.021 19.4917   3
  -6   1 -11 393.109 19.4222   3
  -6   1 -11 362.799 19.6023   8
  -7  -1 -11 27.2842 2.18684   4
  -7  -1 -11 24.7867 2.24349   3
  -7  -1 -11 26.4222 2.52406   8
  -8  -1 -11 30.5401 2.25614   4
  -8  -2  11 43.5036 2.98005   4
   8  -2 -11 45.3520 4.12203   6
   8   2 -11 48.2606 3.02860   4
  -8   2  11 50.3581 3.17180  10
  -8   2  11 41.4613 3.95420   1
  -8   2  11 58.9132 4.89437   6
  -7  -2  11 10.2390 1.43509   4
   7  -2 -11 10.2839 2.45860   6
  -7   2  11 7.95232 1.70386  10
  -7   2  11 8.98377 3.04734   6
   7   2 -11 7.54843 1.26414   4
  -7   2  11 7.36169 2.43829   1
   6  -2 -11 18.7763 2.99368   6
  -6  -2  11 16.5653 1.81451   4
   6  -2 -11 17.5926 3.41206   7
  -6   2  11 23.4077 2.12226  10
  -6   2  11 18.5463 3.01355   1
   6   2 -11 22.0875 1.83752   4
  -6   2  11 20.6819 3.16005   6
   5  -2 -11 6.70979 2.17948   6
  -5  -2  11 6.22485 1.23588   4
  -5  -2  11 6.38103 1.66156   1
  -5   2  11 3.94667 1.33511  10
  -5   2  11 2.25651 1.28938   6
   5   2 -11 2.31396 0.74273   4
  -5   2  11 2.80689 1.82661   1
   4  -2 -11 165.655 10.6671   6
   4  -2 -11 183.873 11.3310   7
  -4  -2  11 192.051 10.2697   1
  -4  -2  11 162.876 11.2231   2
  -4   2  11 181.861 9.70111  10
  -4   2  11 168.320 11.0449   1
  -4   2  11 179.203 10.7366   6
   4   2 -11 182.240 9.80172   8
  -3  -2  11 63.2417 5.12351   2
  -3  -2  11 63.6719 4.16061   1
   3  -2 -11 66.6399 5.21222   7
  -3   2  11 53.8645 5.48392   1
   3   2 -11 59.5076 3.93168   8
   2  -2 -11 64.2869 4.81525   7
  -2  -2  11 57.1557 4.65769   2
  -2   2  11 55.1289 4.70506   2
   2   2 -11 54.6266 3.66849   8
   2   2 -11 55.8879 5.81446   7
   1  -2 -11 7.55820 1.96223   7
  -1   2  11 9.87287 1.85826   2
   1   2 -11 8.66507 2.93476   7
   0   2 -11 65.4058 6.18834   7
   0   2  11 67.6262 5.07615   2
  -1   2 -11 129.503 9.37365   7
   1   2  11 131.605 8.48001   2
  -1   2 -11 121.281 7.21758   8
  -2   2 -11 87.4416 5.45626   3
   2   2  11 100.704 7.07385   2
  -2   2 -11 91.8226 5.51725   8
  -2   2 -11 103.261 7.84087   7
  -3  -2 -11 23.1534 1.92517   3
  -3  -2 -11 25.6040 2.21872   8
  -3   2 -11 19.5679 3.47614   7
   3   2  11 16.2918 2.89326   2
  -3   2 -11 17.0971 1.79222   3
  -3   2 -11 19.2021 1.86702   8
  -4  -2 -11 328.841 17.4929   8
  -4  -2 -11 306.304 17.2760   3
  -4  -2 -11 333.601 17.9302   6
  -4   2 -11 338.433 17.3167   8
   4   2  11 325.404 19.1747   2
  -4   2 -11 311.788 19.6046   7
  -4   2 -11 328.253 17.1494   3
  -5  -2 -11 1.67395 0.93006   3
  -5  -2 -11 2.05780 0.80779   4
  -5  -2 -11 0.79026 0.94591   6
  -5  -2 -11 1.51540 0.94688   8
  -5   2 -11 3.57326 1.22030   3
  -6  -2 -11 30.1034 3.12145   6
  -6  -2 -11 28.5755 2.50161   3
  -6  -2 -11 28.1927 2.71249   8
  -6  -2 -11 29.5059 2.33475   4
   6   2  11 24.7082 2.51070   3
  -7  -2 -11 30.3316 2.88640   6
  -7  -2 -11 27.7896 2.20590   4
  -7  -2 -11 26.9611 2.31994   3
  -7  -2 -11 26.4748 2.52116   8
   7   2  11 27.8765 2.44252   3
  -8  -2 -11 1.79542 0.62831   4
  -8  -2 -11 2.18006 0.67197  10
  -8  -3  11 29.2488 1.98087   4
   8   3 -11 27.0557 1.96717   4
  -7  -3  11 19.8422 1.76735   4
   7  -3 -11 20.4955 2.99138   6
  -7   3  11 19.9081 2.93284   1
  -7   3  11 23.6464 3.54075   6
   7   3 -11 22.6146 1.83078   4
  -7   3  11 21.0425 2.01432  10
   6  -3 -11 20.5562 3.25045   6
  -6  -3  11 20.5386 1.93580   4
   6   3 -11 21.4512 1.88922   4
  -6   3  11 20.6525 3.26030   1
  -6   3  11 21.0768 2.11068  10
  -6   3  11 29.1198 3.81511   6
   5  -3 -11 50.8784 4.70937   6
   5  -3 -11 61.8989 5.21009   7
  -5   3  11 50.2703 3.49595  10
  -5   3  11 41.5638 4.80206   1
   5   3 -11 50.9827 3.67521   8
  -5   3  11 54.9297 4.94679   6
   4  -3 -11 7.61538 2.30360   6
  -4  -3  11 11.0314 1.72382   1
  -4   3  11 7.00274 2.34353   1
   4   3 -11 7.88136 1.77754   8
  -4   3  11 8.65502 1.56563  10
  -4   3  11 7.36195 2.51956   6
   3  -3 -11 209.553 12.5220   6
  -3  -3  11 242.422 12.0237   1
   3  -3 -11 223.933 13.1941   7
   3   3 -11 200.625 11.6611   8
  -3   3  11 184.101 12.3925   6
  -2  -3  11 57.1074 3.95308   1
   2  -3 -11 50.6277 4.37061   6
   2  -3 -11 53.5715 4.76447   7
   2   3 -11 59.4054 3.67357   3
   2   3 -11 61.1282 3.89613   8
  -1  -3  11 105.791 6.68361   1
   1  -3 -11 101.131 7.10925   6
   1   3 -11 114.673 9.00152   7
   1   3 -11 117.427 6.37539   3
   1   3 -11 117.487 7.02813   1
   1   3 -11 112.781 6.59033   8
   0   3 -11 262.935 16.4083   7
   0   3 -11 245.683 13.5838   8
   0   3 -11 252.775 13.4142   3
   0   3 -11 244.551 13.9887   1
  -1  -3 -11 38.1604 3.18949   6
   1  -3  11 34.9672 2.78438   1
  -1   3 -11 29.3876 2.50220   8
  -1   3 -11 27.6925 2.34315   3
  -1   3 -11 25.7284 2.72337   1
  -1   3 -11 32.4981 4.53568   7
   2  -3  11 73.5888 5.01838   1
  -2  -3 -11 75.9219 4.78778   3
  -2  -3 -11 83.6630 5.53170   6
   2   3  11 61.0891 4.74802   3
  -2   3 -11 77.4385 5.25551   1
  -2   3 -11 75.9898 4.71740   3
  -2   3 -11 79.9599 4.81371   8
  -2   3 -11 84.2037 7.36053   7
  -3  -3 -11 11.2155 1.74960   3
  -3  -3 -11 14.2488 2.21794   6
   3  -3  11 11.6732 1.86370   1
  -3   3 -11 21.0535 1.95845   8
  -3   3 -11 18.3690 2.30066   1
   3   3  11 20.8112 3.96681   2
  -3   3 -11 19.7963 3.80615   7
   3   3  11 12.6510 1.90932   3
  -3   3 -11 18.3348 1.84387   3
  -4  -3 -11 140.606 7.52293   4
  -4  -3 -11 127.482 7.73805   3
  -4  -3 -11 145.389 8.41477   6
  -4  -3 -11 134.909 7.93221   8
  -4   3 -11 137.925 8.37376   1
  -4   3 -11 124.961 10.1022   7
  -4   3 -11 131.708 7.52863   3
   4   3  11 114.615 7.72509   3
  -5  -3 -11 64.4939 4.74911   6
  -5  -3 -11 59.2328 4.21680   3
  -5  -3 -11 59.8107 4.39085   8
  -5  -3 -11 68.2983 4.04215   4
  -5   3 -11 56.6587 6.12259   7
   5   3  11 60.5497 4.32750   3
  -5   3 -11 66.4946 4.03317   3
  -6  -3 -11 128.456 7.70864   6
  -6  -3 -11 114.729 7.30596   8
  -6  -3 -11 119.703 7.15260   3
  -6  -3 -11 129.109 6.99734   4
   6   3  11 121.533 7.26050   3
  -7  -3 -11 11.5679 2.12092   8
  -7  -3 -11 10.4382 1.80783   6
  -7  -3 -11 10.5276 1.33650   4
  -7  -3 -11 8.59925 1.42582   3
   7   3  11 9.53971 2.32114   8
   7   3  11 9.59681 1.49955   3
  -8  -3 -11 50.9097 3.51733   4
   6  -4 -11 160.586 9.24183   6
   6   4 -11 143.381 8.22554   8
  -6   4  11 134.676 9.36067   1
   5  -4 -11 31.6360 3.45607   6
  -5   4  11 22.8599 3.40185   1
   5   4 -11 27.9255 2.53551   8
   4  -4 -11 53.3124 5.09502   7
   4  -4 -11 54.5581 4.76526   6
   4   4 -11 57.2440 4.00195   8
   3  -4 -11 135.032 9.06394   6
  -3  -4  11 146.951 8.34707   1
   3  -4 -11 135.287 9.50437   7
   3   4 -11 143.448 8.27170   8
  -2  -4  11 289.834 14.8891   1
   2  -4 -11 258.561 15.4939   6
   2   4 -11 259.495 14.3695   3
   2   4 -11 264.630 14.6614   8
   1  -4 -11 3.86574 2.07549   6
  -1  -4  11 3.75390 1.45383   1
   1   4 -11 5.70890 1.40300   3
   1   4 -11 5.91788 1.87525   8
   0  -4  11 252.079 14.9682   1
   0  -4 -11 284.083 15.7070   6
   0   4 -11 262.101 17.5047   7
   0   4 -11 276.494 14.8339   8
   0   4 -11 277.474 15.3558   1
   0   4 -11 275.063 14.6131   3
  -1  -4 -11 123.979 8.35259   6
   1  -4  11 111.739 7.76356   1
  -1   4 -11 133.949 10.4867   7
  -1   4 -11 135.274 8.22447   1
  -1   4 -11 133.581 7.53768   3
  -1   4 -11 139.400 7.67274   8
  -2  -4 -11 119.593 7.45449   6
  -2  -4 -11 106.258 6.87656   3
   2  -4  11 112.369 7.02331   1
  -2   4 -11 110.170 9.39336   7
  -2   4 -11 101.405 6.49903   3
  -2   4 -11 108.446 7.21431   1
  -3  -4 -11 3.51993 1.26130   3
   3  -4  11 5.49687 1.72778   1
  -3  -4 -11 4.37126 1.74806   6
  -3   4 -11 2.13308 1.08977   3
   3   4  11 4.27818 1.58137   3
  -3   4 -11 4.83233 1.87437   1
  -3   4 -11 4.67660 3.09412   7
  -4  -4 -11 152.683 9.30938   3
  -4  -4 -11 168.282 9.84799   6
   4  -4  11 168.187 9.75521   1
  -4   4 -11 170.570 9.12968   3
  -4   4 -11 163.126 12.0256   7
   4   4  11 142.739 9.31358   3
  -4   4 -11 170.690 10.0855   1
  -5  -4 -11 55.8521 4.20722   6
  -5  -4 -11 50.5212 3.81303   8
   5  -4  11 61.1804 4.21912   1
  -5  -4 -11 55.2113 3.87273   3
   5   4  11 47.8829 3.79533   3
  -5   4 -11 53.0340 4.24183   1
  -6  -4 -11 70.3304 4.81189   6
   4   5 -11 23.6753 2.40258   8
   3  -5 -11 19.1803 2.80318   6
   3   5 -11 12.9660 2.11355   8
   3   5 -11 11.5223 1.68024   3
   2  -5 -11 3.77007 2.10233   6
   2   5 -11 4.42680 1.40723   3
   2   5 -11 4.62309 1.78441   8
  -1  -5  11 11.2423 1.81928   1
   1  -5 -11 11.3708 2.47101   6
   1   5 -11 13.6400 2.09010   8
   1   5 -11 10.9881 1.83803   3
   0  -5 -11 79.5623 6.15797   6
   0  -5  11 84.4555 5.73767   1
   0   5 -11 87.6346 5.57453   8
   0   5 -11 95.3297 6.20671   1
   0   5 -11 87.8477 5.44838   3
  -1  -5 -11 34.3412 3.51609   6
   1  -5  11 31.7669 3.16305   1
  -1   5 -11 42.4864 3.63591   1
  -1   5 -11 40.3295 3.13529   3
   2  -5  11 39.2267 3.40301   1
  -2  -5 -11 44.1522 3.73650   6
  -2   5 -11 35.8869 3.52142   1
  -2   5 -11 39.3083 3.11629   3
  -3  -5 -11 41.8119 3.63756   6
   3  -5  11 38.9700 3.43252   1
  -3   5 -11 44.5257 3.17168   3
   3   5  11 44.3119 3.23531   3
  -3   5 -11 44.6805 3.76949   1
  -4  -5 -11 11.3365 1.96426   6
   4  -5  11 10.9702 1.74410   1
   4   5  11 12.3785 1.63709   3
  -4   5 -11 10.0824 1.83429   1
  -5  -5 -11 10.1717 1.65113   6
   1   6 -11 1.01120 0.87521   3
   0  -6  11 42.2972 3.11708   1
   0   6 -11 42.7041 3.06580   3
   1  -6  11 4.37427 1.18346   1
  -1   6 -11 4.47986 1.32640   3
  -8   0  12 25.2148 2.04731   4
  -8   0  12 24.4111 2.90578   1
   8   0 -12 23.0010 1.98513   4
  -8   0  12 26.1737 2.06550  10
  -8   0  12 24.4544 2.89985   6
  -7   0  12 23.3853 2.06940   4
  -7   0  12 23.8625 2.07301  10
   7   0 -12 25.4031 2.07698   4
  -7   0  12 26.0332 2.95717   6
  -7   0  12 22.3373 3.06598   1
  -6   0  12 137.001 7.77629   4
  -6   0  12 142.865 7.76530  10
  -6   0  12 142.800 8.80537   6
   6   0 -12 142.032 7.81061   4
  -6   0  12 134.508 9.00397   1
   5   0 -12 29.4354 2.27911   4
  -5   0  12 28.3484 3.04885   6
  -5   0  12 26.7897 2.29308   4
   5   0 -12 28.0253 4.09109   7
  -5   0  12 29.1723 3.07884   1
  -5   0  12 30.9688 2.22679  10
   4   0 -12 59.8763 5.29015   7
  -4   0  12 56.7627 5.04542   2
  -4   0  12 59.6571 4.40488   1
  -3   0  12 32.1450 3.50288   2
   3   0 -12 33.7729 3.73059   7
  -2   0  12 588.005 32.2719   2
   2   0 -12 609.351 32.2241   7
  -1   0  12 11.7526 2.19771   2
   1   0 -12 14.5769 2.49105   7
   0   0  12 166.625 10.2426   2
   0   0 -12 169.975 10.4924   7
   1   0  12 364.318 20.4199   2
  -1   0 -12 373.348 20.8643   7
   2   0  12 44.5725 4.08662   2
  -2   0 -12 43.2790 4.49009   7
  -3   0 -12 205.862 11.0656   8
  -3   0 -12 197.079 10.8561   3
   3   0  12 206.141 12.5848   2
   4   0  12 0.92681 1.37342   2
  -4   0 -12 1.08617 0.78333   8
  -5   0 -12 320.629 17.1980   4
  -5   0 -12 322.528 17.5055   8
  -5   0 -12 333.400 17.2641   3
  -6   0 -12 10.9511 1.57530   3
  -6   0 -12 8.82771 1.45684   4
  -6   0 -12 11.2009 1.77140   8
  -7   0 -12 231.026 13.1126   8
  -7   0 -12 248.834 12.9606   3
   9   1 -12 64.5961 4.18238   4
   8  -1 -12 48.7567 4.25530   6
  -8  -1  12 51.6232 3.21933   4
  -8  -1  12 50.0187 3.89318   6
  -8  -1  12 49.8927 3.12187  10
  -8   1  12 47.7186 4.24216   1
  -8   1  12 50.2798 3.29040  10
  -8   1  12 49.2829 4.34568   6
   8   1 -12 52.4545 3.23421   4
  -7  -1  12 19.7250 2.65136   1
  -7  -1  12 22.7417 1.86330  10
  -7  -1  12 22.6428 1.94451   4
  -7  -1  12 24.1210 2.70168   6
   7   1 -12 21.5225 1.89031   4
  -7   1  12 17.1130 1.99427  10
  -7   1  12 17.8714 2.94723   1
  -7   1  12 19.1023 2.92970   6
  -6  -1  12 94.6228 5.35004   4
   6  -1 -12 87.5316 5.92036   4
  -6  -1  12 92.6882 6.38822   1
   6  -1 -12 78.6837 7.61681   7
  -6  -1  12 94.6852 5.28574  10
  -6   1  12 91.7694 6.44567   6
  -6   1  12 82.7710 6.58431   1
  -6   1  12 95.1906 5.40423  10
   6   1 -12 93.1864 5.32660   4
   5  -1 -12 46.0142 3.10045   4
   5  -1 -12 45.6022 4.86735   7
  -5  -1  12 48.7375 3.03430  10
  -5  -1  12 49.8590 3.13278   4
  -5  -1  12 51.2696 3.92196   1
  -5   1  12 45.1888 4.03372   6
  -5   1  12 33.5978 3.60718   4
   5   1 -12 44.5902 3.00750   4
  -5   1  12 41.6741 4.09604   1
  -5   1  12 44.4635 3.07110  10
  -4  -1  12 72.3933 6.05247   2
  -4  -1  12 82.6907 5.18713   1
   4  -1 -12 66.7860 6.00393   7
  -4   1  12 79.9059 6.17279   2
  -4   1  12 78.2375 5.51265   6
  -4   1  12 74.7741 4.53998  10
  -4   1  12 75.4668 5.54809   1
  -3  -1  12 30.1464 3.36653   2
   3  -1 -12 26.5841 3.45954   7
  -3   1  12 27.4971 3.35499   2
   3   1 -12 29.4048 3.84496   7
  -2  -1  12 254.422 14.9470   2
   2  -1 -12 233.101 14.6249   7
  -2   1  12 251.276 14.8471   2
   2   1 -12 279.427 15.5111   7
   1  -1 -12 133.983 8.34561   7
  -1  -1  12 131.498 8.39627   2
   1   1 -12 128.224 8.93193   7
  -1   1  12 121.840 8.28309   2
   0   1  12 37.3304 3.56554   2
   0   1 -12 40.5087 4.39993   7
   1  -1  12 484.173 26.5805   2
  -1   1 -12 509.885 27.7030   7
   1   1  12 480.772 26.7795   2
   2  -1  12 90.7746 6.80493   2
  -2   1 -12 104.054 5.91766   8
   2   1  12 107.852 7.43562   2
  -2   1 -12 109.206 7.95827   7
  -3  -1 -12 35.2729 2.30421   3
  -3  -1 -12 31.6042 2.43576   8
  -3   1 -12 24.8155 3.69346   7
  -3   1 -12 27.5063 2.27719   8
   3   1  12 26.4348 3.45775   2
  -3   1 -12 25.3593 2.12278   3
  -4  -1 -12 0.46778 0.69713   3
  -4  -1 -12 0.24209 0.72084   8
  -4   1 -12 1.81255 0.79593   8
  -4   1 -12 0.19955 0.64629   3
   4   1  12 -0.5460 1.19854   2
  -5  -1 -12 10.8785 1.57776   3
  -5  -1 -12 10.2354 1.76962   8
  -5  -1 -12 9.64136 1.45520   4
  -5   1 -12 10.0929 1.46378   3
  -5   1 -12 9.95258 1.68187   8
  -6  -1 -12 18.0011 2.30401   8
  -6  -1 -12 22.3837 2.14002   3
  -6  -1 -12 20.5281 1.91599   4
  -6   1 -12 23.8980 2.04939   3
  -6   1 -12 22.8784 2.22463   8
  -7  -1 -12 0.35640 0.60982   4
  -7  -1 -12 1.05761 0.78347   8
  -7  -1 -12 0.20411 0.66213   3
  -8  -1 -12 21.3767 1.76104   4
   8  -2 -12 4.92881 2.10708   6
  -8  -2  12 2.13978 0.72734   4
  -8   2  12 1.46292 0.84261  10
   8   2 -12 1.01388 0.60911   4
  -8   2  12 1.60431 1.27397   1
  -8   2  12 11.0262 3.00225   6
  -7  -2  12 15.3598 1.61510   4
   7  -2 -12 14.2386 2.86668   6
  -7   2  12 11.4576 2.63578   1
  -7   2  12 18.4776 1.99194  10
   7   2 -12 14.7373 1.59653   4
  -7   2  12 21.7930 3.50724   6
   6  -2 -12 101.332 7.05211   6
   6  -2 -12 78.5098 7.39757   7
  -6  -2  12 93.0830 6.41848   1
  -6  -2  12 96.4693 5.64473   4
   6   2 -12 110.291 5.70528   4
  -6   2  12 105.312 5.80039  10
  -6   2  12 87.0192 7.05054   1
  -6   2  12 104.328 7.06464   6
  -5  -2  12 55.3285 3.61678   4
   5  -2 -12 54.9054 4.77484   6
  -5  -2  12 56.8840 4.27471   1
   5  -2 -12 50.5872 5.21720   7
   5   2 -12 60.3473 3.64091   4
  -5   2  12 50.5583 4.88394   1
  -5   2  12 59.4455 3.78834  10
  -5   2  12 60.4516 4.89880   6
   4  -2 -12 234.163 13.0354   6
  -4  -2  12 232.127 13.7845   2
   4  -2 -12 245.178 13.7993   7
  -4   2  12 185.123 12.9830   1
  -4   2  12 209.274 12.8468   6
  -4   2  12 212.362 11.7616  10
   3  -2 -12 35.0042 3.50060   6
  -3  -2  12 39.4759 3.91393   2
   3  -2 -12 41.4242 4.14371   7
  -3  -2  12 43.6216 3.00524   1
   3   2 -12 34.9442 2.72474   8
  -3   2  12 26.3801 3.50629   6
  -3   2  12 26.6836 3.21464   1
  -3   2  12 34.0434 2.50559  10
  -2  -2  12 16.9010 2.49771   2
   2   2 -12 8.55173 1.53824   8
  -2   2  12 11.4111 2.21692   2
   2   2 -12 10.4766 3.37255   7
   1  -2 -12 11.0465 2.25394   7
  -1   2  12 7.86448 1.87322   2
   1   2 -12 10.1636 3.29258   7
   1   2 -12 8.73960 1.50039   8
   0   2  12 123.232 7.85425   2
   0   2 -12 110.012 6.62749   8
   0   2 -12 115.178 9.03712   7
  -1   2 -12 83.7544 5.95386   3
  -1   2 -12 89.1749 7.61764   7
   1   2  12 98.4525 6.73372   2
  -1   2 -12 88.9762 5.32513   8
  -2  -2 -12 192.502 10.2200   3
   2   2  12 186.285 11.8378   2
  -2   2 -12 184.454 10.1684   8
  -2   2 -12 186.318 12.6978   7
  -2   2 -12 180.813 10.1113   3
  -3  -2 -12 67.5844 4.66886   6
  -3  -2 -12 60.7523 4.14878   8
  -3  -2 -12 64.8653 4.03817   3
  -3   2 -12 57.0973 3.85356   3
  -3   2 -12 60.2529 3.94788   8
   3   2  12 57.8717 5.45601   2
  -3   2 -12 60.8878 6.09433   7
  -4  -2 -12 264.467 13.6862   3
  -4  -2 -12 255.826 13.4859   4
  -4  -2 -12 268.365 14.3182   6
  -4  -2 -12 238.509 13.7725   8
  -4   2 -12 253.696 13.6155   8
  -4   2 -12 247.438 13.4486   3
  -4   2 -12 229.981 15.9294   7
  -5  -2 -12 109.963 7.14897   8
  -5  -2 -12 118.491 6.98667   3
  -5  -2 -12 116.011 6.81146   4
  -5  -2 -12 126.030 7.65889   6
  -5   2 -12 120.869 6.79604   3
  -5   2 -12 118.911 7.00644   8
  -6  -2 -12 13.3741 1.99076   8
  -6  -2 -12 13.7559 2.22504   6
  -6  -2 -12 12.7424 1.71373   3
  -6  -2 -12 12.4031 1.51038   4
   6   2  12 12.2117 1.84160   3
  -6   2 -12 13.0010 1.57993   3
  -7  -2 -12 46.0171 3.17228   3
  -7  -2 -12 41.1732 3.31016   8
  -7  -2 -12 44.0089 3.03753   4
   7   2  12 53.7278 3.38675   3
  -8  -2 -12 7.48065 1.04962   4
   8   3 -12 21.3820 2.00889   4
  -7  -3  12 89.7980 5.19722   4
   7  -3 -12 92.9886 6.23553   6
   7   3 -12 90.6293 5.22827   4
  -7   3  12 93.6027 6.43640   6
  -7   3  12 87.6288 6.48371   1
   6  -3 -12 91.7967 6.46964   6
  -6  -3  12 93.7103 5.21378   4
   6   3 -12 86.7655 5.16560   4
  -6   3  12 88.9381 6.57032   6
  -6   3  12 78.8384 6.65649   1
  -6   3  12 88.9700 5.25710  10
   5  -3 -12 61.9636 5.58609   7
   5  -3 -12 67.5570 5.23124   6
   5   3 -12 58.5303 4.07658   8
  -5   3  12 53.8584 5.33295   1
  -5   3  12 59.4574 5.19477   6
  -5   3  12 61.7518 3.90387  10
   4  -3 -12 72.5876 5.59075   6
  -4  -3  12 80.2415 4.97998   1
   4  -3 -12 66.3904 5.98648   7
  -4   3  12 61.6738 5.74248   1
   4   3 -12 71.6338 4.73736   8
  -4   3  12 75.7029 5.66958   6
   3  -3 -12 29.0285 3.19257   6
  -3  -3  12 32.6576 2.65403   1
   3  -3 -12 29.4181 3.77683   7
  -3   3  12 22.6834 3.18784   6
   3   3 -12 22.0501 2.52543   8
   2  -3 -12 72.1533 5.69308   6
   2  -3 -12 80.2189 6.35634   7
  -2  -3  12 83.6671 5.26993   1
   2   3 -12 89.8526 5.25082   8
   1  -3 -12 159.221 9.62320   6
  -1  -3  12 177.507 9.21494   1
   1   3 -12 148.417 8.66279   3
   1   3 -12 147.145 11.5706   7
   1   3 -12 148.524 8.93009   8
   0  -3 -12 58.9537 4.60558   6
   0  -3  12 48.1199 4.00398   1
   0   3 -12 63.2314 3.92126   3
   0   3 -12 67.3665 4.14684   8
   0   3 -12 61.8813 6.61829   7
   0   3 -12 64.2851 4.42608   1
  -1  -3 -12 65.3160 4.71266   6
   1  -3  12 61.0016 4.30689   1
  -1   3 -12 61.5594 6.48821   7
  -1   3 -12 59.0192 3.99492   3
  -1   3 -12 59.5125 4.46632   1
  -1   3 -12 61.7577 4.10128   8
   2  -3  12 12.9640 1.83582   1
  -2  -3 -12 14.7656 2.20734   6
  -2  -3 -12 13.6553 1.65204   3
   2   3  12 7.76664 1.71992   3
  -2   3 -12 9.34446 3.28553   7
  -2   3 -12 10.7373 1.59070   3
  -2   3 -12 9.12375 1.63421   8
  -2   3 -12 8.53525 1.81522   1
  -3  -3 -12 131.696 7.77728   4
   3  -3  12 132.084 8.29178   1
  -3  -3 -12 127.216 7.99058   3
  -3  -3 -12 139.801 8.64685   6
   3   3  12 132.181 8.11322   3
  -3   3 -12 149.471 8.01815   8
  -3   3 -12 143.900 10.9101   7
  -3   3 -12 145.637 8.60925   1
  -3   3 -12 149.605 7.95117   3
  -4  -3 -12 23.7327 2.07616   4
  -4  -3 -12 21.6008 2.47299   8
  -4  -3 -12 24.9772 2.75195   6
  -4  -3 -12 23.8755 2.36259   3
   4  -3  12 23.4054 2.68916   1
   4   3  12 24.7638 2.46148   3
  -4   3 -12 25.2398 2.19934   3
  -4   3 -12 24.0954 4.24338   7
  -5  -3 -12 24.9492 2.39121   3
  -5  -3 -12 24.0928 2.54188   8
  -5  -3 -12 25.3007 2.78273   6
  -5  -3 -12 24.5817 2.13041   4
  -5   3 -12 21.7345 4.00534   7
  -5   3 -12 25.9224 2.17538   3
   5   3  12 24.8868 2.48846   3
  -6  -3 -12 7.43147 1.81177   6
  -6  -3 -12 4.89234 1.24853   4
  -6  -3 -12 8.18756 1.45667   3
  -6  -3 -12 6.84579 1.57491   8
   6   3  12 5.67249 1.45319   3
  -7  -3 -12 9.83897 1.25575   4
  -7  -3 -12 7.75010 1.54584   6
   6  -4 -12 27.6180 3.05647   6
  -6   4  12 26.5010 3.13859   1
   5  -4 -12 43.3531 4.09680   6
  -5   4  12 43.1716 4.27872   1
   5   4 -12 42.3841 3.26819   8
   4  -4 -12 70.7661 5.42054   6
   4  -4 -12 61.8681 5.70834   7
   4   4 -12 67.8265 4.56839   8
  -3  -4  12 31.2354 2.73748   1
   3  -4 -12 30.3456 3.44908   6
   3  -4 -12 26.8468 3.79027   7
   3   4 -12 28.5265 2.77198   8
  -2  -4  12 298.766 15.2757   1
   2  -4 -12 268.652 15.8983   6
   2   4 -12 266.743 15.1110   8
   2   4 -12 267.754 14.7711   3
   1  -4 -12 233.277 13.4363   6
  -1  -4  12 251.328 12.8259   1
   1   4 -12 208.307 12.5364   8
   1   4 -12 207.892 12.2638   3
   0  -4 -12 20.0735 2.92437   6
   0  -4  12 18.5577 2.37683   1
   0   4 -12 24.0394 2.30965   3
   0   4 -12 20.1570 4.33590   7
   0   4 -12 25.3450 2.56670   8
   0   4 -12 23.9421 2.72403   1
  -1  -4 -12 160.311 9.51837   6
   1  -4  12 136.740 8.83221   1
  -1   4 -12 154.486 8.64567   8
  -1   4 -12 147.659 9.13825   1
  -1   4 -12 145.311 8.52071   3
  -1   4 -12 151.152 11.7680   7
   2  -4  12 34.4069 3.15556   1
  -2  -4 -12 37.5976 3.55586   6
  -2   4 -12 34.4428 3.33031   1
  -2   4 -12 32.7050 2.84185   3
  -2   4 -12 34.3430 2.88872   8
  -2   4 -12 34.0955 5.34042   7
   3  -4  12 99.2359 6.47574   1
  -3  -4 -12 101.671 6.72101   6
  -3  -4 -12 100.311 6.16036   3
   3   4  12 94.5330 6.14954   3
  -3   4 -12 94.5178 8.80913   7
  -3   4 -12 97.8769 5.94434   3
  -3   4 -12 100.361 6.70861   1
  -4  -4 -12 29.7693 2.65961   3
   4  -4  12 28.6283 2.81889   1
  -4  -4 -12 29.1823 2.96905   6
  -4   4 -12 27.0016 2.35559   3
  -4   4 -12 24.1916 2.88241   1
   4   4  12 23.8051 2.54333   3
  -5  -4 -12 133.532 8.20348   6
  -5  -4 -12 139.779 7.84453   3
   5  -4  12 132.643 8.16145   1
  -6  -4 -12 16.7971 1.99938   6
   4  -5 -12 7.16251 2.08714   6
   4   5 -12 6.03288 1.69129   8
   3  -5 -12 64.5757 5.18534   6
   3   5 -12 69.8821 4.63711   8
   3   5 -12 66.4260 4.74517   3
   2  -5 -12 12.6465 2.49962   6
  -2  -5  12 12.6484 1.73624   1
   2   5 -12 7.23912 1.92484   8
   2   5 -12 8.73511 1.60275   3
  -1  -5  12 20.1576 2.25904   1
   1  -5 -12 19.9086 2.91785   6
   1   5 -12 21.5804 2.43177   8
   1   5 -12 20.8191 2.25027   3
   0  -5  12 48.2118 3.58219   1
   0  -5 -12 47.2496 4.15123   6
   0   5 -12 41.0721 3.38802   8
   0   5 -12 37.8947 3.26840   3
  -1  -5 -12 20.8993 2.79493   6
   1  -5  12 18.6928 2.32486   1
  -1   5 -12 19.4672 2.51551   1
  -1   5 -12 17.6527 2.22515   3
   2  -5  12 33.3757 3.23382   1
  -2  -5 -12 38.5435 3.64715   6
  -2   5 -12 47.3578 3.75114   1
  -2   5 -12 48.0780 3.24482   3
  -3  -5 -12 12.7687 2.04140   6
   3  -5  12 11.5790 1.84906   1
  -3   5 -12 13.8465 2.04168   1
  -3   5 -12 13.6955 1.76438   3
  -4  -5 -12 30.7458 2.87965   6
   4  -5  12 27.6482 2.65007   1
   4   5  12 37.1319 2.57359   3
  -4   5 -12 35.7646 2.96611   1
  -1  -6 -12 21.9543 2.76348   6
  -8   0  13 25.9157 2.95039   1
  -8   0  13 30.2760 2.23789  10
   8   0 -13 31.8068 2.20152   4
   8   0 -13 27.8454 3.07750   6
  -8   0  13 27.8258 2.85308   6
  -8   0  13 29.6896 2.16661   4
  -7   0  13 1.60072 1.31993   1
   7   0 -13 1.40221 0.73615   4
  -7   0  13 1.65756 0.84219  10
  -7   0  13 0.81783 0.71092   4
  -7   0  13 1.78780 1.14796   6
   6   0 -13 29.9678 2.39966   4
  -6   0  13 30.4920 3.40297   1
  -6   0  13 32.5948 2.37856  10
  -6   0  13 29.5684 2.39971   4
  -6   0  13 31.7282 3.24160   6
  -5   0  13 1.17414 0.71462  10
  -5   0  13 1.14113 0.72711   4
   5   0 -13 0.46760 1.37351   7
  -5   0  13 3.12245 1.61655   6
   5   0 -13 1.22732 0.70145   4
  -5   0  13 0.25368 0.94907   1
  -4   0  13 9.40541 1.73638   1
  -4   0  13 8.91298 2.35297   2
  -4   0  13 10.8433 1.34971  10
   4   0 -13 10.7071 2.81238   7
   3   0 -13 771.391 40.6826   7
  -3   0  13 782.854 39.6033   1
  -3   0  13 718.981 40.6595   2
   2   0 -13 54.9106 4.80685   7
  -2   0  13 54.4502 4.75134   2
  -1   0  13 2586.91 131.808   2
   1   0 -13 2553.91 131.805   7
   0   0  13 14.5202 2.39775   2
   0   0 -13 16.3616 2.75570   7
   1   0  13 9.89726 2.06368   2
  -1   0 -13 16.4711 2.86669   7
   2   0  13 24.7562 2.99792   2
  -2   0 -13 22.2402 2.04256   8
  -2   0 -13 26.1959 3.68815   7
  -3   0 -13 43.6286 3.01365   8
  -3   0 -13 37.6203 2.69457   3
   3   0  13 40.3081 4.23042   2
  -4   0 -13 425.837 22.3875   3
  -4   0 -13 441.151 22.6708   8
   4   0  13 418.173 24.4747   2
  -5   0 -13 0.36075 0.80048   3
  -5   0 -13 0.20842 0.64026   4
  -5   0 -13 0.39557 0.78436   8
  -6   0 -13 195.780 11.2281   8
  -6   0 -13 209.546 11.0493   3
  -6   0 -13 196.505 10.9065   4
  -7   0 -13 32.6542 2.50849   3
  -7   0 -13 31.2018 2.62069   8
  -8  -1  13 75.1524 4.71211  10
   8  -1 -13 83.9790 5.88071   6
  -8  -1  13 78.5876 4.82487   4
  -8   1  13 89.2663 4.88480  10
  -8   1  13 87.4114 5.95510   6
   8   1 -13 90.8630 4.88291   4
  -8   1  13 78.8790 5.82369   1
  -7  -1  13 0.93204 0.63981   4
  -7  -1  13 0.85594 1.08600   1
  -7  -1  13 1.18400 0.69600  10
   7  -1 -13 -1.1287 1.19483   6
  -7   1  13 0.56691 0.89695  10
  -7   1  13 0.75047 1.21637   6
  -7   1  13 0.60017 1.26020   1
   7   1 -13 0.63003 0.65017   4
  -6  -1  13 18.1634 2.56626   1
   6  -1 -13 16.6821 1.70652   4
   6  -1 -13 19.0614 3.68316   7
   6  -1 -13 17.3954 2.77002   6
  -6  -1  13 19.7801 1.68845  10
  -6  -1  13 17.5224 1.70373   4
  -6   1  13 11.1828 2.43862   1
   6   1 -13 12.3714 1.59020   4
  -6   1  13 11.5818 2.52237   6
  -6   1  13 11.2914 1.71053  10
  -5  -1  13 45.1226 3.77419   1
  -5  -1  13 41.4266 3.02710   4
   5  -1 -13 42.9768 4.99106   7
   5  -1 -13 41.3902 3.01575   4
   5  -1 -13 42.8471 4.06407   6
  -5   1  13 46.0237 3.11630   4
  -5   1  13 45.6613 4.13012   6
   5   1 -13 45.9777 3.03956   4
  -5   1  13 49.6971 3.14980  10
  -5   1  13 44.1153 4.12593   1
   4  -1 -13 43.0722 4.69423   7
  -4  -1  13 48.6486 3.55151   1
   4  -1 -13 41.5447 3.86097   6
  -4  -1  13 38.9679 4.28838   2
  -4   1  13 40.8374 4.37509   2
  -4   1  13 41.4382 3.84121   1
  -4   1  13 45.3281 3.94500   6
  -4   1  13 41.4688 2.96443  10
  -3  -1  13 173.006 11.5320   2
   3  -1 -13 184.609 11.6461   7
  -3  -1  13 191.797 10.4172   1
  -3   1  13 177.515 11.6609   2
  -3   1  13 178.283 10.8117   1
   3   1 -13 192.162 12.1258   7
   2  -1 -13 282.903 15.8041   7
  -2  -1  13 270.452 15.8946   2
   2   1 -13 272.633 16.2651   7
  -2   1  13 246.622 15.6283   2
   1  -1 -13 97.1603 6.81169   7
  -1  -1  13 93.0121 6.79197   2
  -1   1  13 96.6691 6.81278   2
   1   1 -13 97.3417 7.45091   7
   0  -1 -13 39.9622 3.86175   7
   0  -1  13 40.9564 3.80183   2
   0   1 -13 43.3097 4.72500   7
   0   1  13 39.9221 3.80026   2
   1  -1  13 3.61808 1.57540   2
  -1   1 -13 0.78996 1.31111   7
   1   1  13 -0.3345 0.91073   2
  -1   1 -13 0.46049 0.66585   8
   2  -1  13 110.102 7.29501   2
  -2  -1 -13 103.485 5.91244   8
  -2   1 -13 93.1907 5.68300   3
  -2   1 -13 98.0333 7.86171   7
   2   1  13 102.254 7.37849   2
  -2   1 -13 97.9800 5.80838   8
  -3  -1 -13 68.0806 4.24151   3
  -3  -1 -13 63.8248 4.38507   8
  -3   1 -13 72.0634 4.23881   3
  -3   1 -13 71.9394 4.38292   8
  -3   1 -13 66.7980 6.26232   7
   3   1  13 73.4993 6.01231   2
  -4  -1 -13 249.333 12.8937   3
  -4  -1 -13 246.643 12.9846   4
  -4  -1 -13 242.316 13.1063   8
  -4   1 -13 226.009 12.7512   3
  -4   1 -13 228.452 12.9511   8
  -5  -1 -13 187.956 10.3412   8
  -5  -1 -13 189.850 10.1047   3
  -5  -1 -13 172.226 9.92571   4
  -5   1 -13 176.882 10.1564   8
  -5   1 -13 178.277 9.93941   3
  -6  -1 -13 28.8248 2.41014   3
  -6  -1 -13 26.6994 2.22970   4
  -6  -1 -13 29.6639 2.65268   8
  -6   1 -13 23.8514 2.36697   8
  -6   1 -13 25.8832 2.23380   3
  -7  -1 -13 2.46010 0.89513   8
  -7  -1 -13 3.54463 1.09407   3
  -7  -1 -13 3.22203 1.13788   4
  -8  -1 -13 7.60755 1.04541   4
   8  -2 -13 23.4221 2.66596   6
  -8  -2  13 21.6711 1.78071   4
  -8   2  13 18.3709 1.72605  10
   8   2 -13 20.7466 1.68006   4
  -8   2  13 25.1013 3.07915   6
   7  -2 -13 44.2027 4.22699   6
  -7  -2  13 36.7758 2.84487   4
  -7   2  13 49.5423 4.43815   6
   7   2 -13 43.7446 2.93486   4
  -7   2  13 39.6390 4.08274   1
  -7   2  13 46.7652 3.08737  10
   6  -2 -13 6.61958 2.61439   6
  -6  -2  13 6.57404 1.32241   4
  -6  -2  13 5.02351 1.70912   1
   6   2 -13 4.94249 1.17681   4
  -6   2  13 9.27851 2.76190   6
  -6   2  13 3.20379 1.98276   1
  -6   2  13 7.34661 1.62061  10
  -5  -2  13 1.78652 1.11041   1
   5  -2 -13 0.29586 1.27239   6
  -5  -2  13 1.42035 0.75463   4
   5  -2 -13 2.08066 1.55122   7
  -5   2  13 0.93596 1.28714   1
  -5   2  13 1.01117 1.01852  10
  -5   2  13 0.55535 1.53886   6
   5   2 -13 0.96262 0.70991   4
   4  -2 -13 95.5203 7.41759   7
  -4  -2  13 109.305 6.16364   1
  -4  -2  13 99.4576 5.54911   4
   4  -2 -13 99.7319 6.74342   6
  -4   2  13 84.1371 6.70404   1
  -4   2  13 84.6634 5.45784  10
  -4   2  13 82.9986 6.58780   6
   4   2 -13 86.6532 5.43365   4
  -3  -2  13 99.9212 7.37988   2
   3  -2 -13 100.497 7.46980   7
  -3  -2  13 116.407 6.27536   1
   3  -2 -13 105.664 6.82524   6
  -3   2  13 91.3803 6.76440   6
   3   2 -13 91.5783 5.89328   8
  -3   2  13 94.0715 5.70998  10
  -3   2  13 90.1124 6.76479   1
   2  -2 -13 4.63312 2.26719   7
  -2  -2  13 7.08772 1.29176   1
   2  -2 -13 11.9627 2.11299   6
   2   2 -13 5.36017 1.45766   8
   2   2 -13 7.90451 3.27042   7
  -2   2  13 3.71317 1.77152   2
  -1  -2  13 95.0729 6.06662   1
   1  -2 -13 92.8827 7.03673   7
   1   2 -13 108.881 8.77909   7
   1   2 -13 104.245 6.09039   8
  -1   2  13 113.593 7.41425   2
   0  -2  13 89.0536 5.54632   1
   0   2  13 93.7183 6.61780   2
   0   2 -13 83.7004 5.21983   3
   0   2 -13 89.3773 7.85287   7
   0   2 -13 89.7527 5.36912   8
   1  -2  13 70.1096 4.80301   1
   1   2  13 77.9667 5.92790   2
  -1   2 -13 75.1447 4.54457   3
  -1   2 -13 77.3774 7.10530   7
  -1   2 -13 77.4107 4.65464   8
  -1   2 -13 75.0041 4.99253   1
  -2  -2 -13 10.5789 1.40479   3
  -2  -2 -13 10.0936 1.87262   6
   2  -2  13 9.64932 1.61435   1
   2   2  13 5.62195 2.16202   2
  -2   2 -13 6.07816 1.30829   8
  -2   2 -13 6.31528 2.91875   7
  -2   2 -13 6.92345 1.30647   3
  -3  -2 -13 24.9076 2.22020   3
  -3  -2 -13 22.7534 2.66633   6
  -3  -2 -13 22.9782 2.35502   8
   3   2  13 22.9250 3.43449   2
  -3   2 -13 27.2133 2.17869   3
  -3   2 -13 26.4616 2.25466   8
  -3   2 -13 25.6614 4.14846   7
  -4  -2 -13 32.3678 2.53179   4
  -4  -2 -13 33.8987 2.93417   8
  -4  -2 -13 35.0502 3.16554   6
  -4  -2 -13 35.9017 2.73259   3
  -4   2 -13 30.4261 2.47796   3
  -4   2 -13 26.4600 4.36524   7
  -4   2 -13 32.1258 2.62517   8
  -5  -2 -13 67.7999 5.14781   6
  -5  -2 -13 66.7319 4.70396   8
  -5  -2 -13 70.8622 4.49725   3
  -5  -2 -13 63.6886 4.26855   4
  -5   2 -13 71.8358 4.33526   3
  -5   2 -13 69.2166 4.51491   8
  -6  -2 -13 72.4130 4.53240   4
  -6  -2 -13 74.0106 4.93309   8
  -6  -2 -13 73.4157 4.73762   3
   6   2  13 79.6502 4.86100   3
  -6   2 -13 74.2098 4.53777   3
  -7  -2 -13 4.68459 1.02508   4
  -7  -2 -13 3.44929 1.22559   8
  -7  -2 -13 4.07027 1.14661   3
   7   2  13 5.17670 1.31041   3
  -8  -2 -13 18.9871 1.48968   4
  -7  -3  13 53.0484 3.18736   4
   7  -3 -13 52.9609 4.15170   6
  -7   3  13 47.1015 4.24422   6
  -7   3  13 47.7197 4.22694   1
   7   3 -13 49.4499 3.15548   4
   6  -3 -13 107.472 6.98490   6
  -6  -3  13 96.1945 5.72463   4
   6   3 -13 98.1845 5.73093   4
  -6   3  13 96.2126 7.22697   1
  -6   3  13 100.038 6.90136   6
   5  -3 -13 51.7634 4.36083   6
   5  -3 -13 39.7838 4.78781   7
  -5  -3  13 49.5622 3.69120   1
   5   3 -13 42.2836 3.34650   8
  -5   3  13 41.6772 4.45427   1
  -5   3  13 43.1280 4.30114   6
  -4  -3  13 103.100 6.32296   1
   4  -3 -13 84.3764 7.39859   7
   4  -3 -13 94.8459 6.91457   6
  -4   3  13 98.2970 7.33942   1
   4   3 -13 107.630 6.18116   8
  -4   3  13 106.827 7.11936   6
  -3  -3  13 225.182 12.2552   1
   3  -3 -13 204.734 13.5509   7
   3   3 -13 223.801 12.1437   8
  -2  -3  13 301.553 14.8929   1
   2  -3 -13 249.236 15.9402   7
   2  -3 -13 264.256 15.3840   6
   2   3 -13 258.053 14.6644   8
  -1  -3  13 82.7245 5.32075   1
   1  -3 -13 78.2652 5.78726   6
   1   3 -13 88.5455 5.35958   8
   1   3 -13 73.9390 7.79676   7
   1   3 -13 83.4534 5.00412   3
   0  -3 -13 121.011 7.49416   6
   0  -3  13 120.629 7.01487   1
   0   3 -13 111.684 6.76728   8
   0   3 -13 110.101 6.61632   3
   0   3 -13 97.2766 9.35204   7
   0   3 -13 114.494 7.18740   1
  -1  -3 -13 117.643 7.35615   6
   1  -3  13 92.1032 6.68578   1
  -1   3 -13 120.097 6.58176   3
  -1   3 -13 120.240 6.66525   8
  -1   3 -13 107.095 9.42797   7
  -1   3 -13 113.097 7.08306   1
  -2  -3 -13 9.92754 2.01229   6
   2  -3  13 9.21595 1.72144   1
  -2   3 -13 9.68890 1.63928   3
  -2   3 -13 9.64639 1.84998   1
  -2   3 -13 10.0142 1.65458   8
  -2   3 -13 7.50645 3.26920   7
  -3  -3 -13 114.143 6.29142   3
   3  -3  13 107.098 6.56060   1
  -3  -3 -13 104.209 5.98242   4
  -3  -3 -13 107.327 6.82306   6
  -3   3 -13 98.8405 6.09823   8
  -3   3 -13 94.9621 6.60870   1
  -3   3 -13 90.6874 8.72780   7
   3   3  13 100.948 6.23704   3
  -3   3 -13 96.1481 6.00523   3
  -4  -3 -13 274.604 15.3493   8
  -4  -3 -13 292.139 15.2853   3
  -4  -3 -13 283.813 15.7789   6
  -4  -3 -13 275.243 15.0017   4
  -4   3 -13 255.962 17.9283   7
  -4   3 -13 278.441 15.0041   3
   4   3  13 306.857 15.3710   3
  -5  -3 -13 93.8232 5.68314   4
  -5  -3 -13 100.659 5.92307   3
  -5  -3 -13 96.8618 6.07479   8
  -5  -3 -13 97.0266 6.37884   6
  -5   3 -13 95.0999 5.65053   3
   5   3  13 97.9290 5.95725   3
  -6  -3 -13 32.3695 2.94351   6
  -6  -3 -13 34.5951 2.62787   3
  -6  -3 -13 32.4099 2.66087   8
  -6  -3 -13 33.1542 2.39623   4
   6   3  13 27.1149 2.53953   3
  -7  -3 -13 7.77905 1.08246   4
   6  -4 -13 37.8305 3.43929   6
   5  -4 -13 15.3999 2.64208   6
   5   4 -13 15.9888 1.99685   8
   4  -4 -13 37.1726 3.80044   6
   4   4 -13 37.6840 3.20443   8
  -3  -4  13 5.98926 1.48076   1
   3  -4 -13 3.23748 1.75552   7
   3  -4 -13 5.06157 2.17325   6
   3   4 -13 7.48831 1.92256   8
  -2  -4  13 20.2288 2.20933   1
   2  -4 -13 17.9579 2.78616   6
   2   4 -13 18.0509 2.43280   8
   2   4 -13 16.7257 1.96994   3
  -1  -4  13 200.975 10.9092   1
   1  -4 -13 192.157 11.5632   6
   1   4 -13 180.695 10.7380   8
   1   4 -13 180.425 10.4891   3
   0  -4  13 48.0062 3.61322   1
   0  -4 -13 45.7013 4.10533   6
   0   4 -13 39.1936 3.27979   3
   0   4 -13 40.3770 3.35318   8
   0   4 -13 32.6896 5.50991   7
   0   4 -13 42.4857 3.73895   1
  -1  -4 -13 6.56255 2.06347   6
   1  -4  13 6.50900 1.74287   1
  -1   4 -13 8.67454 1.93207   1
  -1   4 -13 6.76211 3.63133   7
  -1   4 -13 7.61896 1.70923   3
  -1   4 -13 8.98175 1.74333   8
  -2  -4 -13 124.545 7.50858   6
   2  -4  13 106.298 6.99611   1
  -2   4 -13 107.847 7.21240   1
  -2   4 -13 110.603 6.61480   3
  -2   4 -13 116.518 6.68919   8
  -2   4 -13 96.5120 9.43791   7
   3  -4  13 3.65454 1.59774   1
  -3  -4 -13 3.14119 1.71556   6
  -3  -4 -13 4.14107 1.27588   3
  -3   4 -13 3.87276 1.40837   3
  -3   4 -13 2.30171 2.06653   7
   3   4  13 5.65969 1.51946   3
  -3   4 -13 3.24174 1.71518   1
  -4  -4 -13 13.9039 1.81246   3
   4  -4  13 13.4316 1.98365   1
  -4  -4 -13 14.2795 2.05739   6
  -4   4 -13 7.68786 1.89370   1
  -4   4 -13 8.99826 1.51167   3
   4   4  13 10.5314 1.65770   3
  -5  -4 -13 17.9286 2.23773   6
   5   4  13 21.0452 1.99158   3
  -5   4 -13 20.3706 2.28938   3
  -6  -4 -13 22.5915 2.46745   6
   4  -5 -13 42.5285 3.72579   6
   3  -5 -13 16.1905 2.55264   6
   3   5 -13 17.0202 2.23026   8
  -2  -5  13 156.866 9.13190   1
   2  -5 -13 155.340 9.81800   6
   2   5 -13 164.950 9.20950   8
   2   5 -13 160.881 8.94321   3
   1  -5 -13 28.7806 3.30591   6
  -1  -5  13 29.2303 2.61468   1
   1   5 -13 27.0941 2.55381   3
   1   5 -13 28.0779 2.70421   8
   0  -5 -13 149.818 9.18408   6
   0  -5  13 157.530 8.69089   1
   0   5 -13 138.194 8.35080   3
   0   5 -13 134.898 8.35353   8
   1  -5  13 11.3155 1.88364   1
  -1  -5 -13 10.2928 2.26071   6
  -1   5 -13 15.4951 2.21752   1
  -1   5 -13 13.7687 1.97306   3
  -2  -5 -13 6.54428 1.88898   6
   2  -5  13 5.83743 1.54869   1
  -2   5 -13 5.46736 1.70745   1
  -2   5 -13 5.34647 1.49123   3
  -3  -5 -13 18.0208 2.19251   6
   3  -5  13 14.8249 1.92959   1
  -3   5 -13 13.1344 1.60069   3
  -3   5 -13 13.7874 2.10312   1
  -4  -5 -13 2.58259 0.99719   6
   4  -5  13 3.61057 1.81261   1
  -4   5 -13 5.67265 1.97351   1
   8   0 -14 6.45336 1.08956   4
   8   0 -14 7.22182 1.88597   6
  -8   0  14 6.83262 1.25138  10
  -8   0  14 7.62956 1.19882   4
  -8   0  14 4.54953 2.66628   1
  -8   0  14 7.64874 1.87448   6
  -7   0  14 163.564 8.75443   4
   7   0 -14 165.965 8.75864   4
  -7   0  14 149.944 9.59711   6
  -7   0  14 154.296 9.85078   1
  -7   0  14 159.603 8.69850  10
  -6   0  14 1.01225 0.82264   4
   6   0 -14 2.34227 0.82259   4
  -6   0  14 1.93489 0.91767  10
  -6   0  14 2.16212 1.32600   1
  -6   0  14 4.98362 1.86367   6
  -5   0  14 27.2132 2.35520   4
   5   0 -14 28.8808 4.13450   7
  -5   0  14 28.0438 3.03858   6
  -5   0  14 28.9876 3.10215   1
  -5   0  14 28.6434 2.25642  10
   5   0 -14 26.2063 2.23628   4
  -4   0  14 6.38330 1.59381   1
  -4   0  14 4.33453 2.20728   2
  -4   0  14 7.75252 1.27221  10
   4   0 -14 6.11405 2.73376   7
  -3   0  14 316.092 16.8414   1
  -3   0  14 295.827 18.0021   2
  -2   0  14 984.680 52.6647   2
   2   0 -14 1004.95 52.6080   7
  -1   0  14 77.1001 6.01745   2
   1   0 -14 80.4204 6.19989   7
   0   0  14 507.322 27.5825   2
   0   0 -14 499.015 27.7783   7
  -1   0 -14 91.0808 5.64916   8
  -1   0 -14 103.459 7.51503   7
   1   0  14 104.440 7.06430   2
  -2   0 -14 468.340 23.7377   8
  -2   0 -14 451.967 23.5442   3
  -2   0 -14 441.345 26.2577   7
  -3   0 -14 7.16090 1.25332   3
   3   0  14 7.48547 2.33110   2
  -3   0 -14 8.92355 1.50938   8
  -4   0 -14 465.993 23.9359   3
  -4   0 -14 432.774 23.8903   4
  -4   0 -14 476.876 24.2141   8
  -5   0 -14 189.701 10.7816   4
  -5   0 -14 199.562 11.1167   8
  -5   0 -14 203.285 10.8524   3
  -6   0 -14 4.10860 1.29353   3
  -6   0 -14 3.95581 1.43710   8
  -6   0 -14 3.57020 1.20995   4
  -7   0 -14 10.0060 1.48486   8
  -7   0 -14 9.51904 1.39103   3
   8  -1 -14 14.8576 2.36414   6
  -8  -1  14 9.87733 1.42053  10
  -8  -1  14 9.12592 1.31099   4
  -8   1  14 9.80325 1.38009  10
  -8   1  14 13.4138 2.78021   6
   8   1 -14 8.98106 1.21408   4
  -7  -1  14 81.7122 5.90135   1
   7  -1 -14 89.2305 6.27036   6
  -7  -1  14 86.1658 5.04538   4
  -7  -1  14 83.4701 4.93038  10
  -7   1  14 85.0256 6.21087   1
  -7   1  14 83.6359 6.06604   6
   7   1 -14 83.5994 5.03440   4
  -7   1  14 88.8381 5.11635  10
  -6  -1  14 15.6198 1.71720   4
   6  -1 -14 12.8666 2.74191   6
  -6  -1  14 14.1244 2.38964   1
   6  -1 -14 13.7075 1.66234   4
   6  -1 -14 12.2951 3.28369   7
  -6  -1  14 16.7044 2.22581  10
  -6   1  14 18.3694 2.71880   1
  -6   1  14 19.5403 1.99691  10
  -6   1  14 16.4989 2.25787   4
   6   1 -14 19.3617 1.77442   4
  -6   1  14 19.2406 2.73756   6
  -5  -1  14 107.758 6.43748   4
   5  -1 -14 107.602 7.58307   6
   5  -1 -14 105.735 6.39532   4
   5  -1 -14 106.314 8.34897   7
  -5  -1  14 114.872 7.26703   1
   5   1 -14 109.541 6.43346   4
  -5   1  14 114.454 7.53188   6
  -5   1  14 118.222 7.74831   1
  -5   1  14 118.170 6.48037   4
  -5   1  14 114.527 6.47213  10
   4  -1 -14 48.7420 3.72983   4
  -4  -1  14 51.0101 3.37038   4
   4  -1 -14 53.4585 4.36872   6
  -4  -1  14 57.1151 3.95631   1
   4  -1 -14 55.4251 5.32302   7
   4   1 -14 44.0242 5.37457   7
  -4   1  14 44.1786 4.23948   6
   4   1 -14 44.4437 3.26373   4
  -4   1  14 48.3439 4.19253   1
  -4   1  14 46.0606 3.34414  10
   3  -1 -14 133.842 8.49058   6
  -3  -1  14 125.800 9.16382   2
  -3  -1  14 141.777 8.01928   1
   3  -1 -14 143.139 9.42056   7
  -3   1  14 140.231 8.46443   1
  -3   1  14 124.979 8.49997   6
  -3   1  14 128.499 9.21815   2
  -3   1  14 131.906 7.52284  10
   3   1 -14 137.771 9.73458   7
  -2  -1  14 244.794 13.6917   1
  -2  -1  14 249.194 15.1852   2
   2  -1 -14 267.731 15.1615   7
   2   1 -14 256.300 15.5898   7
  -2   1  14 240.040 14.9962   2
   1  -1 -14 26.0045 3.30897   7
  -1  -1  14 25.0625 3.16666   2
   1   1 -14 24.6248 2.18205   8
   1   1 -14 24.1472 3.73030   7
  -1   1  14 26.5532 3.15538   2
   0  -1 -14 48.7435 4.57449   7
   0  -1  14 51.9060 4.58565   2
   0   1  14 57.8337 4.79508   2
   0   1 -14 58.4991 5.51505   7
   0   1 -14 51.8945 3.49703   8
   1  -1  14 115.130 7.84548   2
   1   1  14 121.570 8.05745   2
  -1   1 -14 109.123 6.44876   3
  -1   1 -14 122.741 8.95926   7
  -1   1 -14 110.950 6.54799   8
  -2  -1 -14 2.56245 0.88784   8
  -2  -1 -14 1.64814 0.68470   3
  -2   1 -14 3.45049 1.03888   3
  -2   1 -14 2.48780 1.62027   7
  -2   1 -14 2.98802 1.09562   8
   2   1  14 4.17364 1.94161   2
  -3  -1 -14 85.5471 4.95453   8
  -3  -1 -14 84.3389 4.73871   3
  -3   1 -14 65.0872 6.59160   7
   3   1  14 74.0309 6.35869   2
  -3   1 -14 75.7175 4.63713   3
  -3   1 -14 73.9056 4.76897   8
  -4  -1 -14 172.026 9.24419   3
  -4  -1 -14 167.527 9.47713   8
  -4  -1 -14 155.711 9.13294   4
  -4   1 -14 165.739 9.14484   3
  -4   1 -14 165.524 9.35242   8
  -5  -1 -14 35.9227 2.77338   4
  -5  -1 -14 38.2429 2.89237   3
  -5  -1 -14 37.3713 3.15664   8
  -5   1 -14 39.1972 2.83514   3
  -5   1 -14 36.8132 3.02347   8
  -6  -1 -14 3.54135 1.33279   3
  -6  -1 -14 3.53263 1.48577   8
  -6  -1 -14 1.81124 0.76665   4
  -6   1 -14 1.91184 0.84418   8
  -6   1 -14 1.93004 0.84281   3
  -7  -1 -14 34.9395 2.57398   3
  -7  -1 -14 34.7508 2.76539   8
  -7  -1 -14 36.0130 2.51405   4
  -7   1 -14 35.6725 2.53037   3
  -8  -1 -14 2.58639 0.75793   4
  -8  -2  14 14.5806 1.39079   4
   8   2 -14 13.4873 1.31203   4
   7  -2 -14 40.2381 3.72343   6
  -7  -2  14 30.8026 2.33780   4
   7   2 -14 30.4802 2.33096   4
  -7   2  14 27.4916 3.21824   1
  -7   2  14 33.4306 3.77739   6
  -7   2  14 30.4513 2.41866  10
  -6  -2  14 112.376 6.40325   4
  -6  -2  14 107.936 7.11036   1
   6  -2 -14 120.050 7.78147   6
  -6   2  14 114.098 6.42978  10
   6   2 -14 104.155 6.34154   4
  -6   2  14 107.748 7.74943   1
  -6   2  14 113.274 7.66627   6
   5  -2 -14 19.5461 3.16422   6
   5  -2 -14 16.3144 3.47828   7
  -5  -2  14 17.3875 1.85527   4
  -5  -2  14 20.1220 2.32985   1
  -5   2  14 8.78677 2.83541   6
  -5   2  14 12.8946 1.86309  10
  -5   2  14 13.5068 2.59200   1
   5   2 -14 12.7682 1.67033   4
   4  -2 -14 19.9376 2.96596   6
   4  -2 -14 17.1356 3.52296   7
  -4  -2  14 21.2754 2.24919   1
  -4  -2  14 21.2410 1.97702   4
  -4   2  14 12.9787 2.91187   6
   4   2 -14 16.0257 1.82482   4
  -4   2  14 15.9570 1.89080  10
  -4   2  14 16.0999 2.64424   1
  -3  -2  14 74.7605 4.53820   1
   3  -2 -14 68.1391 5.05248   6
   3  -2 -14 60.5434 5.73075   7
  -3  -2  14 59.7269 6.02988   2
  -3   2  14 60.2099 4.99581   6
   3   2 -14 57.6552 4.27288   8
  -3   2  14 60.0138 4.00515  10
   2  -2 -14 94.7054 7.30009   7
   2  -2 -14 89.5598 6.42918   6
  -2  -2  14 103.945 6.05994   1
  -2   2  14 94.9331 7.26419   2
   2   2 -14 98.6904 8.52779   7
   2   2 -14 98.4278 5.97929   8
  -2   2  14 101.881 6.73797   6
   1  -2 -14 -0.0777 0.79404   6
   1  -2 -14 0.39631 1.08156   7
  -1  -2  14 -0.0948 0.68758   1
   1   2 -14 0.25981 1.61343   7
  -1   2  14 0.15963 1.02791   2
   1   2 -14 -0.1778 0.73138   8
   0  -2  14 2.74048 1.15076   1
   0  -2 -14 2.49355 1.61159   6
   0   2 -14 4.40219 1.16211   3
   0   2 -14 5.50379 1.31945   8
   0   2  14 4.77821 1.78719   2
   0   2 -14 4.17534 2.17788   7
  -1  -2 -14 100.185 6.42791   6
   1  -2  14 89.3914 5.90971   1
  -1   2 -14 99.0516 5.74417   3
   1   2  14 100.527 7.23621   2
  -1   2 -14 98.5493 6.20009   1
  -1   2 -14 98.6607 5.81462   8
  -1   2 -14 98.8171 8.43915   7
  -2  -2 -14 275.721 15.0618   6
  -2  -2 -14 277.707 14.3816   3
  -2   2 -14 255.673 17.2322   7
   2   2  14 262.681 16.1084   2
  -2   2 -14 268.991 14.3213   3
  -2   2 -14 262.743 14.3646   8
  -3  -2 -14 25.4443 2.68617   6
  -3  -2 -14 24.3659 2.22472   3
  -3  -2 -14 23.9158 2.09946   4
  -3  -2 -14 21.5990 2.37753   8
  -3   2 -14 24.8721 2.18142   3
  -3   2 -14 25.8436 2.22155   8
  -3   2 -14 23.1817 4.13313   7
  -4  -2 -14 65.4392 4.22450   4
  -4  -2 -14 70.7368 4.41047   3
  -4  -2 -14 67.3144 4.59168   8
  -4   2 -14 69.6046 4.41464   8
  -4   2 -14 56.1367 6.41705   7
  -4   2 -14 68.3245 4.23076   3
  -5  -2 -14 53.6603 3.55227   3
  -5  -2 -14 51.8326 3.77868   8
  -5  -2 -14 46.6634 3.27283   4
  -5   2 -14 45.8367 3.46802   8
  -5   2 -14 46.0615 3.26920   3
  -6  -2 -14 6.99397 1.23421   4
  -6  -2 -14 8.61954 1.48079   3
  -6  -2 -14 8.97216 1.63608   8
  -6   2 -14 8.33894 1.30466   3
   6   2  14 10.4928 1.61296   3
  -7  -2 -14 12.7502 1.47009   3
  -7  -2 -14 12.5846 1.41364   4
   7   2  14 16.5855 1.66296   3
   7  -3 -14 18.3735 2.35959   6
  -7  -3  14 19.2238 1.65237   4
   7   3 -14 19.7436 1.60982   4
   6  -3 -14 9.82604 2.28542   6
  -6  -3  14 8.96116 1.35508   4
   6   3 -14 5.18590 1.16887   4
  -6   3  14 5.86492 2.01916   1
  -6   3  14 4.03965 1.66317   6
   5  -3 -14 44.0884 4.20556   6
  -5  -3  14 46.6214 3.58918   1
  -5   3  14 45.4277 4.42349   1
  -5   3  14 42.6260 4.23698   6
  -4  -3  14 161.606 8.58186   1
   4  -3 -14 148.097 9.18646   6
   4  -3 -14 119.464 9.55222   7
  -4   3  14 143.242 9.13356   6
   4   3 -14 131.891 8.22056   8
   3  -3 -14 112.353 9.08991   7
  -3  -3  14 152.523 8.04596   1
   3  -3 -14 135.894 8.62750   6
   3   3 -14 122.249 7.80682   8
   2  -3 -14 77.1314 5.78374   6
   2  -3 -14 68.6238 6.34204   7
  -2  -3  14 82.8806 5.22571   1
   2   3 -14 85.8633 5.32312   8
  -1  -3  14 189.410 9.65079   1
   1  -3 -14 177.033 10.1870   6
   1   3 -14 143.493 9.06843   3
   1   3 -14 140.013 12.1728   7
   1   3 -14 162.074 9.41632   8
   0  -3  14 18.2316 2.12722   1
   0  -3 -14 18.5916 2.55212   6
   0   3 -14 16.7756 2.04965   8
   0   3 -14 13.8018 1.88566   3
   0   3 -14 13.1764 4.20394   7
  -1  -3 -14 104.261 6.80669   6
   1  -3  14 91.6930 6.24043   1
  -1   3 -14 103.033 6.12484   8
  -1   3 -14 102.825 6.06218   3
  -1   3 -14 93.8958 8.96937   7
  -1   3 -14 105.806 6.60373   1
  -2  -3 -14 28.9428 2.98730   6
   2  -3  14 25.0904 2.58880   1
  -2   3 -14 24.4049 4.57744   7
  -2   3 -14 24.8455 2.72208   1
  -2   3 -14 25.6420 2.35060   3
  -2   3 -14 24.1937 2.35335   8
  -3  -3 -14 123.127 6.97573   4
  -3  -3 -14 128.438 7.81607   6
   3  -3  14 113.247 7.41685   1
  -3  -3 -14 130.915 7.24055   3
  -3   3 -14 127.546 7.08097   3
  -3   3 -14 105.698 9.82277   7
   3   3  14 127.675 7.24946   3
  -3   3 -14 115.846 7.61421   1
  -3   3 -14 121.184 7.11216   8
  -4  -3 -14 104.864 8.32545   8
  -4  -3 -14 121.080 6.82521   4
  -4  -3 -14 124.454 7.04520   3
  -4  -3 -14 122.092 7.52234   6
  -4   3 -14 122.504 6.98863   8
  -4   3 -14 116.431 6.78728   3
   4   3  14 126.636 7.09184   3
  -4   3 -14 100.101 9.32838   7
  -5  -3 -14 70.3416 4.74929   8
  -5  -3 -14 69.2590 4.61281   3
  -5  -3 -14 70.8487 4.43052   4
  -5  -3 -14 68.7842 4.99563   6
   5   3  14 78.0075 4.72932   3
  -5   3 -14 75.7673 4.43520   3
  -6  -3 -14 12.4401 1.67455   8
  -6  -3 -14 14.9440 1.51756   4
  -6  -3 -14 13.1873 1.83346   6
  -6  -3 -14 14.9525 1.68543   3
   6   3  14 15.1848 1.69561   3
  -7  -3 -14 17.8930 1.44896   4
   6  -4 -14 13.6654 2.60983   6
   5  -4 -14 96.7933 6.19205   6
   5   4 -14 76.9894 5.25429   8
   4  -4 -14 7.93888 2.24064   6
  -4  -4  14 9.20314 1.56627   1
   4   4 -14 3.98669 1.75409   8
   3  -4 -14 6.69870 2.27807   6
  -3  -4  14 8.83137 1.60841   1
   3   4 -14 13.1089 2.16776   8
  -2  -4  14 180.015 9.74568   1
   2  -4 -14 167.353 10.3832   6
   2   4 -14 150.867 9.62024   8
   1  -4 -14 95.0818 6.93995   6
  -1  -4  14 99.7912 6.30229   1
   1   4 -14 108.209 6.37284   8
   1   4 -14 95.0746 6.03641   3
   0  -4  14 137.450 7.74883   1
   0  -4 -14 127.616 8.26552   6
   0   4 -14 120.131 7.46556   8
   0   4 -14 112.197 7.29451   3
   1  -4  14 9.02335 1.80999   1
  -1  -4 -14 8.16120 2.18348   6
  -1   4 -14 5.39064 3.50526   7
  -1   4 -14 8.35581 1.78265   8
  -1   4 -14 8.22109 1.76594   3
  -1   4 -14 9.77438 1.95155   1
  -2  -4 -14 49.5475 4.09040   6
   2  -4  14 43.1851 3.69278   1
  -2   4 -14 47.6535 3.47627   8
  -2   4 -14 50.6380 3.49491   3
  -2   4 -14 38.2605 5.93450   7
  -2   4 -14 50.0464 4.03942   1
  -3  -4 -14 25.3319 2.83208   6
   3  -4  14 23.3462 2.58109   1
  -3  -4 -14 26.9397 2.67234   3
  -3   4 -14 24.6370 2.78588   1
  -3   4 -14 25.3440 2.33221   3
   4  -4  14 11.8365 1.85253   1
  -4  -4 -14 12.0025 1.75462   3
  -4  -4 -14 15.6035 2.05401   6
  -4   4 -14 12.5062 1.59412   3
   4   4  14 12.2628 1.69925   3
  -4   4 -14 10.2983 1.89278   1
  -5  -4 -14 13.3406 1.83901   6
  -5   4 -14 14.6463 1.70669   3
   5   4  14 13.6554 1.57794   3
   4  -5 -14 7.69827 1.76828   6
   3  -5 -14 21.9545 2.68972   6
   3   5 -14 17.8826 2.16654   8
   2  -5 -14 9.82422 2.13793   6
  -2  -5  14 9.04659 1.49668   1
   2   5 -14 7.43573 1.81470   8
   2   5 -14 7.91088 1.54878   3
  -1  -5  14 64.9172 4.38809   1
   1  -5 -14 64.5298 5.03599   6
   1   5 -14 64.6048 4.39173   8
   1   5 -14 65.8082 4.29596   3
   0  -5  14 4.42988 1.39851   1
   0  -5 -14 2.50683 1.28509   6
   0   5 -14 2.96014 1.10907   8
   0   5 -14 4.96667 1.63068   3
  -1  -5 -14 144.547 9.20311   6
   1  -5  14 152.959 8.87215   1
  -1   5 -14 160.345 9.76170   8
  -1   5 -14 151.430 8.59993   3
   2  -5  14 6.40162 1.41654   1
  -2  -5 -14 5.78156 1.79815   6
  -2   5 -14 7.44948 1.67442   1
  -2   5 -14 5.21992 1.45823   3
   3  -5  14 46.5995 3.55487   1
  -3  -5 -14 49.0646 3.73525   6
  -3   5 -14 50.8609 3.27558   3
  -3   5 -14 53.2897 3.90462   1
  -4  -5 -14 4.26301 1.38218   6
   8   0 -15 153.883 7.90708   4
  -8   0  15 137.925 8.04744  10
  -7   0  15 3.28776 1.80377   6
  -7   0  15 1.04590 0.92200  10
   7   0 -15 1.77313 1.18633   6
  -7   0  15 1.98984 0.83668   4
   7   0 -15 2.22685 0.77353   4
  -7   0  15 2.91245 1.69427   1
   6   0 -15 56.1134 3.61713   4
  -6   0  15 56.7169 4.50521   6
  -6   0  15 57.0494 3.69692   4
   6   0 -15 53.4780 5.36558   6
  -6   0  15 57.4720 4.63888   1
  -6   0  15 52.8428 3.59692  10
  -5   0  15 24.4932 2.19224  10
  -5   0  15 29.0358 3.06996   1
  -5   0  15 27.2109 2.33214   4
   5   0 -15 24.4476 2.17658   4
   5   0 -15 26.4830 4.01005   7
  -4   0  15 498.458 25.2705   1
   4   0 -15 445.800 24.2965   4
  -4   0  15 444.094 24.3146   4
   4   0 -15 487.209 26.6006   7
  -4   0  15 458.069 24.2733  10
  -3   0  15 51.7166 3.81773   1
   3   0 -15 48.7492 4.97519   7
  -3   0  15 44.6040 4.62831   2
  -2   0  15 292.140 17.1833   2
   2   0 -15 296.994 17.1702   7
  -2   0  15 279.919 15.6715   1
   1   0 -15 83.8041 6.63219   7
  -1   0  15 86.9247 6.49698   2
   0   0  15 96.4092 7.05437   2
   0   0 -15 96.8437 7.36271   7
   1   0  15 202.020 11.8287   2
  -1   0 -15 172.917 10.1180   8
  -1   0 -15 189.708 12.1854   7
   2   0  15 17.5103 2.71869   2
  -2   0 -15 15.3796 1.58193   3
  -2   0 -15 16.1906 1.79751   8
  -3   0 -15 456.092 23.7039   3
  -3   0 -15 467.762 23.9475   8
   3   0  15 439.415 25.6203   2
  -4   0 -15 10.4342 1.75398   8
  -4   0 -15 8.62580 1.44417   4
  -4   0 -15 11.0106 1.52935   3
  -5   0 -15 184.228 10.2586   4
  -5   0 -15 190.769 10.3055   3
  -5   0 -15 185.493 10.5470   8
  -6   0 -15 1.87646 0.75966   4
  -6   0 -15 2.50549 0.94372   8
  -6   0 -15 2.18917 0.91263   3
  -7   0 -15 15.8691 1.58356   3
  -7   0 -15 14.7179 1.81389   8
   8   1 -15 61.7565 3.89727   4
  -8   1  15 77.8341 4.65052  10
  -7  -1  15 2.01682 0.79858   4
   7  -1 -15 10.3912 2.48157   6
  -7  -1  15 2.50509 1.52749   1
  -7   1  15 2.69495 1.75866   1
  -7   1  15 2.40870 1.59071   6
   7   1 -15 3.50456 1.10351   4
  -7   1  15 4.65112 1.31542  10
  -6  -1  15 6.97632 1.38796   4
  -6  -1  15 6.17996 1.84493   1
   6  -1 -15 9.70555 2.54103   6
   6  -1 -15 6.41108 1.25772   4
  -6   1  15 4.92613 1.26559  10
  -6   1  15 5.36935 1.95741   1
  -6   1  15 3.94547 1.71899   6
   6   1 -15 7.16531 1.24367   4
  -5  -1  15 84.4362 5.71862   1
  -5  -1  15 79.3996 4.95578   4
   5  -1 -15 79.0116 6.94552   7
   5  -1 -15 86.8378 6.21405   6
   5  -1 -15 80.0364 4.88999   4
  -5   1  15 86.2739 6.12628   1
   5   1 -15 82.0388 4.93855   4
  -5   1  15 77.3246 4.93608  10
  -5   1  15 74.8248 5.97061   6
  -4  -1  15 42.3321 3.31272   1
   4  -1 -15 39.1824 3.87247   6
  -4  -1  15 38.7559 2.77575   4
   4  -1 -15 40.8676 4.72232   7
   4  -1 -15 37.5887 2.67769   4
  -4   1  15 32.5005 3.38523   1
   4   1 -15 32.7038 2.65534   4
   4   1 -15 31.5492 4.51353   7
  -4   1  15 30.8367 2.71751  10
   3  -1 -15 214.253 12.8154   7
  -3  -1  15 187.373 12.5283   2
   3  -1 -15 196.905 11.6440   6
  -3  -1  15 209.518 11.2084   1
  -3   1  15 185.343 11.6870   6
  -3   1  15 193.462 10.6450  10
   3   1 -15 190.953 12.9277   7
  -3   1  15 196.470 11.5463   1
  -3   1  15 189.569 12.5879   2
  -2  -1  15 186.367 11.8113   2
  -2  -1  15 180.631 10.1893   1
   2  -1 -15 194.208 11.7658   7
   2   1 -15 173.870 12.0132   7
  -2   1  15 168.279 11.4810   2
  -1  -1  15 391.725 21.3104   1
  -1  -1  15 421.232 22.9446   2
   1  -1 -15 409.969 22.8132   7
  -1   1  15 405.528 22.8161   2
   1   1 -15 382.747 21.1586   8
   1   1 -15 417.166 23.5177   7
   0  -1 -15 30.3560 3.71018   7
   0  -1  15 32.9914 3.60528   2
   0   1  15 34.6116 3.73572   2
   0   1 -15 33.1989 2.55470   8
   0   1 -15 35.9342 4.48173   7
   1  -1  15 184.416 11.2262   2
  -1   1 -15 170.574 9.69781   8
   1   1  15 179.955 11.2797   2
  -1   1 -15 187.461 12.3055   7
  -1   1 -15 165.351 9.53670   3
  -2  -1 -15 12.6791 1.45357   3
  -2  -1 -15 13.3134 1.71154   8
  -2   1 -15 11.8081 1.55692   8
  -2   1 -15 13.8100 3.26653   7
   2   1  15 7.91061 2.25374   2
  -2   1 -15 11.1415 1.42671   3
  -3  -1 -15 48.3612 3.54840   8
  -3  -1 -15 46.7775 3.26520   4
  -3  -1 -15 48.0644 3.29832   3
  -3   1 -15 46.8976 5.47186   7
  -3   1 -15 53.8621 3.35821   3
  -3   1 -15 49.7586 3.48573   8
  -4  -1 -15 45.7759 3.34352   8
  -4  -1 -15 43.9856 3.08175   3
  -4  -1 -15 39.8447 2.94274   4
  -4   1 -15 39.0704 3.15406   8
  -4   1 -15 39.4415 2.96149   3
  -5  -1 -15 4.17348 1.19419   4
  -5  -1 -15 4.54451 1.52742   8
  -5  -1 -15 5.89745 1.34532   3
  -5   1 -15 3.18281 1.44237   8
  -5   1 -15 3.62676 1.21009   3
  -6  -1 -15 15.2530 1.92425   8
  -6  -1 -15 15.4752 1.62401   4
  -6  -1 -15 14.7714 1.75783   3
  -6   1 -15 15.9233 1.82590   8
  -6   1 -15 16.6110 1.70296   3
  -7  -1 -15 3.04707 0.96879   3
  -7  -1 -15 3.13838 1.03529   4
   7   1  15 4.47821 1.16667   3
  -7   1 -15 4.75830 1.35034   3
   8   2 -15 66.1962 3.84960   4
   7  -2 -15 4.22999 1.99408   6
  -7  -2  15 6.57434 1.21898   4
  -7   2  15 4.22548 2.33622   6
  -7   2  15 4.70589 1.05947  10
  -7   2  15 5.42931 1.74844   1
   7   2 -15 5.83030 1.13629   4
  -6  -2  15 57.2188 4.64795   1
  -6  -2  15 58.7539 4.08140   4
   6  -2 -15 66.6801 5.32130   6
   6   2 -15 72.0964 4.14570   4
  -6   2  15 69.0672 5.38376   1
  -6   2  15 71.4102 4.18152  10
  -6   2  15 69.2343 5.35319   6
  -5  -2  15 72.6323 4.65510   4
  -5  -2  15 78.6623 5.30982   1
   5  -2 -15 80.7564 5.93856   6
   5  -2 -15 68.9381 6.44987   7
  -5   2  15 70.9706 5.77567   6
  -5   2  15 78.1251 5.94390   1
   5   2 -15 73.8773 4.62177   4
  -5   2  15 76.2829 4.66419  10
   4  -2 -15 37.8659 3.90013   6
  -4  -2  15 33.1412 2.80406   4
  -4  -2  15 34.1724 3.15106   1
   4  -2 -15 31.2795 4.42156   7
   4   2 -15 42.3402 2.89464   4
  -4   2  15 42.8006 4.05509   6
  -4   2  15 43.2284 2.90300  10
  -4   2  15 42.8623 3.97418   1
   3  -2 -15 87.9844 6.33231   6
   3  -2 -15 95.3450 7.41383   7
  -3  -2  15 86.9794 5.36664   4
  -3  -2  15 95.8368 5.81799   1
  -3   2  15 92.6021 6.46967   6
   3   2 -15 85.7218 5.31878   4
   3   2 -15 83.3179 5.75098   8
  -2  -2  15 7.28478 1.45030   1
   2  -2 -15 5.57464 2.53604   7
   2  -2 -15 5.85989 1.77679   6
   2   2 -15 6.32947 3.36581   7
  -2   2  15 4.42556 2.11907   2
   2   2 -15 3.87790 1.52365   8
   1  -2 -15 21.3707 3.25026   7
   1  -2 -15 18.6998 2.48031   6
  -1  -2  15 20.6899 2.10632   1
   1   2 -15 22.3342 4.34003   7
  -1   2  15 22.3670 3.05256   2
   1   2 -15 21.4475 2.17885   8
   0  -2  15 67.4645 4.76473   1
   0  -2 -15 65.7123 5.13928   6
   0   2  15 83.4398 6.27965   2
   0   2 -15 77.9406 4.63184   3
   0   2 -15 87.0455 7.68386   7
   0   2 -15 81.1844 4.85894   8
   1  -2  15 55.3214 4.10014   1
  -1  -2 -15 56.1313 4.49979   6
  -1   2 -15 64.8387 4.09479   8
  -1   2 -15 69.3499 6.76766   7
  -1   2 -15 64.4924 3.98866   3
   1   2  15 65.4267 5.43963   2
  -2  -2 -15 32.8024 2.56346   4
  -2  -2 -15 32.9471 3.26047   6
  -2   2 -15 39.1133 2.74023   3
  -2   2 -15 33.1467 2.69704   8
  -2   2 -15 34.5224 5.01971   7
  -3  -2 -15 105.071 6.30073   8
  -3  -2 -15 99.5944 5.97779   4
  -3  -2 -15 103.732 6.10433   3
  -3   2 -15 102.666 6.11657   8
  -3   2 -15 94.1931 8.61236   7
  -3   2 -15 105.423 6.03234   3
  -4  -2 -15 22.0771 2.37633   8
  -4  -2 -15 22.6198 2.20892   3
  -4  -2 -15 24.2222 2.07521   4
  -4   2 -15 20.7726 2.01365   3
  -4   2 -15 17.8324 3.87597   7
  -4   2 -15 21.9813 2.19082   8
  -5  -2 -15 31.6397 2.86315   8
  -5  -2 -15 31.7226 2.48284   4
  -5  -2 -15 32.7664 2.67104   3
  -5   2 -15 33.8452 2.51510   3
  -5   2 -15 32.0533 2.68146   8
  -6  -2 -15 30.9640 2.57891   8
  -6  -2 -15 29.4990 2.24508   4
  -6  -2 -15 31.3609 2.46600   3
  -6   2 -15 27.7284 2.21027   3
   6   2  15 31.3083 2.49561   3
  -7  -2 -15 1.86473 0.64077   4
   7   3 -15 26.4867 1.87099   4
   6  -3 -15 2.89532 1.29314   6
  -6  -3  15 3.36349 1.05561   4
   6   3 -15 2.93554 0.95386   4
  -6   3  15 2.98073 1.58723   1
   5  -3 -15 15.6723 2.72825   6
  -5  -3  15 16.4401 2.05397   1
  -5   3  15 18.2802 2.73748   1
  -4  -3  15 18.4308 2.17969   1
   4  -3 -15 17.8990 2.77531   6
   4  -3 -15 14.7427 3.39870   7
   4   3 -15 24.0536 2.41566   8
  -3  -3  15 231.396 11.8898   1
   3  -3 -15 194.839 13.2265   7
   3   3 -15 195.214 11.6612   8
  -2  -3  15 65.4620 4.36947   1
   2  -3 -15 55.7827 5.56618   7
   2  -3 -15 59.2181 4.89238   6
   2   3 -15 61.8576 4.43441   8
  -1  -3  15 140.893 7.59926   1
   1  -3 -15 128.303 8.09702   6
   1   3 -15 104.579 8.01739   3
   1   3 -15 124.047 7.46274   8
   1   3 -15 105.577 10.1904   7
   0  -3 -15 31.4223 3.21930   6
   0  -3  15 30.4483 2.67499   1
   0   3 -15 21.9713 4.82334   7
   0   3 -15 26.7486 2.69999   8
   0   3 -15 25.8104 2.46642   3
   1  -3  15 199.221 11.9496   1
  -1  -3 -15 221.065 12.5613   6
  -1   3 -15 211.167 11.7104   3
  -1   3 -15 202.107 15.1018   7
  -1   3 -15 234.070 12.4424   1
  -1   3 -15 210.461 11.7927   8
  -2  -3 -15 95.1649 5.15838   4
   2  -3  15 85.0475 5.54452   1
  -2  -3 -15 93.6339 6.04625   6
  -2   3 -15 77.9349 5.18744   8
  -2   3 -15 80.7432 5.69583   1
  -2   3 -15 79.2348 5.16056   3
  -2   3 -15 74.9937 7.95944   7
  -3  -3 -15 1.92593 1.10454   6
  -3  -3 -15 2.29206 0.77125   4
  -3  -3 -15 1.93346 0.92374   3
  -3   3 -15 4.13902 1.34087   3
   3   3  15 5.11428 1.43615   3
  -3   3 -15 3.78801 2.21924   7
  -3   3 -15 3.75917 1.38898   8
  -4  -3 -15 11.5697 1.47883   4
  -4  -3 -15 11.5629 1.88663   6
  -4  -3 -15 10.9679 1.64435   3
  -4   3 -15 6.24744 1.48753   8
   4   3  15 9.25500 1.62472   3
  -4   3 -15 8.26568 1.43820   3
  -5  -3 -15 80.7422 4.82902   4
  -5  -3 -15 80.9895 5.02424   3
  -5  -3 -15 77.2438 5.31949   6
  -5  -3 -15 76.8109 5.08891   8
  -5   3 -15 83.9824 4.85926   3
   5   3  15 87.2034 5.07663   3
  -6  -3 -15 19.0868 1.78616   3
  -6  -3 -15 19.6253 1.62781   4
  -6  -3 -15 17.5347 2.53451   6
   6   3  15 16.7176 1.73412   3
   5  -4 -15 16.2487 2.42143   6
   4  -4 -15 37.8907 3.65264   6
  -4  -4  15 35.7995 2.89729   1
   4   4 -15 33.6358 3.03060   8
  -3  -4  15 57.1805 4.03805   1
   3  -4 -15 55.0182 4.71585   6
   3   4 -15 58.1937 4.22003   8
  -2  -4  15 44.5953 3.35405   1
   2  -4 -15 45.0266 4.06121   6
   2   4 -15 34.2130 3.32599   8
  -1  -4  15 29.6148 2.71129   1
   1  -4 -15 29.0916 3.38388   6
   1   4 -15 28.5944 2.87035   8
   1   4 -15 28.2712 2.55855   3
   0  -4  15 89.6212 5.52565   1
   0  -4 -15 86.6882 6.07616   6
   0   4 -15 81.3161 5.36790   8
   0   4 -15 81.5994 5.22444   3
   0   4 -15 65.2740 7.93736   7
  -1  -4 -15 43.3060 3.80880   6
   1  -4  15 43.3282 3.41085   1
  -1   4 -15 39.6447 3.21721   8
  -1   4 -15 38.0721 3.12187   3
  -1   4 -15 29.6839 5.50173   7
   2  -4  15 54.4260 4.07964   1
  -2  -4 -15 55.1357 4.42149   6
  -2   4 -15 44.6409 6.72762   7
  -2   4 -15 55.7766 3.82890   8
  -2   4 -15 55.1844 3.81882   3
  -2   4 -15 57.8879 4.37020   1
   3  -4  15 65.6320 4.62520   1
  -3  -4 -15 69.6514 4.88058   6
  -3   4 -15 62.4472 4.22430   3
  -3   4 -15 67.2212 4.85703   1
  -4  -4 -15 14.9985 1.75264   3
  -4  -4 -15 14.5395 2.03289   6
  -4   4 -15 19.3863 1.71282   3
  -5  -4 -15 9.55715 1.45528   6
   3  -5 -15 5.32744 1.76887   6
   2  -5 -15 5.54386 1.89493   6
  -2  -5  15 4.78791 1.20512   1
   2   5 -15 6.68873 1.57246   8
  -1  -5  15 89.0470 5.37839   1
   1  -5 -15 85.1238 5.95843   6
   1   5 -15 81.8081 5.17516   3
   1   5 -15 81.9553 5.27509   8
   0  -5 -15 53.5577 4.35865   6
   0  -5  15 57.4667 3.94056   1
   0   5 -15 59.6667 3.85640   3
   0   5 -15 55.2321 3.83932   8
  -1  -5 -15 88.5327 5.98656   6
   1  -5  15 89.0401 5.64184   1
  -1   5 -15 92.1515 5.49621   8
  -1   5 -15 91.0141 5.47510   3
   2  -5  15 85.1459 5.30985   1
  -2  -5 -15 82.6411 5.56587   6
  -2   5 -15 82.1973 5.02764   3
  -3  -5 -15 6.67266 1.44066   6
   8   0 -16 18.2585 1.43557   4
  -7   0  16 6.85834 1.40978  10
   7   0 -16 11.2491 1.37943   4
  -7   0  16 9.87964 2.00369   1
  -6   0  16 -0.5108 0.90589  10
  -6   0  16 1.55552 1.14793   1
   6   0 -16 1.96113 0.77823   4
  -5   0  16 87.2549 6.03987   1
   5   0 -16 84.2259 5.10336   4
   5   0 -16 81.6466 7.05372   7
  -5   0  16 81.1732 5.11032  10
  -5   0  16 88.0601 5.14708   4
  -4   0  16 11.9194 1.99657   1
  -4   0  16 6.08583 1.68112  10
   4   0 -16 10.8777 3.11483   7
   4   0 -16 10.9894 1.46438   4
   3   0 -16 405.979 22.1858   4
  -3   0  16 429.977 22.8797   1
   3   0 -16 441.109 24.4436   7
  -2   0  16 114.246 8.39891   2
  -2   0  16 118.827 7.02449   1
   2   0 -16 113.348 8.41033   7
  -1   0  16 13.0100 2.53374   2
   1   0 -16 14.0430 2.93487   7
   0   0 -16 209.964 13.4722   7
   0   0  16 215.279 13.1288   2
   1   0  16 2.60045 1.65716   2
  -1   0 -16 2.15542 1.54449   7
  -1   0 -16 3.32288 1.14533   8
  -2   0 -16 186.750 10.2007   8
  -2   0 -16 183.538 9.97656   3
   2   0  16 180.510 11.7351   2
  -3   0 -16 0.14178 0.65308   4
  -3   0 -16 -0.0924 0.66288   3
  -3   0 -16 0.33926 0.76396   8
  -4   0 -16 33.6718 2.59732   4
  -4   0 -16 33.9304 2.66480   3
  -4   0 -16 36.2987 2.93009   8
  -5   0 -16 3.24299 1.40255   8
  -5   0 -16 2.39979 0.84680   4
  -5   0 -16 4.26975 1.32037   3
  -6   0 -16 29.0503 2.43444   4
  -6   0 -16 30.4867 2.38228   3
  -6   0 -16 28.4863 2.49876   8
   8   1 -16 4.07283 0.83463   4
  -7  -1  16 53.7180 3.39728   4
   7  -1 -16 58.4407 4.42874   6
  -7  -1  16 48.5280 4.00421   1
  -7   1  16 50.1976 4.33269   6
  -7   1  16 54.2225 4.30949   1
  -7   1  16 52.7808 3.39113  10
   7   1 -16 56.7231 3.40878   4
   6  -1 -16 45.1913 4.00669   6
  -6  -1  16 38.5296 2.78232   4
  -6  -1  16 35.6066 3.42353   1
   6  -1 -16 36.4233 2.66668   4
  -6   1  16 31.6254 3.78038   6
   6   1 -16 40.4789 2.76126   4
  -6   1  16 39.4139 3.74577   1
  -6   1  16 37.9251 2.82405  10
   5  -1 -16 132.275 8.12535   6
  -5  -1  16 123.392 7.58228   1
   5  -1 -16 117.100 6.69697   4
   5  -1 -16 107.756 8.62806   7
  -5  -1  16 119.607 6.81191   4
  -5   1  16 117.673 7.85699   1
  -5   1  16 104.398 7.76839   6
  -5   1  16 117.787 6.77428  10
   5   1 -16 119.897 6.77281   4
   4  -1 -16 20.7030 1.94050   4
   4  -1 -16 24.1954 3.91132   7
  -4  -1  16 24.8997 2.53224   1
  -4  -1  16 22.2698 2.07290   4
   4  -1 -16 25.0345 3.32385   6
   4   1 -16 18.7053 1.96269   4
  -4   1  16 19.6503 2.55748   1
  -4   1  16 18.0198 2.03724  10
  -4   1  16 12.8749 2.92262   6
   4   1 -16 18.6852 3.77568   7
  -3  -1  16 136.252 7.77640   1
   3  -1 -16 121.241 7.15470   4
   3  -1 -16 134.868 9.33578   7
  -3   1  16 125.495 7.20960  10
  -3   1  16 133.222 8.38539   6
   3   1 -16 124.042 7.21270   4
   3   1 -16 122.165 9.48000   7
  -3   1  16 124.373 8.00403   1
   2  -1 -16 176.153 11.0951   7
  -2  -1  16 158.816 9.36558   1
  -2  -1  16 167.967 11.0761   2
  -2   1  16 161.222 10.8607   2
   2   1 -16 159.516 11.3165   7
  -1  -1  16 274.550 16.2522   2
   1  -1 -16 279.430 16.2723   7
  -1  -1  16 263.250 14.6005   1
  -1   1  16 273.642 16.1749   2
   1   1 -16 260.467 14.4533   8
   1   1 -16 270.615 16.7758   7
   0  -1 -16 99.1136 7.53855   7
   0  -1  16 102.689 7.43970   2
   0   1 -16 104.364 8.25559   7
   0   1  16 106.566 7.62885   2
   0   1 -16 99.8068 6.00742   8
   1  -1  16 41.0091 4.22704   2
  -1   1 -16 39.6394 4.95516   7
  -1   1 -16 36.8587 2.66873   3
  -1   1 -16 38.2225 2.88961   8
   1   1  16 37.2356 4.10421   2
  -2  -1 -16 393.007 22.8136   4
  -2  -1 -16 440.205 22.6578   3
  -2  -1 -16 434.766 22.8425   8
  -2   1 -16 450.256 22.6796   3
  -2   1 -16 438.500 22.8130   8
  -2   1 -16 448.076 25.7135   7
  -3  -1 -16 135.911 7.63845   4
  -3  -1 -16 138.232 7.88988   8
  -3  -1 -16 136.449 7.65225   3
  -3   1 -16 129.116 7.75151   8
  -3   1 -16 136.207 7.63383   3
  -4  -1 -16 158.216 9.46246   4
  -4  -1 -16 168.104 9.55136   3
  -4  -1 -16 174.020 9.81787   8
  -4   1 -16 182.148 9.54492   3
  -4   1 -16 176.954 9.73456   8
  -5  -1 -16 20.7904 1.91739   4
  -5  -1 -16 21.5827 2.05213   3
  -5  -1 -16 22.3677 2.28626   8
  -5   1 -16 17.8720 2.08746   8
  -5   1 -16 20.2391 1.96897   3
  -6  -1 -16 6.54290 1.44244   8
  -6  -1 -16 6.02647 1.31237   3
  -6   1 -16 6.52247 1.32833   8
  -6   1 -16 6.26465 1.29626   3
  -7  -1 -16 1.94728 0.63177   4
   7  -2 -16 4.74105 1.89372   6
   7   2 -16 9.46263 1.21861   4
  -7   2  16 9.33165 2.13736   1
  -7   2  16 9.59160 2.12993   6
   6  -2 -16 71.3109 5.51871   6
  -6  -2  16 74.5066 4.48028   4
  -6  -2  16 68.7362 5.03309   1
   6   2 -16 80.6095 4.51624   4
  -6   2  16 75.3379 5.57998   1
  -6   2  16 72.2293 4.45591  10
  -6   2  16 72.4614 5.41973   6
   5  -2 -16 29.3713 4.22152   7
  -5  -2  16 32.8352 2.65474   4
   5  -2 -16 32.1473 3.74529   6
  -5  -2  16 33.6356 3.09647   1
   5   2 -16 35.9085 2.62563   4
  -5   2  16 35.1134 3.60434   1
  -5   2  16 37.7697 3.72342   6
  -5   2  16 36.5379 2.71773  10
   4  -2 -16 45.8488 4.33936   6
  -4  -2  16 50.2919 3.81096   1
   4  -2 -16 46.5083 5.07639   7
  -4   2  16 50.2139 4.36310   6
  -4   2  16 46.5107 4.23788   1
   4   2 -16 48.0619 3.31797   4
   3  -2 -16 161.175 10.0466   6
  -3  -2  16 172.523 9.50563   1
   3  -2 -16 170.204 11.1834   7
   3   2 -16 143.311 8.88003   4
  -2  -2  16 30.7328 2.61639   1
   2  -2 -16 23.9677 2.18362   4
   2  -2 -16 28.1213 3.08060   6
   2  -2 -16 27.9568 3.88428   7
   2   2 -16 24.7970 2.61575   8
   2   2 -16 27.9293 4.72691   7
   1  -2 -16 38.1994 3.17967   4
   1  -2 -16 46.9937 4.00426   6
   1  -2 -16 50.3565 4.97717   7
  -1  -2  16 51.1102 3.63453   1
   1   2 -16 54.2888 3.67903   8
   1   2 -16 57.0558 6.23436   7
   0  -2  16 61.6985 4.17133   1
   0  -2 -16 57.7001 4.57954   6
   0  -2 -16 62.3736 4.34513   4
   0   2 -16 58.7088 4.19456   3
   0   2 -16 62.1151 4.14823   8
   0   2 -16 59.5808 6.51647   7
  -1  -2 -16 247.017 13.6265   4
   1  -2  16 251.554 13.9598   1
  -1   2 -16 254.287 13.8312   8
  -1   2 -16 258.235 13.7212   3
  -1   2 -16 267.257 17.0736   7
  -2  -2 -16 177.355 9.65004   4
  -2   2 -16 181.075 9.70307   3
  -2   2 -16 166.209 9.73129   8
  -2   2 -16 174.650 12.8089   7
  -3  -2 -16 3.52449 1.17833   4
  -3  -2 -16 4.47686 1.37784   3
  -3   2 -16 7.44361 1.41331   3
  -3   2 -16 6.44060 1.45798   8
  -3   2 -16 6.21144 3.00631   7
  -4  -2 -16 67.2235 4.05004   4
  -4  -2 -16 67.8562 4.17201   3
  -4  -2 -16 65.5722 4.34528   8
  -4   2 -16 58.1914 4.14229   8
  -4   2 -16 55.9012 3.94191   3
  -5  -2 -16 2.81338 1.01979   8
  -5  -2 -16 2.18138 0.77680   4
  -5  -2 -16 3.75820 1.33691   3
  -5   2 -16 2.93930 1.22023   3
  -5   2 -16 2.96439 1.27341   8
  -6  -2 -16 2.67426 1.11172   8
  -6  -2 -16 1.81535 0.85174   3
  -6  -2 -16 2.28706 0.68178   4
   6   2  16 1.82539 0.85450   3
  -6   2 -16 1.18356 0.70134   3
  -7  -2 -16 13.7568 1.26371   4
   6  -3 -16 16.2100 2.36464   6
  -6   3  16 18.2866 2.30496   1
  -5  -3  16 73.1724 4.92171   1
   5  -3 -16 72.8147 5.48242   6
   4  -3 -16 53.2798 4.53110   6
  -4  -3  16 56.8111 3.91051   1
   4  -3 -16 58.5085 7.74645   7
   4   3 -16 39.1807 3.61935   8
   3  -3 -16 76.3341 6.86296   7
   3  -3 -16 84.7111 6.22667   6
  -3  -3  16 85.4025 5.52961   1
   3   3 -16 93.0260 5.60589   8
  -2  -3  16 154.390 8.48917   1
   2  -3 -16 136.745 9.99464   7
   2  -3 -16 145.752 9.13488   6
   2   3 -16 128.898 8.32805   8
   1  -3 -16 116.050 7.85612   6
  -1  -3  16 122.919 7.32798   1
   1   3 -16 128.933 7.34225   8
   1   3 -16 109.986 10.1108   7
   0  -3 -16 53.0634 4.50647   6
   0  -3  16 58.9926 4.08622   1
   0   3 -16 49.1376 6.54669   7
   0   3 -16 54.0844 3.77194   3
   0   3 -16 55.7105 4.04756   8
   1  -3  16 45.9455 3.57281   1
  -1  -3 -16 42.3156 3.93946   6
  -1   3 -16 48.7313 3.54329   8
  -1   3 -16 46.5007 6.20034   7
  -1   3 -16 47.4545 3.37766   3
  -2  -3 -16 213.353 11.1043   4
  -2  -3 -16 210.372 11.9448   6
   2  -3  16 207.846 11.5343   1
  -2   3 -16 189.126 14.4030   7
  -2   3 -16 202.580 11.1720   3
  -2   3 -16 192.915 11.2106   8
  -3  -3 -16 112.573 6.05907   4
  -3  -3 -16 101.050 6.22545   3
  -3   3 -16 106.036 6.07779   3
  -3   3 -16 99.9125 6.13514   8
  -3   3 -16 89.8399 8.70324   7
  -4  -3 -16 50.5466 3.32583   3
  -4  -3 -16 50.3471 3.73792   6
  -4  -3 -16 55.8025 3.27622   4
  -4   3 -16 41.2638 3.26518   8
  -4   3 -16 40.9935 3.12891   3
   4   3  16 42.1124 3.23026   3
  -5  -3 -16 0.30858 0.55743   4
  -5  -3 -16 0.28774 0.60544   6
  -5  -3 -16 0.11778 0.74480   3
  -5   3 -16 0.34600 0.69606   3
   5   3  16 1.17442 0.79136   3
  -6  -3 -16 10.1666 1.20350   4
   5  -4 -16 18.3983 2.37561   6
  -4  -4  16 40.6970 3.09331   1
   4  -4 -16 40.9623 3.77604   6
   4   4 -16 40.2412 3.17798   8
   3  -4 -16 101.886 6.91697   6
  -3  -4  16 100.297 6.19859   1
   3   4 -16 100.202 6.26047   8
  -2  -4  16 46.5411 3.56244   1
   2  -4 -16 45.0583 4.22161   6
   2   4 -16 56.3338 3.89072   8
   1  -4 -16 36.8259 3.79734   6
  -1  -4  16 39.1287 3.17294   1
   1   4 -16 41.5604 3.34974   8
   1   4 -16 38.3409 3.00614   3
   0  -4  16 67.1832 4.67193   1
   0  -4 -16 65.3306 5.21165   6
   0   4 -16 70.8535 4.69521   8
   0   4 -16 70.4569 4.51063   3
  -1  -4 -16 108.258 7.08033   6
   1  -4  16 107.251 6.60337   1
  -1   4 -16 103.509 6.39582   8
  -1   4 -16 104.543 6.36528   3
  -2  -4 -16 4.28518 1.72833   6
   2  -4  16 6.08302 1.51017   1
  -2   4 -16 6.51113 1.56329   3
  -2   4 -16 7.10028 1.57108   8
  -3  -4 -16 78.7339 5.39850   6
   3  -4  16 86.3730 5.28521   1
  -3   4 -16 79.2103 4.88211   3
  -3   4 -16 74.6412 5.10109   8
  -4  -4 -16 8.10808 1.48236   6
   4   4  16 4.57110 1.38316   3
  -4   4 -16 8.72486 1.29140   3
   3  -5 -16 16.8666 2.11015   6
  -2  -5  16 16.9806 1.74922   1
   2  -5 -16 17.2461 2.25946   6
  -1  -5  16 80.2402 4.91560   1
   1  -5 -16 75.1565 5.40905   6
   1   5 -16 80.0261 4.75882   3
   1   5 -16 75.3723 5.13815   8
   0  -5 -16 1.39812 1.05219   6
   0  -5  16 1.81596 1.15206   1
   0   5 -16 2.18717 0.99855   3
   0   5 -16 2.30401 1.12415   8
   1  -5  16 35.0030 2.69410   1
  -1  -5 -16 32.6832 3.04183   6
  -1   5 -16 31.1158 2.57671   3
   2  -5  16 18.1304 1.93590   1
  -2  -5 -16 19.5501 2.16638   6
  -7   0  17 0.71884 0.72403  10
   7   0 -17 1.19809 0.62009   4
  -7   0  17 0.94348 0.99299   1
  -6   0  17 3.67205 1.60321   1
  -6   0  17 1.99144 0.95869  10
   6   0 -17 2.93297 0.83248   4
  -5   0  17 29.2171 2.50430  10
   5   0 -17 28.7918 4.12048   7
  -5   0  17 33.6849 3.24217   1
   5   0 -17 32.6199 2.47674   4
  -4   0  17 259.734 14.5549   1
   4   0 -17 246.628 15.8920   7
   4   0 -17 260.781 13.7205   4
   3   0 -17 30.4945 2.39083   4
   3   0 -17 32.0271 4.28642   7
  -3   0  17 30.4631 2.85214   1
   2   0 -17 151.134 8.67313   4
  -2   0  17 163.830 9.22201   1
   2   0 -17 157.982 10.7951   7
   1   0 -17 542.542 30.0510   7
  -1   0  17 529.743 29.7381   2
   0   0 -17 253.930 15.7229   7
   0   0  17 250.934 15.3357   2
   1   0  17 488.833 26.8196   2
  -1   0 -17 459.681 27.1012   7
  -1   0 -17 480.287 24.8817   8
  -2   0 -17 292.800 15.1351   3
  -2   0 -17 286.130 15.3494   8
  -2   0 -17 276.581 15.1305   4
  -3   0 -17 11.9612 1.48431   4
  -3   0 -17 12.6626 1.61665   3
  -3   0 -17 11.9961 1.79511   8
  -4   0 -17 -0.0100 0.64236   4
  -4   0 -17 -0.1152 0.78694   3
  -4   0 -17 -0.1390 0.76351   8
  -5   0 -17 46.4107 3.20302   3
  -5   0 -17 44.9195 3.10981   4
  -5   0 -17 43.3757 3.34583   8
  -6   0 -17 4.07303 1.27071   8
  -6   0 -17 4.45211 1.19620   3
  -7  -1  17 12.9131 2.27051   1
   7  -1 -17 15.7114 2.32567   6
  -7   1  17 16.2614 2.24918   6
  -7   1  17 17.7429 1.58358  10
   7   1 -17 17.4380 1.56050   4
  -7   1  17 16.3518 2.14328   1
   6  -1 -17 46.9028 3.05282   4
  -6  -1  17 44.3895 3.79683   1
   6  -1 -17 47.5772 4.19480   6
  -6   1  17 47.4681 4.05556   1
  -6   1  17 47.2974 3.14544  10
  -6   1  17 43.3046 4.02776   6
   6   1 -17 49.7421 3.17806   4
   5  -1 -17 72.4461 6.54433   7
   5  -1 -17 71.6648 4.46238   4
   5  -1 -17 75.6276 5.71965   6
  -5  -1  17 74.3496 5.25835   1
  -5   1  17 72.8139 5.50118   1
   5   1 -17 77.5146 4.56746   4
  -5   1  17 74.2852 4.55194  10
  -5   1  17 70.5837 5.51633   6
  -4  -1  17 132.538 8.26544   1
   4  -1 -17 129.911 7.57867   4
   4  -1 -17 133.504 9.80617   7
  -4   1  17 142.588 8.77202   6
   4   1 -17 130.185 9.96624   7
   4   1 -17 141.006 7.70176   4
  -4   1  17 133.247 8.57762   1
  -4   1  17 142.837 7.68679  10
   3  -1 -17 17.9010 3.48571   7
   3  -1 -17 16.5755 1.68828   4
  -3  -1  17 19.2405 2.14048   1
   3   1 -17 15.7854 1.71678   4
   3   1 -17 14.7195 3.51356   7
  -3   1  17 13.5685 2.07249   1
   2  -1 -17 13.8471 3.22998   7
   2  -1 -17 11.4622 1.42690   4
  -2  -1  17 13.9856 1.79567   1
   2   1 -17 13.9687 1.57155   4
   2   1 -17 14.8435 3.42674   7
   1  -1 -17 94.6416 7.28552   7
   1  -1 -17 82.1820 5.30597   4
  -1  -1  17 89.2077 5.59864   1
  -1  -1  17 91.5070 7.41582   2
   1   1 -17 94.1147 6.56132   8
   1   1 -17 93.9357 7.72841   7
   0  -1 -17 38.5360 3.28963   4
   0  -1 -17 40.2912 4.55802   7
   0  -1  17 42.9232 4.37669   2
   0   1 -17 43.9007 3.14585   8
   0   1 -17 44.2662 5.13307   7
  -1  -1 -17 15.0019 1.47357   4
  -1   1 -17 12.0777 1.73494   8
  -1   1 -17 12.0806 3.33787   7
  -1   1 -17 11.3622 1.47247   3
  -2  -1 -17 150.774 8.34834   8
  -2  -1 -17 139.726 7.74187   4
  -2   1 -17 122.578 10.1424   7
  -2   1 -17 135.600 7.89637   8
  -2   1 -17 137.832 7.73358   3
  -3  -1 -17 196.896 11.1896   8
  -3  -1 -17 196.019 10.9495   4
  -3  -1 -17 192.397 10.9453   3
  -3   1 -17 206.055 11.1582   8
  -3   1 -17 214.038 11.0092   3
  -4  -1 -17 18.1745 2.02770   3
  -4  -1 -17 21.0399 2.27649   8
  -4  -1 -17 18.4154 1.83963   4
  -4   1 -17 24.0110 2.04387   3
  -4   1 -17 18.6834 2.10043   8
  -5  -1 -17 33.5381 2.79007   3
  -5  -1 -17 37.6990 2.70927   4
  -5  -1 -17 37.5019 3.02955   8
  -5   1 -17 39.5630 2.80687   3
  -5   1 -17 38.5340 2.94532   8
  -6  -1 -17 10.6017 1.40200   3
  -6  -1 -17 9.53277 1.29747   4
  -6  -1 -17 10.4190 1.52597   8
  -6   1 -17 9.19763 1.40279   8
  -6   1 -17 9.98083 1.38236   3
  -7  -1 -17 21.2077 1.59920   4
   7   2 -17 3.70265 0.90568   4
   6  -2 -17 1.52956 1.21715   6
  -6  -2  17 2.31421 1.28228   1
  -6   2  17 2.54510 1.34570   6
  -6   2  17 3.70286 1.53146   1
   6   2 -17 1.58787 0.70355   4
   5  -2 -17 44.1730 4.09757   6
  -5  -2  17 46.2154 3.59944   1
  -5   2  17 40.3073 3.85985   1
  -5   2  17 45.3636 4.07265   6
   5   2 -17 43.9540 3.02871   4
   4  -2 -17 85.9678 7.44341   7
  -4  -2  17 99.7767 6.22652   1
   4  -2 -17 92.9029 6.73376   6
  -4   2  17 94.6825 7.96741   1
   4   2 -17 103.071 5.69455   4
   3  -2 -17 185.750 12.0264   7
  -3  -2  17 188.103 10.3468   1
   3  -2 -17 188.017 11.0049   6
   3   2 -17 170.171 9.74383   4
   3   2 -17 153.396 13.1518   7
   2  -2 -17 148.800 10.0897   7
  -2  -2  17 151.136 8.40947   1
   2  -2 -17 145.477 8.97605   6
   2  -2 -17 134.786 7.81777   4
   2   2 -17 135.421 8.18417   8
   2   2 -17 129.051 10.7058   7
   1  -2 -17 154.016 9.25543   6
   1  -2 -17 141.284 8.17615   4
   1  -2 -17 151.082 10.2664   7
  -1  -2  17 158.727 8.70088   1
   1   2 -17 142.860 8.53865   8
   1   2 -17 138.105 11.1169   7
   0  -2  17 102.258 6.09377   1
   0  -2 -17 95.8675 5.67737   4
   0   2 -17 96.7186 5.98367   8
   0   2 -17 93.6897 8.53283   7
  -1  -2 -17 213.648 11.9500   4
  -1   2 -17 221.232 12.1599   8
  -1   2 -17 227.409 12.0288   3
  -1   2 -17 222.576 15.2355   7
  -2  -2 -17 145.815 7.80221   4
  -2   2 -17 130.459 7.85427   8
  -2   2 -17 131.250 10.7156   7
  -2   2 -17 140.951 7.82626   3
  -3  -2 -17 42.0290 2.92934   4
  -3  -2 -17 43.8766 2.99986   3
  -3   2 -17 34.6003 5.01838   7
  -3   2 -17 38.2352 3.04790   8
  -3   2 -17 39.7451 2.93994   3
  -4  -2 -17 7.59572 1.59925   8
  -4  -2 -17 8.13516 1.46609   3
  -4  -2 -17 7.42337 1.29536   4
  -4   2 -17 6.46326 1.35642   3
  -4   2 -17 6.39310 1.50854   8
  -5  -2 -17 2.23915 0.94567   3
  -5  -2 -17 2.26728 0.71442   4
  -5  -2 -17 2.06574 0.89261   8
  -5   2 -17 3.08831 1.20234   8
  -5   2 -17 4.50751 1.21614   3
   5   2  17 4.40987 1.25378   3
  -6  -2 -17 11.7232 1.42711   3
  -6  -2 -17 11.8403 1.30508   4
   6   2  17 12.9467 1.46009   3
   6  -3 -17 50.1057 3.91835   6
  -5  -3  17 32.4082 2.79598   1
   5  -3 -17 35.0528 3.42704   6
   4  -3 -17 21.1560 2.93887   6
  -4  -3  17 22.0308 2.28965   1
   3  -3 -17 82.7764 5.95669   6
  -3  -3  17 84.1048 5.27854   1
   3  -3 -17 68.9363 6.44631   7
   3   3 -17 77.9059 5.15817   8
   2  -3 -17 63.9101 5.00315   6
  -2  -3  17 63.4924 4.27724   1
   2   3 -17 51.5017 4.19279   8
   1  -3 -17 18.7432 2.74541   6
  -1  -3  17 19.2288 2.22132   1
   1   3 -17 25.7955 2.57566   8
   1   3 -17 19.5362 4.28513   7
   0  -3 -17 48.9867 4.24930   6
   0  -3  17 52.2533 3.77717   1
   0   3 -17 52.4665 3.74048   8
   0   3 -17 46.9580 3.45743   3
   0   3 -17 44.0636 6.05118   7
   1  -3  17 65.3584 4.51375   1
  -1  -3 -17 62.7473 4.92779   6
  -1   3 -17 67.7464 4.31725   3
  -1   3 -17 68.9759 4.47422   8
  -1   3 -17 60.5763 7.05012   7
  -2  -3 -17 194.594 11.6803   6
  -2  -3 -17 199.771 10.9458   4
   2  -3  17 201.180 11.3417   1
  -2   3 -17 187.913 14.1888   7
  -2   3 -17 203.505 11.1408   8
  -2   3 -17 217.060 11.1126   3
  -3  -3 -17 3.61830 1.44740   6
  -3  -3 -17 4.18206 1.19802   4
  -3   3 -17 5.82937 1.42156   3
  -3   3 -17 6.43831 1.46673   8
  -4  -3 -17 7.85034 1.57753   6
  -4  -3 -17 7.00118 1.40665   3
  -4  -3 -17 9.08721 1.30958   4
  -4   3 -17 10.6481 1.50613   3
  -4   3 -17 9.43812 1.52239   8
   4   3  17 10.9163 1.50853   3
  -5  -3 -17 50.5355 3.24551   3
  -5  -3 -17 56.5115 3.15808   4
   5   3  17 43.7690 3.16116   3
  -5   3 -17 45.5038 3.11000   3
  -6  -3 -17 8.18652 0.99034   4
   4  -4 -17 13.7646 2.34277   6
   3  -4 -17 7.20434 2.13206   6
  -3  -4  17 6.54794 1.36289   1
   3   4 -17 8.11225 1.72009   8
   2  -4 -17 30.4220 3.32987   6
  -2  -4  17 28.2265 2.54639   1
   2   4 -17 30.6146 2.80631   8
  -1  -4  17 186.141 10.4219   1
   1  -4 -17 185.667 11.0774   6
   1   4 -17 178.062 10.3606   8
   0  -4 -17 67.6487 5.13766   6
   0  -4  17 67.3662 4.48082   1
   0   4 -17 63.1731 4.42690   8
   0   4 -17 62.2404 4.25741   3
   1  -4  17 121.457 7.52226   1
  -1  -4 -17 119.343 7.92387   6
  -1   4 -17 130.716 7.42384   8
  -1   4 -17 136.156 7.37346   3
  -2  -4 -17 81.6548 5.68161   6
   2  -4  17 88.7183 5.44076   1
  -2   4 -17 85.4639 5.19006   3
  -2   4 -17 81.5887 5.14523   8
  -3  -4 -17 2.49393 1.32462   6
   3  -4  17 2.70520 1.17221   1
  -3   4 -17 5.15738 1.21958   3
  -3   4 -17 5.58361 1.39672   8
  -4  -4 -17 31.7189 2.59789   6
   2  -5 -17 17.7631 2.20542   6
   1  -5 -17 59.0854 4.27809   6
  -1  -5  17 57.6707 3.88903   1
   0  -5 -17 24.2986 2.51928   6
   0  -5  17 24.9172 2.15216   1
   1  -5  17 6.78304 1.67382   1
  -1  -5 -17 7.38253 1.50658   6
  -2  -5 -17 44.9233 4.41501   6
   7   0 -18 58.8110 3.50348   4
  -6   0  18 9.57107 1.86039   1
   6   0 -18 9.19224 1.35235   4
  -6   0  18 11.1501 1.33784  10
  -5   0  18 15.6282 2.25286   1
   5   0 -18 15.3365 1.71523   4
  -4   0  18 33.3134 3.16904   1
   4   0 -18 33.9202 4.41842   7
   4   0 -18 33.7229 2.58501   4
   3   0 -18 7.04444 2.89404   7
  -3   0  18 6.74103 1.56265   1
   3   0 -18 5.69045 1.28249   4
   2   0 -18 3.44430 1.07994   4
  -2   0  18 3.89163 1.33201   1
   2   0 -18 4.93787 2.77329   7
   1   0 -18 394.170 20.9273   4
   1   0 -18 408.968 23.4292   7
   0   0 -18 1.03585 0.60934   4
   0   0 -18 0.10928 1.36803   7
  -1   0 -18 231.393 12.0013   8
  -1   0 -18 211.777 14.1796   7
  -1   0 -18 212.536 11.7317   4
  -2   0 -18 4.47434 1.22157   3
  -2   0 -18 4.05100 1.07916   4
  -2   0 -18 3.78890 1.50250   8
  -3   0 -18 31.2041 2.73264   8
  -3   0 -18 30.1149 2.42151   4
  -3   0 -18 32.9808 2.51221   3
  -4   0 -18 58.2072 4.02562   8
  -4   0 -18 58.0268 3.72964   4
  -4   0 -18 56.7536 3.79930   3
  -5   0 -18 56.6271 3.60673   4
  -5   0 -18 54.7370 3.83685   8
  -5   0 -18 56.7252 3.71734   3
  -6   0 -18 5.03793 1.35363   8
  -6   0 -18 4.22572 1.13400   3
   7   1 -18 4.11285 0.89935   4
  -6  -1  18 10.7462 1.82535   1
   6  -1 -18 10.9455 1.28271   4
   6  -1 -18 8.12866 2.52490   6
  -6   1  18 9.53066 1.83175   1
   6   1 -18 9.42449 1.35964   4
  -6   1  18 11.8657 2.05803   6
   5  -1 -18 41.8075 2.94304   4
  -5  -1  18 42.4348 3.61777   1
   5   1 -18 46.2773 3.04142   4
  -5   1  18 46.0447 3.89875   6
  -5   1  18 41.4835 3.78084   1
  -4  -1  18 63.5450 4.49134   1
   4  -1 -18 62.5201 3.84899   4
   4  -1 -18 56.5156 5.76559   7
   4   1 -18 62.3482 3.91317   4
   4   1 -18 53.1975 5.82859   7
  -4   1  18 59.0432 4.62258   1
  -3  -1  18 265.395 14.7103   1
   3  -1 -18 267.801 16.4673   7
   3  -1 -18 253.425 14.0882   4
   3   1 -18 281.415 14.1915   4
   3   1 -18 256.336 16.6688   7
   2  -1 -18 81.3460 4.81697   4
  -2  -1  18 86.4140 5.30891   1
   2  -1 -18 86.8322 7.08182   7
   2   1 -18 73.3027 4.76583   4
   2   1 -18 72.9216 7.00642   7
   1  -1 -18 118.744 6.91296   4
   1  -1 -18 121.428 9.02412   7
  -1  -1  18 119.367 7.27704   1
   1   1 -18 131.934 9.64497   7
   1   1 -18 127.166 6.93305   4
   0  -1 -18 90.0970 7.37570   7
   0  -1 -18 89.8896 5.35214   4
   0   1 -18 88.9793 5.31249   4
   0   1 -18 96.9812 5.66978   8
   0   1 -18 93.3900 7.93718   7
  -1  -1 -18 91.7492 5.77482   4
  -1   1 -18 107.456 6.10789   8
  -1   1 -18 102.754 5.79692   4
  -1   1 -18 100.191 8.42584   7
  -2  -1 -18 62.0375 3.94567   4
  -2   1 -18 58.6741 6.24380   7
  -2   1 -18 63.8825 4.17568   8
  -2   1 -18 61.3568 3.97442   3
  -3  -1 -18 20.7381 2.24995   8
  -3  -1 -18 21.8719 2.01107   4
  -3  -1 -18 21.0829 2.04647   3
  -3   1 -18 24.2403 2.28114   8
  -3   1 -18 23.0667 2.08124   3
  -4  -1 -18 4.47383 1.34332   3
  -4  -1 -18 2.98691 1.07678   4
  -4  -1 -18 2.76684 1.07421   8
  -4   1 -18 5.02814 1.25692   3
  -4   1 -18 4.28555 1.40313   8
  -5  -1 -18 6.49007 1.24249   4
  -5  -1 -18 7.80863 1.54764   8
  -5  -1 -18 7.51251 1.45751   3
  -5   1 -18 7.35726 1.41901   3
  -5   1 -18 6.89488 1.36987   8
  -6  -1 -18 46.5703 3.04154   3
  -6  -1 -18 47.9435 2.95192   4
  -6   1 -18 43.3883 2.95395   3
   7   2 -18 49.1352 2.97718   4
  -6  -2  18 5.71756 1.39164   1
   6  -2 -18 7.74851 1.77039   6
   6   2 -18 5.77120 1.08767   4
  -6   2  18 5.15021 1.46279   1
  -5  -2  18 96.0934 6.25002   1
   5  -2 -18 102.160 6.70936   6
  -5   2  18 91.3932 6.51515   1
   5   2 -18 104.234 5.71323   4
   4  -2 -18 43.6335 4.01117   6
  -4  -2  18 43.6855 3.44475   1
   4   2 -18 37.1817 2.87597   4
   3  -2 -18 20.7942 2.81967   6
  -3  -2  18 20.2308 2.28446   1
   3  -2 -18 18.6657 3.52825   7
   3   2 -18 20.8297 1.89965   4
   3   2 -18 18.4842 3.97199   7
   2  -2 -18 98.9399 5.71958   4
   2  -2 -18 104.255 7.95827   7
   2  -2 -18 106.693 6.94072   6
  -2  -2  18 106.661 6.27874   1
   2   2 -18 81.9977 8.14425   7
   2   2 -18 90.5933 5.99917   8
   1  -2 -18 123.168 7.31427   4
   1  -2 -18 131.089 9.56645   7
  -1  -2  18 132.038 7.77717   1
   1   2 -18 139.024 7.74857   8
   1   2 -18 128.407 10.2812   7
   0  -2 -18 1.25041 0.64952   4
   0  -2  18 2.55617 1.06720   1
   0   2 -18 5.30767 1.59986   8
   0   2 -18 5.40548 2.96890   7
  -1  -2 -18 189.103 9.68388   4
  -1   2 -18 161.776 12.5078   7
  -1   2 -18 175.966 9.65773   3
  -1   2 -18 170.129 9.80897   8
  -2  -2 -18 58.4881 3.79235   4
  -2   2 -18 57.6035 3.96993   8
  -2   2 -18 64.1550 3.89671   3
  -2   2 -18 50.8001 6.13711   7
  -3  -2 -18 118.708 6.31564   4
  -3  -2 -18 111.091 6.60239   3
  -3   2 -18 111.659 6.28973   3
  -3   2 -18 104.690 6.38102   8
  -3   2 -18 88.6131 8.54921   7
  -4  -2 -18 101.560 6.54682   8
  -4  -2 -18 119.120 6.43295   4
  -4  -2 -18 110.902 6.47450   3
  -4   2 -18 113.722 6.59402   8
  -4   2 -18 112.422 6.42409   3
  -5  -2 -18 3.34857 1.03891   4
  -5  -2 -18 3.94287 1.23136   8
  -5  -2 -18 2.82188 1.15652   3
   5   2  18 4.17997 1.15709   3
  -5   2 -18 4.96097 1.20104   3
  -5   2 -18 1.90301 0.78256   8
  -6  -2 -18 4.96286 0.92225   4
  -5  -3  18 38.1181 3.09133   1
   5  -3 -18 45.0047 3.65564   6
  -4  -3  18 2.72380 1.21131   1
   4  -3 -18 2.86301 1.40536   6
   3  -3 -18 19.1988 2.75763   6
  -3  -3  18 18.2006 2.10195   1
   3   3 -18 17.2116 2.15217   8
   2  -3 -18 85.5934 6.14022   6
  -2  -3  18 81.1799 5.37328   1
   2   3 -18 85.4739 5.41587   8
  -1  -3  18 50.4388 3.73102   1
   1  -3 -18 51.9842 4.41161   6
   1   3 -18 52.4224 3.83653   8
   1   3 -18 45.2313 6.01880   7
   0  -3  18 36.2976 2.96549   1
   0  -3 -18 33.4432 3.35185   6
   0   3 -18 32.5089 5.09208   7
   0   3 -18 31.5484 2.68584   3
   0   3 -18 35.6937 3.02707   8
  -1  -3 -18 44.7763 3.86909   6
  -1  -3 -18 44.4199 3.58689   4
   1  -3  18 43.0204 3.41958   1
  -1   3 -18 47.8499 3.28040   3
  -1   3 -18 46.8545 3.45769   8
  -1   3 -18 44.6573 5.84089   7
  -2  -3 -18 79.0147 4.82651   4
  -2  -3 -18 76.0759 5.43772   6
  -2   3 -18 81.1806 5.04372   8
  -2   3 -18 83.6332 4.99196   3
  -3  -3 -18 8.74023 1.62617   6
  -3  -3 -18 8.61261 1.35993   4
  -3   3 -18 12.4487 1.69053   8
  -3   3 -18 12.3567 1.64030   3
  -4  -3 -18 5.08595 1.15403   3
  -4  -3 -18 4.90428 1.06886   4
  -4   3 -18 5.44543 1.27942   3
   4   3  18 4.25199 1.26880   3
  -4   3 -18 5.48943 1.21045   8
  -5  -3 -18 23.6461 1.80470   4
   4  -4 -18 79.2032 5.41802   6
   3  -4 -18 20.1543 2.64377   6
  -3  -4  18 17.7285 1.91777   1
   3   4 -18 21.7233 2.37364   8
   2  -4 -18 89.0558 6.16515   6
  -2  -4  18 83.7216 5.45022   1
   2   4 -18 93.8905 5.57066   8
  -1  -4  18 27.2937 2.46023   1
   1  -4 -18 28.3742 3.13975   6
   1   4 -18 28.3017 2.58498   8
   0  -4  18 117.029 6.93202   1
   0  -4 -18 120.991 7.52054   6
   0   4 -18 113.625 6.81653   8
   0   4 -18 110.323 6.64289   3
  -1  -4 -18 170.248 10.2903   6
   1  -4  18 176.985 9.94067   1
  -1   4 -18 179.225 9.71071   3
  -1   4 -18 176.492 9.81490   8
  -2  -4 -18 48.0730 4.00856   6
   2  -4  18 54.2152 3.82646   1
  -2   4 -18 59.8109 3.74222   8
  -2   4 -18 63.3522 3.72484   3
  -3  -4 -18 30.8543 2.71523   6
  -3   4 -18 37.3934 2.51846   3
   0  -5 -18 77.5668 6.02289   6
   7   0 -19 21.5142 1.58750   4
  -6   0  19 1.42819 0.99993   1
   6   0 -19 3.31810 0.95743   4
  -5   0  19 50.6018 4.11377   1
   5   0 -19 56.2111 3.48090   4
  -4   0  19 2.21155 1.16008   1
   4   0 -19 2.63877 1.75216   7
   4   0 -19 3.95404 1.26238   4
   3   0 -19 18.3364 1.84825   4
   3   0 -19 18.0916 3.63128   7
  -3   0  19 18.6191 2.24722   1
   2   0 -19 212.612 13.9059   7
   2   0 -19 211.969 11.4608   4
   1   0 -19 59.9389 3.75421   4
   1   0 -19 57.9441 5.88700   7
   0   0 -19 11.2221 1.36919   4
   0   0 -19 10.6355 3.05219   7
  -1   0 -19 1.78681 1.68415   7
  -1   0 -19 1.43852 0.64040   4
  -2   0 -19 49.8229 3.94982   3
  -2   0 -19 51.6478 3.39247   4
  -2   0 -19 52.0299 3.67943   8
  -3   0 -19 60.2450 3.97322   3
  -3   0 -19 63.3655 3.96185   4
  -3   0 -19 62.9854 4.25549   8
  -4   0 -19 27.1452 2.31711   3
  -4   0 -19 29.2631 2.56272   8
  -4   0 -19 27.1684 2.25023   4
  -5   0 -19 21.3858 2.07927   8
  -5   0 -19 21.2435 1.98353   3
  -5   0 -19 22.9817 1.87827   4
   7   1 -19 39.3006 2.43628   4
   6  -1 -19 17.8749 1.47958   4
  -6  -1  19 16.9779 2.05022   1
  -6   1  19 13.5466 1.96372   1
   6   1 -19 16.7128 1.55226   4
  -5  -1  19 31.4137 2.94858   1
   5  -1 -19 31.8460 2.32129   4
  -5   1  19 29.5401 3.00164   1
   5   1 -19 33.0613 2.37117   4
  -4  -1  19 106.174 6.80550   1
   4  -1 -19 107.317 6.15680   4
   4  -1 -19 99.1207 8.91413   7
   4   1 -19 118.767 6.26968   4
  -4   1  19 104.161 6.94742   1
   3  -1 -19 38.7366 4.65104   7
   3  -1 -19 37.4686 2.64832   4
  -3  -1  19 37.2227 3.14387   1
   3   1 -19 32.6104 4.53864   7
   3   1 -19 34.9352 2.66947   4
  -2  -1  19 86.0829 5.48159   1
   2  -1 -19 84.4825 5.02552   4
   2  -1 -19 82.8438 7.13914   7
   2   1 -19 86.7355 5.04515   4
   2   1 -19 79.6184 7.32168   7
  -1  -1  19 127.051 7.96682   1
   1  -1 -19 129.725 7.20657   4
   1  -1 -19 133.776 9.52214   7
   1   1 -19 125.287 7.16068   4
   1   1 -19 123.148 9.68664   7
   0  -1 -19 414.747 25.5633   7
   0  -1 -19 443.028 23.3740   4
   0   1 -19 485.865 23.6631   8
   0   1 -19 460.479 23.3666   4
   0   1 -19 437.237 26.1993   7
  -1  -1 -19 8.98338 1.32944   4
  -1   1 -19 9.58148 3.05812   7
  -1   1 -19 9.88005 1.34266   4
  -1   1 -19 10.2706 1.73550   8
  -2  -1 -19 173.207 9.40619   4
  -2   1 -19 178.393 9.40743   3
  -2   1 -19 154.722 11.8622   7
  -2   1 -19 171.389 9.58395   8
  -3  -1 -19 10.0468 1.35248   4
  -3  -1 -19 8.53893 1.46890   3
  -3  -1 -19 10.2692 1.65209   8
  -3   1 -19 6.07885 1.38632   3
  -3   1 -19 5.55830 1.56660   8
  -4  -1 -19 19.3133 1.97529   3
  -4  -1 -19 20.1757 1.82273   4
  -4  -1 -19 18.8902 2.09368   8
  -4   1 -19 19.2244 2.10021   8
  -4   1 -19 19.9558 1.99728   3
  -5  -1 -19 4.49496 1.02951   4
  -5  -1 -19 4.27621 1.30531   8
  -5  -1 -19 4.39377 1.27251   3
  -5   1 -19 3.50159 1.17198   8
  -5   1 -19 3.42347 1.22165   3
  -6  -1 -19 14.8183 1.32620   4
   6  -2 -19 11.5325 2.51693   6
   6   2 -19 8.85363 1.12405   4
  -5  -2  19 34.0568 2.88849   1
   5  -2 -19 34.6345 3.25560   6
   5   2 -19 34.0921 2.36296   4
  -5   2  19 26.7588 3.11216   1
   4  -2 -19 29.1363 3.15355   6
  -4  -2  19 26.6407 2.55951   1
   4   2 -19 21.9409 2.00991   4
  -3  -2  19 28.0417 2.69067   1
   3  -2 -19 26.4279 4.14529   7
   3  -2 -19 29.6210 3.28316   6
   3  -2 -19 28.0390 2.20930   4
   3   2 -19 32.5476 2.32625   4
  -2  -2  19 43.2020 3.29131   1
   2  -2 -19 40.0352 2.79111   4
   2  -2 -19 38.3656 4.60303   7
   2   2 -19 36.1255 5.04074   7
   1  -2 -19 12.9968 4.00219   7
  -1  -2  19 17.2216 1.99595   1
   1  -2 -19 17.4094 1.72143   4
   1   2 -19 20.2270 2.18840   8
   1   2 -19 18.3966 3.79343   7
   0  -2 -19 26.2530 2.19567   4
   0  -2  19 27.1513 2.45950   1
   0   2 -19 24.1885 4.30313   7
   0   2 -19 28.1956 2.56636   8
  -1  -2 -19 23.0218 2.12494   4
  -1   2 -19 27.7262 2.48838   8
  -1   2 -19 27.1115 2.25476   3
  -1   2 -19 24.2798 4.23775   7
  -2  -2 -19 57.6372 3.71457   4
  -2   2 -19 51.4447 5.97317   7
  -2   2 -19 57.2584 3.75176   3
  -2   2 -19 58.3266 3.93002   8
  -3  -2 -19 9.17811 1.40147   4
  -3   2 -19 11.7857 1.64709   3
  -3   2 -19 12.4168 1.68041   8
  -4  -2 -19 10.5648 1.34393   4
  -4  -2 -19 8.45900 1.48190   3
   4   2  19 14.0205 1.54561   3
  -4   2 -19 10.9180 1.61748   8
  -4   2 -19 11.3233 1.59595   3
  -5  -2 -19 96.2067 5.18705   4
  -5  -2 -19 86.9506 5.38044   3
   5   2  19 87.4138 5.29741   3
  -5   2 -19 91.2940 5.21996   3
  -6  -2 -19 0.33415 0.41320   4
   5  -3 -19 25.0055 2.60937   6
   4  -3 -19 12.1021 2.25375   6
  -4  -3  19 11.5725 1.63238   1
  -3  -3  19 1.20572 0.92955   1
   3  -3 -19 1.55571 1.21589   6
   3   3 -19 2.40517 1.03908   8
  -2  -3  19 67.1055 4.48961   1
   2  -3 -19 74.0684 5.27681   6
   2   3 -19 58.1092 4.36239   8
   1  -3 -19 99.8205 6.67862   6
  -1  -3  19 94.6847 6.00038   1
   1   3 -19 96.3861 6.00080   8
   0  -3  19 78.4846 5.08985   1
   0  -3 -19 79.5233 5.66793   6
   0   3 -19 78.3713 5.08489   8
  -1  -3 -19 41.9112 3.66672   6
  -1  -3 -19 45.8536 3.03109   4
   1  -3  19 40.1192 3.24197   1
  -1   3 -19 47.0088 3.15880   3
  -1   3 -19 47.4019 3.38370   8
  -2  -3 -19 94.1695 5.37833   4
  -2  -3 -19 82.2731 6.27774   6
  -2   3 -19 92.4495 5.58599   8
  -2   3 -19 96.2337 5.49370   3
  -3  -3 -19 33.2942 2.38120   4
  -3   3 -19 31.4127 2.54511   8
  -3   3 -19 33.5676 2.49207   3
  -4  -3 -19 2.57083 0.68433   4
  -4   3 -19 1.81686 0.81664   3
  -5  -3 -19 0.37796 0.44028   4
   3  -4 -19 11.0007 1.97225   6
  -3  -4  19 10.5831 1.49621   1
  -2  -4  19 5.03965 1.21429   1
   2  -4 -19 6.19745 1.79403   6
   2   4 -19 5.44058 2.29709   8
  -1  -4  19 53.6327 3.73814   1
   1  -4 -19 56.3135 4.33280   6
   1   4 -19 54.4395 3.74025   8
   0  -4 -19 31.8214 3.17100   6
   0  -4  19 34.1624 2.74470   1
   0   4 -19 35.6683 2.61334   3
   0   4 -19 37.9104 2.85062   8
   1  -4  19 180.449 9.82932   1
  -1  -4 -19 171.781 10.1402   6
  -1   4 -19 172.685 9.67691   8
  -1   4 -19 174.873 9.55950   3
   2  -4  19 34.0097 2.90307   1
  -2  -4 -19 29.4461 2.75059   6
  -2   4 -19 39.0937 2.53852   3
   6   0 -20 2.14011 0.64788   4
  -6   0  20 2.77445 1.46796   1
  -5   0  20 5.55736 1.52358   1
   5   0 -20 6.35623 1.20336   4
   4   0 -20 -0.2069 0.63950   4
  -4   0  20 0.45309 0.91804   1
   3   0 -20 169.157 8.58697   4
  -3   0  20 146.029 9.07804   1
   3   0 -20 146.766 10.7743   7
   2   0 -20 19.1557 1.82515   4
   2   0 -20 17.3284 3.49537   7
   1   0 -20 250.208 13.3743   4
   0   0 -20 51.8433 5.49469   7
   0   0 -20 52.1251 3.40737   4
  -1   0 -20 1.33478 0.67739   4
  -1   0 -20 1.56851 1.47391   7
  -2   0 -20 72.6202 4.40967   4
  -2   0 -20 70.6502 4.66507   8
  -3   0 -20 43.5807 3.06826   3
  -3   0 -20 43.0701 3.00137   4
  -3   0 -20 44.4392 3.31427   8
  -4   0 -20 3.52355 1.23570   3
  -4   0 -20 2.16918 0.90095   8
  -4   0 -20 3.57693 1.07413   4
  -5   0 -20 9.12558 1.51028   8
  -5   0 -20 8.63142 1.36973   3
  -5   0 -20 8.87212 1.17067   4
   6  -1 -20 95.6684 5.47330   4
   6   1 -20 104.176 5.57568   4
  -5  -1  20 8.76567 1.62771   1
   5  -1 -20 8.19262 1.16431   4
   5   1 -20 4.60649 1.11784   4
   4  -1 -20 37.8327 2.59923   4
  -4  -1  20 35.9788 3.11821   1
   4   1 -20 37.8511 2.65636   4
  -4   1  20 33.3802 3.16492   1
   3  -1 -20 15.4738 3.34938   7
   3  -1 -20 13.4048 1.57215   4
  -3  -1  20 15.1596 1.96046   1
   3   1 -20 13.1095 1.59435   4
   3   1 -20 10.4923 3.15846   7
   2  -1 -20 96.8693 7.96709   7
  -2  -1  20 104.442 6.30191   1
   2  -1 -20 106.890 5.86082   4
   2   1 -20 98.9663 5.78130   4
   2   1 -20 88.2074 7.96422   7
   1  -1 -20 102.802 8.40403   7
   1  -1 -20 115.264 6.33770   4
   1   1 -20 117.828 6.33847   4
   1   1 -20 101.481 8.61264   7
   0  -1 -20 99.4630 8.47199   7
   0  -1 -20 103.781 6.12575   4
   0   1 -20 111.853 6.13000   4
   0   1 -20 98.0476 8.46337   7
   0   1 -20 115.587 6.41966   8
  -1  -1 -20 108.311 6.48195   4
  -1   1 -20 123.739 6.52381   4
  -1   1 -20 120.240 6.78194   8
  -1   1 -20 98.5427 8.70671   7
  -2  -1 -20 4.17404 1.16926   4
  -2   1 -20 6.17801 1.56263   8
  -2   1 -20 3.63597 1.94094   7
  -2   1 -20 3.38524 1.28323   3
  -3  -1 -20 14.1111 1.58015   4
  -3  -1 -20 12.9770 2.44535   8
  -3   1 -20 15.8672 1.77134   3
  -3   1 -20 15.9978 1.91686   8
  -4  -1 -20 128.027 7.18825   4
  -4  -1 -20 123.265 7.25260   3
  -4  -1 -20 122.514 7.40771   8
  -4   1 -20 137.204 7.29864   3
  -4   1 -20 132.956 7.44460   8
  -5  -1 -20 65.3959 4.16126   3
  -5  -1 -20 67.4635 4.02452   4
  -5   1 -20 70.6784 4.12855   3
  -6  -1 -20 5.21629 0.83171   4
   6   2 -20 52.8220 3.10953   4
   5  -2 -20 18.7671 2.33419   6
  -5  -2  20 17.9999 2.06848   1
   5   2 -20 23.7185 1.70855   4
  -4  -2  20 23.1589 2.34350   1
   4  -2 -20 24.8611 3.01539   6
   4   2 -20 22.1195 1.89813   4
   3  -2 -20 43.2001 2.82762   4
  -3  -2  20 43.7912 3.33898   1
   3   2 -20 36.5788 2.76131   4
   2  -2 -20 15.6247 1.63516   4
  -2  -2  20 16.3580 1.95497   1
  -1  -2  20 75.2878 4.92325   1
   1  -2 -20 79.5979 4.60637   4
   1   2 -20 78.0303 4.87604   8
   1   2 -20 66.5420 6.82428   7
   0  -2 -20 3.28171 1.12860   4
   0   2 -20 3.76725 2.55985   7
   0   2 -20 2.06661 0.96292   8
  -1  -2 -20 18.2201 1.87475   4
  -1   2 -20 18.3436 3.83211   7
  -1   2 -20 25.4735 2.29704   8
  -2  -2 -20 130.663 7.41834   4
  -2   2 -20 127.996 7.60569   8
  -2   2 -20 135.919 7.45775   3
  -3  -2 -20 16.9859 1.68125   4
  -3   2 -20 16.5700 1.94315   8
  -3   2 -20 16.3787 1.76794   3
  -4  -2 -20 25.9273 2.24922   3
  -4  -2 -20 30.8334 2.23822   4
  -4   2 -20 30.5170 2.43956   8
  -4   2 -20 34.4783 2.35834   3
  -5  -2 -20 33.5729 2.24529   4
  -4  -3  20 13.5877 1.66582   1
   4  -3 -20 14.7386 2.18244   6
   3  -3 -20 8.34839 1.94513   6
  -3  -3  20 7.55920 1.40356   1
   2  -3 -20 -0.0768 0.96562   6
  -2  -3  20 0.47007 0.80734   1
   2   3 -20 -0.0203 0.83659   8
   1  -3 -20 20.4364 2.62277   6
  -1  -3  20 18.8744 2.03263   1
   1   3 -20 19.9396 2.16760   8
   0  -3  20 16.7125 1.92171   1
   0  -3 -20 16.2437 2.39593   6
   0   3 -20 21.0112 2.20558   8
   1  -3  20 61.3314 4.49580   1
  -1  -3 -20 54.4599 3.45264   4
  -1   3 -20 49.9021 3.48779   3
  -1   3 -20 50.5579 3.68507   8
  -2  -3 -20 42.0431 2.86867   4
  -2   3 -20 44.2352 3.14304   8
  -2   3 -20 42.8107 2.99116   3
  -3  -3 -20 77.5642 4.35020   4
  -3   3 -20 70.4019 4.38755   3
  -3   3 -20 71.4560 4.93876   8
  -4  -3 -20 17.5159 1.46904   4
   2  -4 -20 1.57379 0.97374   6
   1  -4 -20 54.2033 4.05426   6
  -1  -4  20 51.5579 3.53671   1
   0  -4 -20 44.8307 3.53989   6
  -1  -4 -20 7.99668 1.51749   6
   6   0 -21 3.10811 0.77925   4
  -5   0  21 32.1447 2.84653   1
   5   0 -21 33.3359 2.31667   4
   4   0 -21 0.48504 0.64380   4
  -4   0  21 0.61042 0.85174   1
   3   0 -21 0.61345 0.66863   4
  -3   0  21 0.29656 0.82154   1
   2   0 -21 0.64369 0.66880   4
   2   0 -21 0.17606 1.34865   7
   1   0 -21 6.03240 1.19572   4
   1   0 -21 5.89657 2.68972   7
   0   0 -21 236.488 11.9918   4
   0   0 -21 206.481 14.2920   7
  -1   0 -21 0.53293 0.61972   4
  -1   0 -21 -0.0684 1.27133   7
  -2   0 -21 188.241 10.7117   8
  -2   0 -21 199.155 10.5468   4
  -3   0 -21 25.7979 2.14738   3
  -3   0 -21 25.4015 2.07752   4
  -3   0 -21 26.7925 2.39970   8
  -4   0 -21 18.0302 1.83818   8
  -4   0 -21 17.3095 1.59633   4
  -4   0 -21 15.3197 1.68816   3
   6   1 -21 16.9867 1.35154   4
   5  -1 -21 29.6312 2.06686   4
  -5  -1  21 28.3308 2.58790   1
  -5   1  21 24.7202 3.05009   1
   5   1 -21 31.4359 2.12807   4
  -4  -1  21 15.3024 1.95486   1
   4  -1 -21 16.9507 1.59809   4
   4   1 -21 16.7854 1.64211   4
  -3  -1  21 2.81796 1.25731   1
   3  -1 -21 2.42315 0.80095   4
   3   1 -21 0.78791 0.64820   4
   2  -1 -21 129.151 7.05010   4
  -2  -1  21 112.152 7.36394   1
   2   1 -21 129.560 7.04208   4
   2   1 -21 134.487 12.5438   7
   1  -1 -21 62.6193 6.26670   7
   1  -1 -21 76.0945 4.39047   4
   1   1 -21 79.6042 4.37848   4
   1   1 -21 61.0730 6.37049   7
   0  -1 -21 5.79425 1.15494   4
   0   1 -21 5.97106 1.13785   4
   0   1 -21 4.41620 2.57885   7
  -1  -1 -21 33.2216 2.48612   4
  -1   1 -21 33.7935 2.42124   4
  -1   1 -21 32.9118 2.72460   8
  -1   1 -21 26.9815 4.17434   7
  -2  -1 -21 15.3237 1.64936   4
  -2   1 -21 14.9366 1.96027   8
  -3  -1 -21 7.69778 1.23106   4
  -3   1 -21 6.30150 1.46232   8
  -3   1 -21 6.38777 1.37879   3
  -4  -1 -21 7.99069 1.98770   8
  -4  -1 -21 8.32819 1.18253   4
  -4  -1 -21 9.23721 1.29114   3
  -4   1 -21 7.76052 1.38459   8
  -4   1 -21 7.56328 1.28169   3
  -5  -1 -21 33.9679 2.24322   4
   5   2 -21 62.4165 3.64577   4
  -4  -2  21 14.0948 1.76403   1
   4   2 -21 12.1418 1.34783   4
  -3  -2  21 27.9585 2.53154   1
   3  -2 -21 26.0619 2.06520   4
   3   2 -21 27.6631 2.06588   4
  -2  -2  21 24.3160 2.31923   1
   2  -2 -21 23.2751 1.96648   4
  -1  -2  21 89.9775 5.72593   1
   1  -2 -21 100.420 5.47824   4
   1   2 -21 89.1175 5.59788   8
   0  -2 -21 102.687 6.15528   4
   0   2 -21 110.261 6.39568   8
  -1  -2 -21 56.0219 3.58135   4
  -1   2 -21 55.0432 3.83135   8
  -2  -2 -21 40.9581 2.85531   4
  -2   2 -21 41.7182 3.10941   8
  -2   2 -21 41.6440 2.91042   3
  -3  -2 -21 8.13463 1.20340   4
  -3   2 -21 6.09235 1.35735   3
  -3   2 -21 7.31093 1.45890   8
  -4  -2 -21 9.74449 1.16318   4
  -5  -2 -21 5.00253 0.80460   4
  -3  -3  21 9.73042 1.42296   1
   3  -3 -21 10.9228 1.92845   6
  -2  -3  21 62.0548 4.25416   1
   2  -3 -21 70.2967 4.84328   6
  -1  -3  21 4.01221 1.17523   1
   1  -3 -21 5.33866 1.70903   6
   1   3 -21 3.63466 1.40141   8
   0  -3  21 21.5220 2.03034   1
   0   3 -21 22.6360 2.22008   8
  -1  -3 -21 59.1314 3.65974   4
  -1   3 -21 60.4125 3.96091   8
  -2  -3 -21 0.92823 0.54251   4
  -2   3 -21 2.18387 1.56075   8
  -2   3 -21 0.35207 0.76560   3
  -3  -3 -21 4.99404 0.92708   4
  -4  -3 -21 24.7626 1.86079   4
   5   0 -22 23.8957 1.76955   4
  -4   0  22 136.417 8.63025   1
   4   0 -22 163.470 8.18387   4
   3   0 -22 24.7137 2.04335   4
   2   0 -22 8.86590 1.33972   4
   1   0 -22 10.4245 1.38405   4
   0   0 -22 7.95457 1.26020   4
  -1   0 -22 21.5669 1.91966   4
  -2   0 -22 31.8894 2.40334   4
  -3   0 -22 48.8315 3.03216   4
  -3   0 -22 42.5663 3.19207   8
  -4   0 -22 24.2969 1.83465   4
   5  -1 -22 14.0282 1.28406   4
   5   1 -22 16.3559 1.36184   4
   4  -1 -22 21.2615 1.67170   4
  -4  -1  22 17.5564 1.96711   1
   4   1 -22 18.0756 1.61440   4
  -3  -1  22 4.92822 1.32011   1
   3  -1 -22 7.22280 1.18218   4
   3   1 -22 3.99359 1.12407   4
   2  -1 -22 14.9769 1.51784   4
   2   1 -22 12.5127 1.49062   4
   1  -1 -22 48.9863 3.20333   4
   1   1 -22 47.2924 3.17267   4
   0  -1 -22 10.0500 1.38472   4
   0   1 -22 11.1947 1.36309   4
  -1  -1 -22 45.2494 3.24483   4
  -1   1 -22 50.8241 3.51818   8
  -1   1 -22 52.7597 3.28160   4
  -2  -1 -22 7.43785 1.22435   4
  -2   1 -22 7.96495 1.54716   8
  -3  -1 -22 47.1478 3.07986   4
  -3   1 -22 48.4067 3.31419   8
  -3   1 -22 46.4288 3.12543   3
  -4  -1 -22 18.2075 1.58163   4
  -5  -1 -22 18.2249 1.46435   4
   4   2 -22 16.3637 1.42955   4
  -3  -2  22 20.8067 2.08182   1
   3  -2 -22 23.5218 1.79280   4
   3   2 -22 20.4631 1.92999   4
  -2  -2  22 20.2949 2.08099   1
   2  -2 -22 23.6507 1.88243   4
  -1  -2  22 13.2064 1.86477   1
   1  -2 -22 15.7195 1.57744   4
   0  -2 -22 34.6102 2.52254   4
   0   2 -22 35.4063 2.77128   8
  -1  -2 -22 5.18575 1.18573   4
  -1   2 -22 3.56734 1.30895   8
  -2  -2 -22 55.5582 3.46690   4
  -2   2 -22 54.2608 3.67004   8
  -3  -2 -22 42.1996 2.75021   4
  -4  -2 -22 22.0621 1.66275   4
  -2  -3  22 6.42127 1.41559   1
  -1  -3  22 40.7293 2.94905   1
  -1  -3 -22 12.5599 1.28345   4
  -2  -3 -22 19.6608 1.54046   4
  -3  -3 -22 21.9177 1.60835   4
   5   0 -23 38.6132 2.40998   4
   4   0 -23 18.9624 1.61323   4
   3   0 -23 188.214 10.1341   4
   2   0 -23 53.8194 3.45227   4
   1   0 -23 36.8020 2.61897   4
   0   0 -23 36.1472 2.60327   4
  -1   0 -23 -0.3179 0.58604   4
  -2   0 -23 6.15584 1.15257   4
  -3   0 -23 20.0884 1.67484   4
  -4   0 -23 -0.3590 0.40382   4
   5   1 -23 15.2135 1.26769   4
   4  -1 -23 12.1547 1.26104   4
   4   1 -23 13.8203 1.33105   4
  -3  -1  23 3.13196 1.13998   1
   3  -1 -23 3.28056 1.02566   4
   3   1 -23 4.58329 1.05589   4
   2  -1 -23 33.3936 2.51320   4
   2   1 -23 38.3667 2.55364   4
   1  -1 -23 1.92515 0.69093   4
   1   1 -23 0.73694 0.59832   4
   0  -1 -23 19.8169 1.82088   4
   0   1 -23 19.8322 1.75156   4
  -1  -1 -23 18.2480 1.75308   4
  -1   1 -23 21.6019 1.99894   4
  -2  -1 -23 35.9476 2.42850   4
  -2   1 -23 31.1553 2.75089   8
  -3  -1 -23 -0.1551 0.51305   4
  -4  -1 -23 25.3351 1.79667   4
   4   2 -23 9.61768 1.50859   4
   3  -2 -23 44.3544 2.76841   4
   2  -2 -23 92.1221 4.84914   4
  -2  -2  23 76.9105 5.12340   1
   1  -2 -23 67.1980 4.07329   4
   0  -2 -23 39.6179 2.72130   4
  -1  -2 -23 6.56740 1.14701   4
  -2  -2 -23 5.23156 1.02411   4
  -3  -2 -23 10.7019 1.13931   4
   4   0 -24 2.00870 0.58422   4
   3   0 -24 4.83774 1.00026   4
   2   0 -24 50.8052 3.23127   4
   1   0 -24 37.3688 2.59210   4
   0   0 -24 67.9221 4.14052   4
  -1   0 -24 13.9908 1.52367   4
  -2   0 -24 0.39171 0.52643   4
  -3   0 -24 59.5877 3.51110   4
   4  -1 -24 84.8083 4.65576   4
   4   1 -24 82.4770 4.65802   4
   3  -1 -24 46.9659 2.92538   4
   3   1 -24 45.5408 2.88911   4
   2  -1 -24 112.506 6.31329   4
   2   1 -24 113.184 6.28174   4
   1  -1 -24 28.7446 2.16150   4
   1   1 -24 28.0303 2.11478   4
   0  -1 -24 2.18014 0.71984   4
   0   1 -24 2.19139 0.74069   4
  -1  -1 -24 2.05812 0.70302   4
  -2  -1 -24 1.47881 0.60920   4
  -3  -1 -24 37.3213 2.40008   4
   2  -2 -24 13.0282 1.26712   4
   1  -2 -24 7.19756 1.10215   4
   0  -2 -24 26.8769 2.01759   4
  -1  -2 -24 10.3591 1.20993   4
  -2  -2 -24 3.51770 0.84543   4
  -3  -2 -24 43.8296 3.08274   4
   3   0 -25 87.4664 4.89434   4
   2   0 -25 7.77779 1.12374   4
   1   0 -25 0.29159 0.54617   4
   0   0 -25 12.8194 1.39218   4
  -1   0 -25 30.4812 2.16300   4
  -2   0 -25 33.1512 2.22116   4
   3  -1 -25 114.658 6.35111   4
   3   1 -25 119.759 6.35830   4
   2  -1 -25 21.8813 1.68657   4
   2   1 -25 20.0405 1.63156   4
   1  -1 -25 165.113 8.91630   4
   1   1 -25 165.208 8.87007   4
   0  -1 -25 2.85413 0.76644   4
   0   1 -25 2.90931 0.94608   4
  -1  -1 -25 17.9020 1.55344   4
  -2  -1 -25 14.3279 1.30577   4
   1  -2 -25 17.3243 1.40051   4
   0  -2 -25 3.40840 0.79488   4
  -1  -2 -25 22.8542 1.65738   4
   2   0 -26 219.723 11.5372   4
   1   0 -26 1.62364 0.59217   4
   0   0 -26 8.00250 1.06428   4
  -1   0 -26 4.19288 0.81093   4
   1  -1 -26 4.22401 0.87339   4
   0  -1 -26 39.8462 2.52943   4
  -1  -1 -26 13.6186 1.25792   4
   0   0   0    0.00    0.00   0

 _exptl_absorpt_process_details 'SADABS 2014/5'
 _exptl_absorpt_correction_type   multi-scan
 _exptl_absorpt_correction_T_max  0.7529
 _exptl_absorpt_correction_T_min  0.4533
 _exptl_special_details
)
 The following wavelength and cell were deduced by SADABS from the
 direction cosines etc. They are given here for emergency use only:
 CELL 1.54189    8.438    6.107   22.263   90.028   92.136   90.043
)
;
_shelx_hkl_checksum              54778
_shelx_shelxl_version_number     2014/7
_olex2_diffrn_ambient_temperature_device 'Oxford Cryosystems'
_olex2_exptl_crystal_mounting_method
'The crystal was mounted on a loop with paratone oil'
_olex2_submission_original_sample_id LFU-X-22
_olex2_submission_special_instructions 'No special instructions were received'
loop_
_space_group_symop_operation_xyz
'x, y, z'
'-x, y+1/2, -z'
loop_
_atom_site_label
_atom_site_type_symbol
_atom_site_fract_x
_atom_site_fract_y
_atom_site_fract_z
_atom_site_U_iso_or_equiv
_atom_site_adp_type
_atom_site_occupancy
_atom_site_site_symmetry_order
_atom_site_calc_flag
_atom_site_refinement_flags_posn
_atom_site_refinement_flags_adp
_atom_site_refinement_flags_occupancy
_atom_site_disorder_assembly
_atom_site_disorder_group
C14A C 0.3780(10) 0.2075(16) 0.5597(3) 0.0392(14) Uiso 0.554(9) 1 d D . P A 1
H14A H 0.4228 0.0632 0.5632 0.059 Uiso 0.554(9) 1 calc GR . P A 1
H14B H 0.4192 0.2801 0.5254 0.059 Uiso 0.554(9) 1 calc GR . P A 1
H14C H 0.2647 0.1969 0.5550 0.059 Uiso 0.554(9) 1 calc GR . P A 1
N2A N 0.4191(6) 0.3309(13) 0.6132(2) 0.0331(10) Uiso 0.554(9) 1 d D . P A 1
C2A C 0.3449(9) 0.2921(16) 0.6677(3) 0.0314(10) Uiso 0.554(9) 1 d D U P A 1
C3A C 0.4119(10) 0.4218(19) 0.7134(3) 0.0278(9) Uiso 0.554(9) 1 d D U P A 1
C4A C 0.5533(4) 0.5393(7) 0.68673(14) 0.0271(9) Uani 0.554(9) 1 d D . P A 1
C1A C 0.5627(4) 0.4544(7) 0.62231(14) 0.0280(8) Uani 0.554(9) 1 d D . P A 1
H1A H 0.5724 0.5727 0.5929 0.034 Uiso 0.554(9) 1 calc R . P A 1
C10A C 0.2236(8) 0.1458(13) 0.6796(4) 0.0298(12) Uiso 0.554(9) 1 d D U P A 1
H10A H 0.1761 0.0634 0.6487 0.036 Uiso 0.554(9) 1 calc R . P A 1
C11A C 0.1739(8) 0.1240(13) 0.7383(4) 0.0288(12) Uiso 0.554(9) 1 d D U P A 1
C15A C 0.0561(9) -0.0541(16) 0.7521(5) 0.0441(17) Uiso 0.554(9) 1 d D . P A 1
H15A H -0.0102 -0.0829 0.7169 0.066 Uiso 0.554(9) 1 calc GR . P A 1
H15B H -0.0084 -0.0074 0.7843 0.066 Uiso 0.554(9) 1 calc GR . P A 1
H15C H 0.1122 -0.1852 0.7637 0.066 Uiso 0.554(9) 1 calc GR . P A 1
C12A C 0.2360(7) 0.2606(15) 0.7834(3) 0.0275(11) Uiso 0.554(9) 1 d D U P A 1
H12A H 0.1964 0.2534 0.8218 0.033 Uiso 0.554(9) 1 calc R . P A 1
C13A C 0.3574(9) 0.4086(14) 0.7714(3) 0.0291(11) Uiso 0.554(9) 1 d D U P A 1
H13A H 0.4011 0.4969 0.8018 0.035 Uiso 0.554(9) 1 calc R . P A 1
C14B C 0.3866(12) 0.252(2) 0.5464(4) 0.0392(14) Uiso 0.446(9) 1 d D . P A 2
H14D H 0.4466 0.1185 0.5456 0.059 Uiso 0.446(9) 1 calc GR . P A 2
H14E H 0.4187 0.3468 0.5147 0.059 Uiso 0.446(9) 1 calc GR . P A 2
H14F H 0.2757 0.2192 0.5409 0.059 Uiso 0.446(9) 1 calc GR . P A 2
N2B N 0.4145(7) 0.3588(17) 0.6035(3) 0.0331(10) Uiso 0.446(9) 1 d D . P A 2
C2B C 0.3443(11) 0.2907(19) 0.6560(3) 0.0314(10) Uiso 0.446(9) 1 d D U P A 2
C3B C 0.4075(13) 0.408(2) 0.7055(3) 0.0278(9) Uiso 0.446(9) 1 d D U P A 2
C4B C 0.5533(4) 0.5393(7) 0.68673(14) 0.0271(9) Uani 0.446(9) 1 d D . P A 2
C1B C 0.5627(4) 0.4544(7) 0.62231(14) 0.0280(8) Uani 0.446(9) 1 d D . P A 2
H1B H 0.5845 0.5781 0.5958 0.034 Uiso 0.446(9) 1 calc R . P A 2
C10B C 0.2305(10) 0.1284(15) 0.6602(4) 0.0298(12) Uiso 0.446(9) 1 d D U P A 2
H10B H 0.1958 0.0489 0.6266 0.036 Uiso 0.446(9) 1 calc R . P A 2
C11B C 0.1701(9) 0.0885(15) 0.7162(5) 0.0288(12) Uiso 0.446(9) 1 d D . P A 2
C15B C 0.0583(12) -0.1011(17) 0.7248(6) 0.0441(17) Uiso 0.446(9) 1 d D . P A 2
H15D H -0.0085 -0.1191 0.6893 0.066 Uiso 0.446(9) 1 calc GR . P A 2
H15E H -0.0062 -0.0721 0.7586 0.066 Uiso 0.446(9) 1 calc GR . P A 2
H15F H 0.1184 -0.2326 0.7321 0.066 Uiso 0.446(9) 1 calc GR . P A 2
C12B C 0.2227(10) 0.2120(16) 0.7657(4) 0.0275(11) Uiso 0.446(9) 1 d D . P A 2
H12B H 0.1791 0.1874 0.8028 0.033 Uiso 0.446(9) 1 calc R . P A 2
C13B C 0.3399(11) 0.3727(18) 0.7606(3) 0.0291(11) Uiso 0.446(9) 1 d D . P A 2
H13B H 0.3724 0.4553 0.7940 0.035 Uiso 0.446(9) 1 calc R . P A 2
N1 N 0.7072(3) 0.3038(6) 0.62514(13) 0.0286(7) Uani 1 1 d . . . . .
S2 S 0.72862(12) 0.84685(18) 0.86006(4) 0.0336(3) Uani 1 1 d . . . . .
S1 S 0.82264(11) 0.27779(19) 0.56728(4) 0.0335(3) Uani 1 1 d . . . . .
O1 O 0.9165(4) 0.0853(6) 0.57771(14) 0.0413(8) Uani 1 1 d . . . . .
O4 O 0.7139(4) 1.0788(5) 0.85993(13) 0.0433(8) Uani 1 1 d . . . . .
O3 O 0.8707(3) 0.7473(6) 0.88344(12) 0.0406(7) Uani 1 1 d . . . . .
O2 O 0.7224(4) 0.2890(7) 0.51454(12) 0.0501(8) Uani 1 1 d . . . . .
N3 N 0.7036(4) 0.7639(6) 0.78974(13) 0.0296(7) Uani 1 1 d . . . . .
C16 C 0.5656(5) 0.7362(7) 0.89784(16) 0.0306(9) Uani 1 1 d . . . . .
C5 C 0.7044(4) 0.4627(7) 0.71806(16) 0.0240(8) Uani 1 1 d . . . . .
C6 C 0.7859(4) 0.3359(7) 0.68268(15) 0.0276(8) Uani 1 1 d D . . . .
C8 C 0.5623(5) 0.8583(8) 0.75815(18) 0.0337(9) Uani 1 1 d D . . . .
C18 C 0.4423(6) 0.4374(8) 0.94660(18) 0.0384(10) Uani 1 1 d D . . . .
C9 C 0.5483(5) 0.7887(8) 0.69270(16) 0.0322(9) Uani 1 1 d D . . . .
C17 C 0.5774(5) 0.5319(8) 0.92303(17) 0.0343(10) Uani 1 1 d D . . . .
C21 C 0.4215(5) 0.8496(9) 0.89579(17) 0.0391(10) Uani 1 1 d D . . . .
C7 C 0.7381(5) 0.5264(7) 0.78193(17) 0.0285(9) Uani 1 1 d D . . . .
C19 C 0.2972(5) 0.5429(9) 0.94395(18) 0.0421(11) Uani 1 1 d . . . . .
C20 C 0.2891(5) 0.7535(9) 0.91885(18) 0.0432(11) Uani 1 1 d D . . . .
C22 C 0.1507(6) 0.4376(12) 0.9679(3) 0.0633(16) Uani 1 1 d . . . . .
H22A H 0.1690 0.2784 0.9731 0.095 Uiso 1 1 calc GR . . . .
H22B H 0.0599 0.4615 0.9392 0.095 Uiso 1 1 calc GR . . . .
H22C H 0.1270 0.5038 1.0072 0.095 Uiso 1 1 calc GR . . . .
C23 C 0.9515(7) 0.5042(9) 0.5693(2) 0.0496(13) Uani 1 1 d D . . . .
H8A H 0.465(3) 0.815(9) 0.7769(17) 0.040(5) Uiso 1 1 d D . . . .
H7A H 0.850(3) 0.512(9) 0.794(2) 0.040(5) Uiso 1 1 d D . . . .
H7B H 0.668(4) 0.434(7) 0.8050(18) 0.040(5) Uiso 1 1 d D . . . .
H9A H 0.445(3) 0.841(8) 0.6781(18) 0.040(5) Uiso 1 1 d D . . . .
H8B H 0.566(5) 1.017(3) 0.762(2) 0.040(5) Uiso 1 1 d D . . . .
H9B H 0.637(4) 0.856(8) 0.6731(18) 0.040(5) Uiso 1 1 d D . . . .
H6 H 0.885(3) 0.282(8) 0.6902(19) 0.039(6) Uiso 1 1 d D . . . .
H18 H 0.441(5) 0.300(5) 0.9618(19) 0.039(6) Uiso 1 1 d D . . . .
H17 H 0.675(4) 0.468(8) 0.922(2) 0.039(6) Uiso 1 1 d D . . . .
H21 H 0.425(5) 0.985(5) 0.8792(19) 0.039(6) Uiso 1 1 d D . . . .
H20 H 0.190(3) 0.810(8) 0.9150(19) 0.039(6) Uiso 1 1 d D . . . .
H23A H 1.017(5) 0.470(11) 0.5360(16) 0.057(9) Uiso 1 1 d D . . . .
H23B H 1.020(5) 0.500(11) 0.6049(16) 0.057(9) Uiso 1 1 d D . . . .
H23C H 0.899(6) 0.644(6) 0.571(2) 0.057(9) Uiso 1 1 d D . . . .
loop_
_atom_site_aniso_label
_atom_site_aniso_U_11
_atom_site_aniso_U_22
_atom_site_aniso_U_33
_atom_site_aniso_U_23
_atom_site_aniso_U_13
_atom_site_aniso_U_12
C4A 0.0245(18) 0.027(2) 0.0296(19) 0.0053(16) 0.0042(14) -0.0003(16)
C1A 0.0277(19) 0.025(2) 0.0309(19) 0.0017(17) 0.0004(14) 0.0014(17)
C4B 0.0245(18) 0.027(2) 0.0296(19) 0.0053(16) 0.0042(14) -0.0003(16)
C1B 0.0277(19) 0.025(2) 0.0309(19) 0.0017(17) 0.0004(14) 0.0014(17)
N1 0.0313(15) 0.025(2) 0.0294(14) 0.0008(14) 0.0036(11) 0.0031(15)
S2 0.0429(5) 0.0267(6) 0.0311(5) -0.0030(4) 0.0022(4) -0.0021(4)
S1 0.0408(5) 0.0326(6) 0.0276(4) -0.0002(4) 0.0081(3) 0.0091(4)
O1 0.0460(18) 0.039(2) 0.0392(16) -0.0033(14) 0.0101(13) 0.0156(15)
O4 0.064(2) 0.0241(19) 0.0419(17) -0.0052(13) 0.0060(14) -0.0066(14)
O3 0.0399(16) 0.045(2) 0.0365(14) -0.0038(14) -0.0015(11) -0.0006(15)
O2 0.0647(19) 0.056(2) 0.0299(13) 0.0003(16) 0.0033(12) 0.0148(18)
N3 0.0341(16) 0.0238(19) 0.0312(15) 0.0008(14) 0.0052(12) 0.0042(15)
C16 0.044(2) 0.024(2) 0.0231(17) -0.0020(16) 0.0026(14) 0.0031(18)
C5 0.0265(18) 0.017(2) 0.0285(18) 0.0056(16) 0.0063(14) 0.0014(16)
C6 0.0279(18) 0.025(2) 0.0303(17) 0.0062(18) 0.0018(13) -0.0013(17)
C8 0.041(2) 0.024(2) 0.036(2) -0.0010(19) 0.0027(16) 0.0078(19)
C18 0.056(3) 0.031(3) 0.028(2) 0.0041(19) 0.0045(17) 0.002(2)
C9 0.039(2) 0.028(3) 0.0298(18) 0.0048(18) 0.0028(14) 0.0052(19)
C17 0.044(2) 0.034(3) 0.0247(18) -0.0032(17) 0.0016(16) 0.005(2)
C21 0.058(3) 0.030(3) 0.0297(19) 0.0000(19) 0.0039(17) 0.010(2)
C7 0.0290(19) 0.025(2) 0.0311(19) 0.0028(16) 0.0014(14) -0.0001(17)
C19 0.045(2) 0.053(3) 0.029(2) 0.005(2) 0.0052(17) -0.001(2)
C20 0.047(2) 0.051(3) 0.033(2) 0.006(2) 0.0071(16) 0.018(2)
C22 0.054(3) 0.075(4) 0.061(3) 0.023(3) 0.011(2) 0.003(3)
C23 0.062(3) 0.041(3) 0.048(3) 0.005(2) 0.023(2) -0.001(2)
loop_
_atom_type_symbol
_atom_type_description
_atom_type_scat_dispersion_real
_atom_type_scat_dispersion_imag
_atom_type_scat_source
C C 0.0181 0.0091 'International Tables Vol C Tables 4.2.6.8 and 6.1.1.4'
H H 0.0000 0.0000 'International Tables Vol C Tables 4.2.6.8 and 6.1.1.4'
N N 0.0311 0.0180 'International Tables Vol C Tables 4.2.6.8 and 6.1.1.4'
O O 0.0492 0.0322 'International Tables Vol C Tables 4.2.6.8 and 6.1.1.4'
S S 0.3331 0.5567 'International Tables Vol C Tables 4.2.6.8 and 6.1.1.4'
loop_
_geom_angle_atom_site_label_1
_geom_angle_atom_site_label_2
_geom_angle_atom_site_label_3
_geom_angle
H14A C14A H14B 109.5
H14A C14A H14C 109.5
H14B C14A H14C 109.5
N2A C14A H14A 109.5
N2A C14A H14B 109.5
N2A C14A H14C 109.5
C2A N2A C14A 121.6(5)
C2A N2A C1A 111.6(4)
C1A N2A C14A 124.5(5)
C3A C2A N2A 110.7(4)
C10A C2A N2A 128.9(5)
C10A C2A C3A 120.5(5)
C2A C3A C4A 106.5(4)
C13A C3A C2A 120.5(5)
C13A C3A C4A 132.7(5)
C1A C4A C3A 105.9(3)
C5 C4A C3A 109.5(5)
C5 C4A C1A 104.8(3)
C5 C4A C9 107.2(3)
C9 C4A C3A 114.1(5)
C9 C4A C1A 114.9(3)
N2A C1A C4A 103.7(3)
N2A C1A H1A 112.6
N2A C1A N1 111.0(5)
C4A C1A H1A 112.6
N1 C1A C4A 103.6(3)
N1 C1A H1A 112.6
C2A C10A H10A 120.3
C11A C10A C2A 119.3(6)
C11A C10A H10A 120.3
C10A C11A C15A 118.8(7)
C10A C11A C12A 120.1(5)
C12A C11A C15A 121.0(6)
C11A C15A H15A 109.5
C11A C15A H15B 109.5
C11A C15A H15C 109.5
H15A C15A H15B 109.5
H15A C15A H15C 109.5
H15B C15A H15C 109.5
C11A C12A H12A 119.8
C11A C12A C13A 120.4(5)
C13A C12A H12A 119.8
C3A C13A C12A 119.0(5)
C3A C13A H13A 120.5
C12A C13A H13A 120.5
H14D C14B H14E 109.5
H14D C14B H14F 109.5
H14E C14B H14F 109.5
N2B C14B H14D 109.5
N2B C14B H14E 109.5
N2B C14B H14F 109.5
C2B N2B C14B 123.0(6)
C2B N2B C1B 105.7(4)
C1B N2B C14B 123.8(6)
N2B C2B C3B 110.2(5)
C10B C2B N2B 126.0(6)
C10B C2B C3B 123.8(5)
C2B C3B C4B 109.7(4)
C13B C3B C2B 117.2(5)
C13B C3B C4B 132.8(5)
C1B C4B C3B 98.5(4)
C5 C4B C3B 112.6(6)
C5 C4B C1B 104.8(3)
C5 C4B C9 107.2(3)
C9 C4B C3B 118.0(6)
C9 C4B C1B 114.9(3)
N2B C1B C4B 109.8(4)
N2B C1B H1B 108.7
N2B C1B N1 117.1(5)
C4B C1B H1B 108.7
N1 C1B C4B 103.6(3)
N1 C1B H1B 108.7
C2B C10B H10B 121.1
C11B C10B C2B 117.8(6)
C11B C10B H10B 121.1
C10B C11B C15B 120.1(8)
C10B C11B C12B 119.9(6)
C12B C11B C15B 119.8(7)
C11B C15B H15D 109.5
C11B C15B H15E 109.5
C11B C15B H15F 109.5
H15D C15B H15E 109.5
H15D C15B H15F 109.5
H15E C15B H15F 109.5
C11B C12B H12B 119.3
C11B C12B C13B 121.4(6)
C13B C12B H12B 119.3
C3B C13B C12B 119.7(6)
C3B C13B H13B 120.2
C12B C13B H13B 120.2
C1A N1 S1 121.3(2)
C1B N1 S1 121.3(2)
C6 N1 C1A 107.3(3)
C6 N1 C1B 107.3(3)
C6 N1 S1 116.3(2)
O4 S2 O3 119.9(2)
O4 S2 N3 107.19(19)
O4 S2 C16 108.1(2)
O3 S2 N3 106.90(18)
O3 S2 C16 108.7(2)
N3 S2 C16 105.04(18)
N1 S1 C23 106.7(2)
O1 S1 N1 106.97(18)
O1 S1 C23 107.7(2)
O2 S1 N1 106.78(17)
O2 S1 O1 118.8(2)
O2 S1 C23 109.3(3)
C8 N3 S2 113.8(3)
C8 N3 C7 118.8(3)
C7 N3 S2 113.0(3)
C17 C16 S2 119.7(3)
C17 C16 C21 120.9(4)
C21 C16 S2 119.0(3)
C6 C5 C4A 111.0(3)
C6 C5 C4B 111.0(3)
C6 C5 C7 129.7(3)
C7 C5 C4A 119.3(3)
C7 C5 C4B 119.3(3)
N1 C6 H6 120(3)
C5 C6 N1 112.3(3)
C5 C6 H6 127(3)
N3 C8 C9 112.3(3)
N3 C8 H8A 112(3)
N3 C8 H8B 109(3)
C9 C8 H8A 107(3)
C9 C8 H8B 111(3)
H8A C8 H8B 105(4)
C17 C18 H18 123(3)
C19 C18 C17 121.7(4)
C19 C18 H18 115(3)
C4A C9 H9A 109(3)
C4A C9 H9B 111(3)
C4B C9 H9A 109(3)
C4B C9 H9B 111(3)
C8 C9 C4A 111.2(3)
C8 C9 C4B 111.2(3)
C8 C9 H9A 105(3)
C8 C9 H9B 106(3)
H9A C9 H9B 114(4)
C16 C17 C18 118.8(4)
C16 C17 H17 115(3)
C18 C17 H17 126(3)
C16 C21 H21 115(3)
C20 C21 C16 119.5(5)
C20 C21 H21 125(3)
N3 C7 C5 109.5(3)
N3 C7 H7A 104(3)
N3 C7 H7B 112(3)
C5 C7 H7A 112(3)
C5 C7 H7B 105(3)
H7A C7 H7B 114(4)
C18 C19 C20 118.3(4)
C18 C19 C22 121.5(5)
C20 C19 C22 120.2(5)
C21 C20 C19 120.7(4)
C21 C20 H20 124(3)
C19 C20 H20 114(3)
C19 C22 H22A 109.5
C19 C22 H22B 109.5
C19 C22 H22C 109.5
H22A C22 H22B 109.5
H22A C22 H22C 109.5
H22B C22 H22C 109.5
S1 C23 H23A 101(4)
S1 C23 H23B 111(4)
S1 C23 H23C 114(4)
H23A C23 H23B 106(5)
H23A C23 H23C 120(5)
H23B C23 H23C 104(5)
loop_
_geom_bond_atom_site_label_1
_geom_bond_atom_site_label_2
_geom_bond_distance
C14A H14A 0.9600
C14A H14B 0.9600
C14A H14C 0.9600
C14A N2A 1.440(7)
N2A C2A 1.405(6)
N2A C1A 1.434(5)
C2A C3A 1.392(7)
C2A C10A 1.392(7)
C3A C4A 1.532(5)
C3A C13A 1.388(6)
C4A C1A 1.529(3)
C4A C5 1.504(5)
C4A C9 1.529(6)
C1A H1A 0.9800
C1A N1 1.526(5)
C10A H10A 0.9300
C10A C11A 1.392(8)
C11A C15A 1.513(9)
C11A C12A 1.393(9)
C15A H15A 0.9600
C15A H15B 0.9600
C15A H15C 0.9600
C12A H12A 0.9300
C12A C13A 1.400(8)
C13A H13A 0.9300
C14B H14D 0.9600
C14B H14E 0.9600
C14B H14F 0.9600
C14B N2B 1.438(7)
N2B C2B 1.394(7)
N2B C1B 1.428(6)
C2B C3B 1.402(7)
C2B C10B 1.385(8)
C3B C4B 1.538(5)
C3B C13B 1.390(7)
C4B C1B 1.529(3)
C4B C5 1.504(5)
C4B C9 1.529(6)
C1B H1B 0.9800
C1B N1 1.526(5)
C10B H10B 0.9300
C10B C11B 1.387(9)
C11B C15B 1.510(9)
C11B C12B 1.392(10)
C15B H15D 0.9600
C15B H15E 0.9600
C15B H15F 0.9600
C12B H12B 0.9300
C12B C13B 1.401(8)
C13B H13B 0.9300
N1 S1 1.651(3)
N1 C6 1.433(5)
S2 O4 1.421(4)
S2 O3 1.425(3)
S2 N3 1.650(3)
S2 C16 1.773(4)
S1 O1 1.431(3)
S1 O2 1.422(3)
S1 C23 1.758(6)
N3 C8 1.478(5)
N3 C7 1.490(6)
C16 C17 1.369(6)
C16 C21 1.399(6)
C5 C6 1.317(6)
C5 C7 1.490(5)
C6 H6 0.91(2)
C8 C9 1.517(6)
C8 H8A 0.97(2)
C8 H8B 0.97(2)
C18 C17 1.397(7)
C18 C19 1.382(7)
C18 H18 0.91(2)
C9 H9A 0.97(2)
C9 H9B 0.97(2)
C17 H17 0.91(2)
C21 C20 1.378(7)
C21 H21 0.91(2)
C7 H7A 0.97(2)
C7 H7B 0.97(2)
C19 C20 1.402(8)
C19 C22 1.509(7)
C20 H20 0.91(2)
C22 H22A 0.9901
C22 H22B 0.9901
C22 H22C 0.9901
C23 H23A 0.97(2)
C23 H23B 0.97(2)
C23 H23C 0.96(2)
loop_
_geom_torsion_atom_site_label_1
_geom_torsion_atom_site_label_2
_geom_torsion_atom_site_label_3
_geom_torsion_atom_site_label_4
_geom_torsion
C14A N2A C2A C3A 176.2(10)
C14A N2A C2A C10A -2.4(16)
C14A N2A C1A C4A -176.3(8)
C14A N2A C1A N1 -65.6(9)
N2A C2A C3A C4A -5.8(13)
N2A C2A C3A C13A -179.4(10)
N2A C2A C10A C11A 176.0(9)
N2A C1A N1 S1 102.6(4)
N2A C1A N1 C6 -120.4(4)
C2A N2A C1A C4A -13.2(8)
C2A N2A C1A N1 97.4(7)
C2A C3A C4A C1A -2.4(11)
C2A C3A C4A C5 -114.9(9)
C2A C3A C4A C9 125.0(8)
C2A C3A C13A C12A 1.0(18)
C2A C10A C11A C15A -172.8(9)
C2A C10A C11A C12A 5.3(13)
C3A C2A C10A C11A -2.5(16)
C3A C4A C1A N2A 9.2(7)
C3A C4A C1A N1 -106.9(6)
C3A C4A C5 C6 107.8(5)
C3A C4A C5 C7 -69.5(5)
C3A C4A C9 C8 65.4(5)
C4A C3A C13A C12A -170.7(11)
C4A C1A N1 S1 -146.7(3)
C4A C1A N1 C6 -9.7(4)
C4A C5 C6 N1 -1.0(5)
C4A C5 C7 N3 -45.4(5)
C1A N2A C2A C3A 12.6(13)
C1A N2A C2A C10A -166.1(10)
C1A C4A C5 C6 -5.4(4)
C1A C4A C5 C7 177.2(4)
C1A C4A C9 C8 -172.1(3)
C1A N1 S1 O1 -164.1(3)
C1A N1 S1 O2 -35.9(4)
C1A N1 S1 C23 80.9(4)
C1A N1 C6 C5 7.0(5)
C10A C2A C3A C4A 173.0(9)
C10A C2A C3A C13A -0.6(19)
C10A C11A C12A C13A -5.1(12)
C11A C12A C13A C3A 1.9(14)
C15A C11A C12A C13A 173.0(8)
C13A C3A C4A C1A 170.2(13)
C13A C3A C4A C5 57.6(15)
C13A C3A C4A C9 -62.4(15)
C14B N2B C2B C3B 173.0(12)
C14B N2B C2B C10B -5.9(19)
C14B N2B C1B C4B -176.2(9)
C14B N2B C1B N1 -58.5(11)
N2B C2B C3B C4B -10.6(17)
N2B C2B C3B C13B 174.6(12)
N2B C2B C10B C11B -177.7(11)
N2B C1B N1 S1 92.3(4)
N2B C1B N1 C6 -130.6(4)
C2B N2B C1B C4B -25.8(10)
C2B N2B C1B N1 91.8(8)
C2B C3B C4B C1B -4.8(13)
C2B C3B C4B C5 -114.9(11)
C2B C3B C4B C9 119.4(11)
C2B C3B C13B C12B 5(2)
C2B C10B C11B C15B -173.9(10)
C2B C10B C11B C12B 0.9(15)
C3B C2B C10B C11B 4(2)
C3B C4B C1B N2B 18.4(9)
C3B C4B C1B N1 -107.3(7)
C3B C4B C5 C6 100.7(5)
C3B C4B C5 C7 -76.7(6)
C3B C4B C9 C8 72.3(6)
C4B C3B C13B C12B -168.3(13)
C4B C1B N1 S1 -146.7(3)
C4B C1B N1 C6 -9.7(4)
C4B C5 C6 N1 -1.0(5)
C4B C5 C7 N3 -45.4(5)
C1B N2B C2B C3B 22.4(14)
C1B N2B C2B C10B -156.5(11)
C1B C4B C5 C6 -5.4(4)
C1B C4B C5 C7 177.2(4)
C1B C4B C9 C8 -172.1(3)
C1B N1 S1 O1 -164.1(3)
C1B N1 S1 O2 -35.9(4)
C1B N1 S1 C23 80.9(4)
C1B N1 C6 C5 7.0(5)
C10B C2B C3B C4B 168.4(11)
C10B C2B C3B C13B -6(2)
C10B C11B C12B C13B -2.0(15)
C11B C12B C13B C3B -1.1(18)
C15B C11B C12B C13B 172.7(10)
C13B C3B C4B C1B 168.9(16)
C13B C3B C4B C5 58.9(18)
C13B C3B C4B C9 -66.9(19)
S2 N3 C8 C9 176.8(3)
S2 N3 C7 C5 177.0(2)
S2 C16 C17 C18 -172.9(3)
S2 C16 C21 C20 172.4(3)
S1 N1 C6 C5 146.5(3)
O4 S2 N3 C8 -48.7(4)
O4 S2 N3 C7 172.0(3)
O4 S2 C16 C17 -156.8(3)
O4 S2 C16 C21 29.9(4)
O3 S2 N3 C8 -178.4(3)
O3 S2 N3 C7 42.3(3)
O3 S2 C16 C17 -25.2(4)
O3 S2 C16 C21 161.6(3)
N3 S2 C16 C17 89.0(3)
N3 S2 C16 C21 -84.3(3)
N3 C8 C9 C4A 53.9(5)
N3 C8 C9 C4B 53.9(5)
C16 S2 N3 C8 66.2(3)
C16 S2 N3 C7 -73.1(3)
C16 C21 C20 C19 -0.4(7)
C5 C4A C1A N2A 124.9(5)
C5 C4A C1A N1 8.9(4)
C5 C4A C9 C8 -56.0(4)
C5 C4B C1B N2B 134.7(5)
C5 C4B C1B N1 8.9(4)
C5 C4B C9 C8 -56.0(4)
C6 N1 S1 O1 62.5(3)
C6 N1 S1 O2 -169.4(3)
C6 N1 S1 C23 -52.6(4)
C6 C5 C7 N3 137.8(4)
C8 N3 C7 C5 39.9(4)
C18 C19 C20 C21 2.0(7)
C9 C4A C1A N2A -117.7(5)
C9 C4A C1A N1 126.3(3)
C9 C4A C5 C6 -127.9(3)
C9 C4A C5 C7 54.7(4)
C9 C4B C1B N2B -107.9(6)
C9 C4B C1B N1 126.3(3)
C9 C4B C5 C6 -127.9(3)
C9 C4B C5 C7 54.7(4)
C17 C16 C21 C20 -0.7(6)
C17 C18 C19 C20 -2.5(7)
C17 C18 C19 C22 178.3(5)
C21 C16 C17 C18 0.3(6)
C7 N3 C8 C9 -46.5(5)
C7 C5 C6 N1 176.1(4)
C19 C18 C17 C16 1.4(6)
C22 C19 C20 C21 -178.8(5)
