#------------------------------------------------------------------------------
#$Date: 2017-06-02 03:47:44 +0300 (Fri, 02 Jun 2017) $
#$Revision: 197135 $
#$URL: file:///home/coder/svn-repositories/cod/cif/1/54/61/1546181.cif $
#------------------------------------------------------------------------------
#
# This file is available in the Crystallography Open Database (COD),
# http://www.crystallography.net/
#
# All data on this site have been placed in the public domain by the
# contributors.
#
data_1546181
loop_
_publ_author_name
'Kirk, Martin L.'
'Shultz, David A.'
'Zhang, Jinyuan'
'Dangi, Ranjana'
'Ingersol, Laura'
'Yang, Jing'
'Finney, Nathaniel S.'
'Sommer, Roger D.'
'Wojtas, Lukasz'
_publ_section_title
;
 Heterospin biradicals provide insight into molecular conductance and
 rectification
;
_journal_name_full               'Chem. Sci.'
_journal_paper_doi               10.1039/C7SC00073A
_journal_year                    2017
_chemical_formula_sum            'C65 H74 B N9 O4.28 S Zn'
_chemical_formula_weight         1158.01
_space_group_crystal_system      monoclinic
_space_group_IT_number           14
_space_group_name_Hall           '-P 2ybc'
_space_group_name_H-M_alt        'P 1 21/c 1'
_symmetry_space_group_name_Hall  '-P 2ybc'
_symmetry_space_group_name_H-M   'P 1 21/c 1'
_atom_sites_solution_hydrogens   geom
_audit_creation_method           SHELXL-2016/6
_audit_update_record
;
2017-01-06 deposited with the CCDC.
2017-05-16 downloaded from the CCDC.
;
_cell_angle_alpha                90
_cell_angle_beta                 91.6616(12)
_cell_angle_gamma                90
_cell_formula_units_Z            8
_cell_length_a                   13.6329(4)
_cell_length_b                   14.5215(4)
_cell_length_c                   63.8849(18)
_cell_measurement_reflns_used    9878
_cell_measurement_temperature    100(2)
_cell_measurement_theta_max      66.9
_cell_measurement_theta_min      3.34
_cell_volume                     12642.0(6)
_computing_structure_refinement  'SHELXL-2016/6 (Sheldrick, 2016)'
_diffrn_ambient_temperature      100(2)
_diffrn_measured_fraction_theta_full 0.990
_diffrn_measured_fraction_theta_max 0.971
_diffrn_measurement_device_type  'Bruker D8 Venture PHOTON 100 CMOS'
_diffrn_measurement_method       'omega scans'
_diffrn_radiation_monochromator  mirrors
_diffrn_radiation_type           CuK\a
_diffrn_radiation_wavelength     1.54178
_diffrn_reflns_av_R_equivalents  0.0511
_diffrn_reflns_av_unetI/netI     0.0456
_diffrn_reflns_Laue_measured_fraction_full 0.990
_diffrn_reflns_Laue_measured_fraction_max 0.971
_diffrn_reflns_limit_h_max       15
_diffrn_reflns_limit_h_min       -16
_diffrn_reflns_limit_k_max       17
_diffrn_reflns_limit_k_min       -17
_diffrn_reflns_limit_l_max       75
_diffrn_reflns_limit_l_min       -76
_diffrn_reflns_number            103469
_diffrn_reflns_point_group_measured_fraction_full 0.990
_diffrn_reflns_point_group_measured_fraction_max 0.971
_diffrn_reflns_theta_full        66.500
_diffrn_reflns_theta_max         67.145
_diffrn_reflns_theta_min         2.768
_diffrn_source                   'INCOATEC Imus micro-focus source'
_exptl_absorpt_coefficient_mu    1.269
_exptl_absorpt_correction_T_max  1.0000
_exptl_absorpt_correction_T_min  0.8892
_exptl_absorpt_correction_type   multi-scan
_exptl_absorpt_process_details
;
 SADABS 2016/2: Krause, L., Herbst-Irmer, R., Sheldrick G.M. & Stalke D.,
 J. Appl. Cryst. 48 (2015) 3-10
;
_exptl_crystal_colour            brown
_exptl_crystal_density_diffrn    1.217
_exptl_crystal_density_method    'not measured'
_exptl_crystal_description       rod
_exptl_crystal_F_000             4898
_exptl_crystal_preparation       ', Magnetic properties'
_exptl_crystal_size_max          0.130
_exptl_crystal_size_mid          0.090
_exptl_crystal_size_min          0.040
_refine_diff_density_max         0.972
_refine_diff_density_min         -0.498
_refine_diff_density_rms         0.091
_refine_ls_extinction_method     none
_refine_ls_goodness_of_fit_ref   1.131
_refine_ls_hydrogen_treatment    constr
_refine_ls_matrix_type           full
_refine_ls_number_parameters     1635
_refine_ls_number_reflns         21677
_refine_ls_number_restraints     595
_refine_ls_restrained_S_all      1.125
_refine_ls_R_factor_all          0.1018
_refine_ls_R_factor_gt           0.0901
_refine_ls_shift/su_max          0.002
_refine_ls_shift/su_mean         0.000
_refine_ls_structure_factor_coef Fsqd
_refine_ls_weighting_details
'w=1/[\s^2^(Fo^2^)+(0.0455P)^2^+49.0908P] where P=(Fo^2^+2Fc^2^)/3'
_refine_ls_weighting_scheme      calc
_refine_ls_wR_factor_gt          0.2021
_refine_ls_wR_factor_ref         0.2082
_reflns_Friedel_coverage         0.000
_reflns_number_gt                18609
_reflns_number_total             21677
_reflns_threshold_expression     'I > 2\s(I)'
_cod_data_source_file            c7sc00073a2.cif
_cod_data_source_block           SQ_PT_NN_4th_0m
_cod_database_code               1546181
_shelx_shelxl_version_number     2016/6
_shelx_space_group_comment
;
The symmetry employed for this shelxl refinement is uniquely defined
by the following loop, which should always be used as a source of
symmetry information in preference to the above space-group names.
They are only intended as comments.
;
_shelx_estimated_absorpt_t_min   0.852
_shelx_estimated_absorpt_t_max   0.951
_shelx_res_file
;

TITL sq_pt_nn_th_0m.res in P2(1)/c
    SQ_PT_NN_4th_0m.res
    created by SHELXL-2016/6 at 10:10:22 on 21-Dec-2016
REM Old TITL SQ_PT_NN_0m in P21/c #14
CELL 1.54178 13.6329 14.5215 63.8849 90 91.6616 90
ZERR 8 0.0004 0.0004 0.0018 0 0.0012 0
LATT 1
SYMM -X,0.5+Y,0.5-Z
SFAC C H B N O S Zn
UNIT 520 592 8 72 34.22 8 8
DFIX 1.533 C137 C140
DFIX 1.53 0.01 C117 C114 C120 C114
DFIX 1.53 C120 C122 C118 C117 C120 C121 C119 C117
DFIX 1.53 C159 C158 C161 C160
DFIX 1.53 C162 C158 C162 C160
DFIX 1.53 0.01 C158 C155 C160 C155
DFIX 1.53 C142 C140 C145 C140
DFIX 1.53 0.01 C145 C143 C141 C140 C142 C140 C144 C143
DFIX 1.39 0.01 C129 C134 C139 C129 C139 C138 C134 C133 C137 C138 C132 C133 =
 C132 C131 C137 C136 C130 C131 C135 C136 C135 C129 C130 C129
DANG 2.52 C137 C142 C119 C114
DANG 2.52 0.02 C121 C114
DANG 2.52 C142 C132
DANG 2.52 C144 C137
DANG 2.4 0.02 C162 C159
DANG 2.4 C162 C161
DANG 2.49 C142 C141
DANG 2.52 C141 C132
DANG 2.49 C142 C145
DANG 2.52 C137 C145
DANG 2.49 C145 C144
DANG 2.52 C145 C137
DANG 2.79 0.02 C130 C133 C134 C131  C138 C136 C129 C132
DANG 2.79 C129 C137
FLAT 0.01 C129 C130 C131 C132 C133 C134
FLAT 0.01 C135 C129 C139 C137 C136 C138
DELU C160 C161
SIMU 0.02 0.04 1.7 C119 C121 C120 C117 C122 C118
RIGU C119 C121 C120 C117 C122 C118
SIMU C155 C160 C158 C162 C161 C159
RIGU C155 C160 C158 C159 C161 C162
SIMU C129 C130 C135 C136 C131 C137 C132 C138 C133 C139 C134 C143 C140 C145 =
 C141 C142 C144
RIGU C129 C130 C135 C136 C131 C137 C132 C138 C133 C139 C134 C143 C140 C145 =
 C141 C142 C144
ISOR 0.0125 C144 C145

L.S. 20
PLAN  40
SIZE 0.13 0.09 0.04
TEMP -173.16
MPLA C13 C12 C11 C10 C9 C8
MPLA C14 N19 C18 C17 C16 C15
MPLA C20 C24 C23 C22 S21
MPLA C25 N29 C28 C27 N26
MPLA C80 C81 C82 C83 C78 C79
MPLA C84 C85 C86 C87 C88 N89
MPLA C90 S91 C92 C93 C94
MPLA C95 N96 C97 C98 N99
BOND $H
LIST 4
CONF
fmap 2
acta 133
TWIN -1 0 0 0 -1 0 0.273 0 1 2
REM <olex2.extras>
REM <HklSrc "%.\\SQ_PT_NN_4th_0m.hkl">
REM </olex2.extras>

WGHT    0.045500   49.090801
BASF   0.03267
FVAR       0.09546   0.68709
ZN1   7    0.875065    0.862775    0.551023    11.00000    0.02825    0.03819 =
         0.04876    0.00084   -0.00095   -0.00223
O2    5    0.761651    0.783164    0.547463    11.00000    0.03299    0.04001 =
         0.05631   -0.00841    0.00160    0.00001
O3    5    0.772469    0.930774    0.571683    11.00000    0.02820    0.03541 =
         0.05641    0.00350   -0.00244   -0.00447
C4    1    0.615368    0.996548    0.598462    11.00000    0.03129    0.03465 =
         0.05939   -0.00215    0.00652   -0.00355
C5    1    0.520029    1.009399    0.610383    11.00000    0.04356    0.04786 =
         0.08084   -0.01254    0.01462   -0.00451
AFIX 137
H5A   2    0.464727    1.015963    0.600349    11.00000   -1.50000
H5B   2    0.525210    1.064808    0.619102    11.00000   -1.50000
H5C   2    0.509352    0.955621    0.619300    11.00000   -1.50000
AFIX   0
C6    1    0.700895    0.986412    0.614476    11.00000    0.04742    0.04424 =
         0.05506   -0.00789   -0.00548    0.00397
AFIX 137
H6A   2    0.692265    0.929947    0.622620    11.00000   -1.50000
H6B   2    0.702123    1.039628    0.623913    11.00000   -1.50000
H6C   2    0.762873    0.983191    0.607113    11.00000   -1.50000
AFIX   0
C7    1    0.629569    1.081698    0.584888    11.00000    0.04045    0.03992 =
         0.08017    0.00359   -0.00272   -0.00083
AFIX 137
H7A   2    0.690799    1.075827    0.577333    11.00000   -1.50000
H7B   2    0.632719    1.136608    0.593801    11.00000   -1.50000
H7C   2    0.574311    1.087350    0.574813    11.00000   -1.50000
AFIX   0
C8    1    0.528710    0.856885    0.582694    11.00000    0.02995    0.03978 =
         0.05242   -0.00215    0.00052    0.00121
AFIX  43
H8    2    0.472864    0.873802    0.590376    11.00000   -1.20000
AFIX   0
C9    1    0.609738    0.911098    0.584395    11.00000    0.02822    0.03045 =
         0.04962    0.00042   -0.00259    0.00546
C10   1    0.693866    0.886096    0.571866    11.00000    0.03150    0.02992 =
         0.04559    0.00378   -0.00073   -0.00110
C11   1    0.686664    0.803338    0.558539    11.00000    0.02727    0.03911 =
         0.04879   -0.00072   -0.00101   -0.00008
C12   1    0.599865    0.751154    0.558031    11.00000    0.03158    0.03534 =
         0.05183   -0.00345   -0.00115   -0.00325
AFIX  43
H12   2    0.594776    0.698311    0.549301    11.00000   -1.20000
AFIX   0
C13   1    0.522577    0.775897    0.570025    11.00000    0.02861    0.03351 =
         0.05094    0.00500   -0.00280   -0.00231
C14   1    0.431825    0.721361    0.570201    11.00000    0.02545    0.04042 =
         0.05331    0.00247   -0.00013    0.00338
C15   1    0.427083    0.631176    0.563339    11.00000    0.02914    0.04110 =
         0.07010   -0.00771    0.00311    0.00256
AFIX  43
H15   2    0.483935    0.602226    0.558144    11.00000   -1.20000
AFIX   0
C16   1    0.340160    0.583225    0.564016    11.00000    0.03540    0.03984 =
         0.06828   -0.01074    0.00424   -0.00187
AFIX  43
H16   2    0.336917    0.521154    0.559351    11.00000   -1.20000
AFIX   0
C17   1    0.257068    0.626102    0.571566    11.00000    0.02692    0.03640 =
         0.05083    0.00071   -0.00302   -0.00093
C18   1    0.268245    0.716863    0.578376    11.00000    0.02957    0.03861 =
         0.07418   -0.00458   -0.00143    0.00038
AFIX  43
H18   2    0.212344    0.747067    0.583670    11.00000   -1.20000
AFIX   0
N19   4    0.351958    0.764095    0.577963    11.00000    0.03166    0.03492 =
         0.07093   -0.00504    0.00131    0.00527
C20   1    0.164091    0.578436    0.573605    11.00000    0.03095    0.03348 =
         0.04983    0.00013   -0.00305   -0.00302
S21   6    0.160198    0.461172    0.572038    11.00000    0.03138    0.03257 =
         0.05704   -0.00082    0.00245   -0.00382
C22   1    0.037356    0.461635    0.577373    11.00000    0.02966    0.04213 =
         0.05203    0.00184   -0.00045   -0.00264
C23   1    0.001794    0.549504    0.579866    11.00000    0.03022    0.03647 =
         0.06350    0.00373    0.00110    0.00114
AFIX  43
H23   2   -0.064479    0.562935    0.582915    11.00000   -1.20000
AFIX   0
C24   1    0.072151    0.615303    0.577478    11.00000    0.03882    0.03088 =
         0.05750    0.00226    0.00338    0.00267
AFIX  43
H24   2    0.059647    0.679522    0.578368    11.00000   -1.20000
AFIX   0
C25   1   -0.012891    0.377183    0.580899    11.00000    0.02783    0.03496 =
         0.05512    0.00109    0.00400   -0.00181
N26   4    0.026748    0.292612    0.578292    11.00000    0.03509    0.03849 =
         0.05705   -0.00174    0.00507   -0.00249
C27   1   -0.032793    0.219474    0.588823    11.00000    0.04396    0.03797 =
         0.05023   -0.00184   -0.00127   -0.00995
C28   1   -0.134186    0.268936    0.588373    11.00000    0.04313    0.04426 =
         0.05744    0.00136   -0.00014   -0.01201
N29   4   -0.103625    0.368149    0.588402    11.00000    0.03655    0.03548 =
         0.06568    0.00008    0.00615   -0.00374
O30   5   -0.163158    0.433013    0.592642    11.00000    0.03588    0.04248 =
         0.09797    0.00302    0.01755    0.00318
O31   5    0.112052    0.277074    0.571478    11.00000    0.04045    0.04005 =
         0.07681   -0.00439    0.01320    0.00372
C32   1    0.012819    0.207613    0.610428    11.00000    0.05326    0.05090 =
         0.05910    0.00254   -0.00351   -0.00363
AFIX 137
H32A  2    0.081426    0.188590    0.609285    11.00000   -1.50000
H32B  2   -0.023249    0.160413    0.618016    11.00000   -1.50000
H32C  2    0.009938    0.266122    0.618030    11.00000   -1.50000
AFIX   0
C33   1   -0.029932    0.131369    0.576300    11.00000    0.06569    0.04025 =
         0.06238    0.00388    0.00229   -0.01226
AFIX 137
H33A  2   -0.052028    0.143657    0.561835    11.00000   -1.50000
H33B  2   -0.073260    0.085699    0.582523    11.00000   -1.50000
H33C  2    0.037349    0.107572    0.576416    11.00000   -1.50000
AFIX   0
C34   1   -0.194549    0.250466    0.607408    11.00000    0.04989    0.04489 =
         0.06648    0.00110    0.00353   -0.01067
AFIX 137
H34A  2   -0.159406    0.273338    0.619959    11.00000   -1.50000
H34B  2   -0.205491    0.184060    0.608762    11.00000   -1.50000
H34C  2   -0.257875    0.282030    0.605842    11.00000   -1.50000
AFIX   0
C35   1   -0.194287    0.255021    0.567971    11.00000    0.04889    0.05486 =
         0.06376    0.00973   -0.00374   -0.01441
AFIX 137
H35A  2   -0.253124    0.293759    0.568125    11.00000   -1.50000
H35B  2   -0.213652    0.190227    0.566696    11.00000   -1.50000
H35C  2   -0.154512    0.272181    0.556046    11.00000   -1.50000
AFIX   0
N36   4    0.982639    0.787840    0.532121    11.00000    0.03630    0.03733 =
         0.04543   -0.00144   -0.00223   -0.00200
N37   4    1.072156    0.832204    0.533483    11.00000    0.02618    0.03713 =
         0.04897    0.00095    0.00114    0.00155
C38   1    1.143870    0.774665    0.527565    11.00000    0.03422    0.05363 =
         0.04017    0.00297   -0.00288    0.00828
C39   1    1.101780    0.692476    0.521828    11.00000    0.03786    0.04471 =
         0.04335   -0.00259   -0.00079    0.01090
AFIX  43
H39   2    1.133992    0.639220    0.516795    11.00000   -1.20000
AFIX   0
C40   1    1.000208    0.703663    0.524982    11.00000    0.04245    0.03533 =
         0.03723    0.00350   -0.00108    0.00551
C41   1    0.922343    0.634772    0.521568    11.00000    0.04703    0.03581 =
         0.03784   -0.00150   -0.00177    0.00776
C42   1    0.828080    0.659289    0.514649    11.00000    0.05037    0.03151 =
         0.04517    0.00087   -0.00409    0.00199
AFIX  43
H42   2    0.813494    0.721876    0.511550    11.00000   -1.20000
AFIX   0
C43   1    0.755883    0.593485    0.512267    11.00000    0.04198    0.03743 =
         0.05204    0.00292   -0.00207    0.00374
AFIX  43
H43   2    0.692350    0.612025    0.507433    11.00000   -1.20000
AFIX   0
C44   1    0.772431    0.501229    0.516656    11.00000    0.05053    0.04007 =
         0.04542   -0.00088    0.00170   -0.00153
C45   1    0.867734    0.476712    0.523074    11.00000    0.06652    0.02927 =
         0.05133    0.00297    0.00100    0.00974
AFIX  43
H45   2    0.882461    0.413899    0.525886    11.00000   -1.20000
AFIX   0
C46   1    0.941282    0.542208    0.525422    11.00000    0.04761    0.04212 =
         0.04864    0.00120   -0.00209    0.00424
AFIX  43
H46   2    1.005527    0.523510    0.529727    11.00000   -1.20000
AFIX   0
C47   1    0.691502    0.430970    0.515310    11.00000    0.06198    0.03658 =
         0.08102   -0.00257    0.01082   -0.00345
AFIX  13
H47   2    0.721910    0.368779    0.517263    11.00000   -1.20000
AFIX   0
C48   1    0.620095    0.445790    0.533052    11.00000    0.09455    0.05572 =
         0.12902   -0.00645    0.04640   -0.02397
AFIX 137
H48A  2    0.655693    0.441257    0.546561    11.00000   -1.50000
H48B  2    0.568674    0.398655    0.532268    11.00000   -1.50000
H48C  2    0.590197    0.506947    0.531686    11.00000   -1.50000
AFIX   0
C49   1    0.636612    0.431253    0.494318    11.00000    0.05342    0.05014 =
         0.11272   -0.02150   -0.00499   -0.00151
AFIX 137
H49A  2    0.603145    0.490465    0.492322    11.00000   -1.50000
H49B  2    0.588094    0.381439    0.493972    11.00000   -1.50000
H49C  2    0.683128    0.422037    0.483096    11.00000   -1.50000
AFIX   0
C50   1    1.249739    0.803918    0.527158    11.00000    0.03532    0.05850 =
         0.05381    0.00062    0.00365    0.00586
AFIX 137
H50A  2    1.256706    0.854349    0.517116    11.00000   -1.50000
H50B  2    1.290168    0.751658    0.522954    11.00000   -1.50000
H50C  2    1.271259    0.824788    0.541138    11.00000   -1.50000
AFIX   0
N51   4    0.907293    0.979979    0.535391    11.00000    0.02955    0.03757 =
         0.04783    0.00196    0.00011   -0.00052
N52   4    1.006715    0.994947    0.534013    11.00000    0.02814    0.04259 =
         0.04471    0.00257    0.00273   -0.00147
C53   1    1.020892    1.075205    0.523741    11.00000    0.03851    0.04975 =
         0.04093    0.00238    0.00384   -0.00037
C54   1    0.930432    1.113254    0.518764    11.00000    0.03578    0.03844 =
         0.04987    0.00538    0.00396    0.00283
AFIX  43
H54   2    0.917696    1.169693    0.511673    11.00000   -1.20000
AFIX   0
C55   1    0.861374    1.051206    0.526359    11.00000    0.03775    0.04233 =
         0.04004   -0.00058   -0.00073    0.00097
C56   1    0.752793    1.061778    0.525570    11.00000    0.03589    0.04287 =
         0.04313    0.00364   -0.00238   -0.00429
C57   1    0.688550    0.987885    0.525407    11.00000    0.03968    0.04606 =
         0.05413    0.00145   -0.00532    0.00297
AFIX  43
H57   2    0.713283    0.926723    0.525427    11.00000   -1.20000
AFIX   0
C58   1    0.588019    1.003193    0.525215    11.00000    0.03107    0.05461 =
         0.06905    0.00706   -0.00876   -0.01023
AFIX  43
H58   2    0.545457    0.951416    0.525390    11.00000   -1.20000
AFIX   0
C59   1    0.547315    1.089360    0.524786    11.00000    0.03145    0.06108 =
         0.05737    0.01069   -0.00416    0.00006
C60   1    0.611454    1.163371    0.524624    11.00000    0.04005    0.04835 =
         0.06143    0.00618    0.00123    0.00707
AFIX  43
H60   2    0.586093    1.224304    0.524296    11.00000   -1.20000
AFIX   0
C61   1    0.712464    1.149653    0.524935    11.00000    0.03308    0.04584 =
         0.05605    0.00690   -0.00012    0.00240
AFIX  43
H61   2    0.754851    1.201547    0.524708    11.00000   -1.20000
AFIX   0
C62   1    0.435955    1.103695    0.525066    11.00000    0.03070    0.07568 =
         0.07879    0.01821   -0.00687    0.00318
AFIX  13
H62   2    0.405324    1.050589    0.517353    11.00000   -1.20000
AFIX   0
C63   1    0.400334    1.099389    0.547257    11.00000    0.03743    0.21399 =
         0.08458    0.03560    0.00038    0.02105
AFIX 137
H63A  2    0.328661    1.104784    0.547088    11.00000   -1.50000
H63B  2    0.429392    1.150079    0.555446    11.00000   -1.50000
H63C  2    0.419878    1.040515    0.553611    11.00000   -1.50000
AFIX   0
C64   1    0.401549    1.190625    0.513830    11.00000    0.03954    0.06544 =
         0.12603    0.01200   -0.01647    0.00733
AFIX 137
H64A  2    0.423108    1.244707    0.521904    11.00000   -1.50000
H64B  2    0.329767    1.190400    0.512455    11.00000   -1.50000
H64C  2    0.429585    1.192830    0.499886    11.00000   -1.50000
AFIX   0
C65   1    1.120633    1.113151    0.519868    11.00000    0.03707    0.04830 =
         0.06018    0.01087    0.00710   -0.00485
AFIX 137
H65A  2    1.149657    1.136693    0.533023    11.00000   -1.50000
H65B  2    1.115229    1.163310    0.509637    11.00000   -1.50000
H65C  2    1.162418    1.064334    0.514405    11.00000   -1.50000
AFIX   0
B66   3    1.082733    0.927161    0.543945    11.00000    0.02557    0.03873 =
         0.05136   -0.00172   -0.00021   -0.00001
AFIX  13
H66   2    1.150551    0.951300    0.541989    11.00000   -1.20000
AFIX   0
N165  4    0.982660    0.868386    0.573560    11.00000    0.02594    0.03321 =
         0.05135   -0.00094    0.00672    0.00077
N166  4    1.065134    0.913968    0.567559    11.00000    0.02460    0.03536 =
         0.04886    0.00169   -0.00217   -0.00438
C167  1    1.122398    0.931560    0.584656    11.00000    0.03025    0.03893 =
         0.04479   -0.00472   -0.00035    0.00653
C168  1    1.077357    0.896688    0.601958    11.00000    0.03528    0.02964 =
         0.04294   -0.00311   -0.00287   -0.00193
AFIX  43
H168  2    1.100621    0.898910    0.616111    11.00000   -1.20000
AFIX   0
C169  1    0.989312    0.856979    0.594167    11.00000    0.02848    0.02961 =
         0.04710   -0.00174   -0.00079    0.00377
C170  1    0.913117    0.808069    0.605789    11.00000    0.02800    0.02900 =
         0.04931    0.00393    0.00053    0.00117
C171  1    0.900270    0.824044    0.626768    11.00000    0.03390    0.04112 =
         0.05033    0.00141    0.00185   -0.00181
AFIX  43
H171  2    0.941943    0.866712    0.633957    11.00000   -1.20000
AFIX   0
C172  1    0.827374    0.778916    0.637689    11.00000    0.03708    0.04459 =
         0.04522    0.00177    0.00297    0.00325
AFIX  43
H172  2    0.820384    0.791208    0.652175    11.00000   -1.20000
AFIX   0
C173  1    0.764368    0.715817    0.627646    11.00000    0.02987    0.02561 =
         0.06392    0.00829    0.00022    0.00424
C174  1    0.781142    0.697525    0.606797    11.00000    0.03229    0.03136 =
         0.05427    0.00344   -0.00441   -0.00318
AFIX  43
H174  2    0.740843    0.653381    0.599725    11.00000   -1.20000
AFIX   0
C175  1    0.854056    0.740712    0.595787    11.00000    0.03480    0.03404 =
         0.05026    0.00219   -0.00430    0.00307
AFIX  43
H175  2    0.864186    0.725013    0.581576    11.00000   -1.20000
AFIX   0
C176  1    0.682011    0.667059    0.638467    11.00000    0.03839    0.04201 =
         0.06506    0.01158    0.00156    0.00027
AFIX  13
H176  2    0.690090    0.599462    0.636075    11.00000   -1.20000
AFIX   0
C177  1    0.681042    0.682862    0.661978    11.00000    0.04876    0.06831 =
         0.07183    0.01559    0.01360   -0.01227
AFIX 137
H17A  2    0.745472    0.667356    0.668209    11.00000   -1.50000
H17B  2    0.630794    0.643757    0.668103    11.00000   -1.50000
H17C  2    0.666235    0.747662    0.664782    11.00000   -1.50000
AFIX   0
C178  1    0.582801    0.696133    0.628288    11.00000    0.03335    0.05726 =
         0.08654    0.01570    0.00681    0.00195
AFIX 137
H17D  2    0.570149    0.761007    0.631462    11.00000   -1.50000
H17E  2    0.530282    0.657998    0.633852    11.00000   -1.50000
H17F  2    0.584944    0.687863    0.613084    11.00000   -1.50000
AFIX   0
C179  1    1.218889    0.980762    0.583489    11.00000    0.03354    0.04807 =
         0.05394    0.00143    0.00153   -0.00832
AFIX 137
H17G  2    1.265252    0.942488    0.575913    11.00000   -1.50000
H17H  2    1.245065    0.992544    0.597686    11.00000   -1.50000
H17I  2    1.209363    1.039383    0.576107    11.00000   -1.50000
AFIX   0

ZN71  7    0.138528    0.261431    0.676061    11.00000    0.02594    0.04850 =
         0.04883   -0.00530   -0.00245    0.01055
O72   5    0.242598    0.168874    0.677846    11.00000    0.02584    0.04907 =
         0.06780   -0.01282   -0.00868    0.00356
O73   5    0.261011    0.347144    0.685262    11.00000    0.02981    0.05247 =
         0.05291   -0.00617   -0.00568    0.01532
C74   1    0.449417    0.441502    0.695317    11.00000    0.03315    0.04253 =
         0.06079   -0.00001   -0.00445    0.00009
C75   1    0.557504    0.465730    0.699312    11.00000    0.03273    0.04418 =
         0.09513   -0.00264   -0.00663    0.00210
AFIX 137
H75A  2    0.580964    0.436952    0.712399    11.00000   -1.50000
H75B  2    0.564630    0.532726    0.700405    11.00000   -1.50000
H75C  2    0.596188    0.443040    0.687693    11.00000   -1.50000
AFIX   0
C76   1    0.411653    0.494606    0.675860    11.00000    0.05064    0.04962 =
         0.06777    0.00127   -0.00740    0.00692
AFIX 137
H76A  2    0.448883    0.475845    0.663679    11.00000   -1.50000
H76B  2    0.420085    0.560861    0.678209    11.00000   -1.50000
H76C  2    0.341939    0.480932    0.673302    11.00000   -1.50000
AFIX   0
C77   1    0.392510    0.469821    0.714668    11.00000    0.04280    0.05239 =
         0.06567   -0.00781   -0.01224    0.01275
AFIX 137
H77A  2    0.322864    0.455033    0.712417    11.00000   -1.50000
H77B  2    0.399949    0.536190    0.716997    11.00000   -1.50000
H77C  2    0.418377    0.436326    0.726949    11.00000   -1.50000
AFIX   0
C78   1    0.510606    0.275834    0.694267    11.00000    0.02848    0.04737 =
         0.05457   -0.00355   -0.00418    0.00245
AFIX  43
H78   2    0.574108    0.298728    0.697910    11.00000   -1.20000
AFIX   0
C79   1    0.435841    0.338656    0.691915    11.00000    0.03441    0.05042 =
         0.04583   -0.00255   -0.00293    0.00525
C80   1    0.338908    0.299242    0.686737    11.00000    0.03042    0.04886 =
         0.04664   -0.00265   -0.00386    0.00948
C81   1    0.328767    0.201147    0.682910    11.00000    0.03226    0.04881 =
         0.05373   -0.00766   -0.00183    0.01024
C82   1    0.410556    0.141569    0.685760    11.00000    0.03284    0.04287 =
         0.06820   -0.00652   -0.00191    0.01034
AFIX  43
H82   2    0.403718    0.077107    0.683644    11.00000   -1.20000
AFIX   0
C83   1    0.500072    0.178898    0.691651    11.00000    0.03302    0.04918 =
         0.05620   -0.00414   -0.00449    0.01107
C84   1    0.586919    0.121218    0.695059    11.00000    0.03241    0.05339 =
         0.05992    0.00087   -0.00401    0.00698
C85   1    0.593580    0.030677    0.688533    11.00000    0.02657    0.04397 =
         0.10650    0.00330   -0.00807    0.00179
AFIX  43
H85   2    0.538226    0.002194    0.681882    11.00000   -1.20000
AFIX   0
C86   1    0.679604   -0.019371    0.691516    11.00000    0.03151    0.04372 =
         0.10361   -0.00714   -0.00246    0.00818
AFIX  43
H86   2    0.683094   -0.081851    0.687193    11.00000   -1.20000
AFIX   0
C87   1    0.760455    0.023594    0.700937    11.00000    0.03644    0.05296 =
         0.05751    0.00637   -0.00280    0.00626
C88   1    0.748798    0.113933    0.707180    11.00000    0.03638    0.05182 =
         0.06004   -0.00844   -0.00748    0.01342
AFIX  43
H88   2    0.803411    0.143814    0.713786    11.00000   -1.20000
AFIX   0
N89   4    0.665954    0.161995    0.704549    11.00000    0.03476    0.05752 =
         0.05330   -0.00425   -0.00528    0.01550
C90   1    0.853667   -0.024911    0.704619    11.00000    0.03651    0.05047 =
         0.05009    0.00412   -0.00351    0.00527
S91   6    0.862497   -0.140206    0.699457    11.00000    0.03336    0.04666 =
         0.05553   -0.00024   -0.00312    0.00783
C92   1    0.981743   -0.141954    0.709070    11.00000    0.02976    0.05100 =
         0.04720   -0.00042   -0.00128    0.01441
C93   1    1.014377   -0.056853    0.715235    11.00000    0.03414    0.04649 =
         0.05586    0.00097   -0.00412    0.00319
AFIX  43
H93   2    1.078598   -0.044997    0.720752    11.00000   -1.20000
AFIX   0
C94   1    0.942529    0.010169    0.712475    11.00000    0.03763    0.04417 =
         0.04963    0.00214   -0.00273    0.00864
AFIX  43
H94   2    0.952858    0.073434    0.715617    11.00000   -1.20000
AFIX   0
C95   1    1.033114   -0.227494    0.710701    11.00000    0.03649    0.04675 =
         0.04729   -0.00082   -0.00293    0.00975
N96   4    0.998092   -0.309206    0.703493    11.00000    0.05231    0.04991 =
         0.05838   -0.00801   -0.01234    0.01470
C97   1    1.056128   -0.388192    0.712346    11.00000    0.06403    0.04544 =
         0.05676   -0.00027   -0.00798    0.01898
C98   1    1.154387   -0.340157    0.718170    11.00000    0.05290    0.04655 =
         0.05566    0.00525    0.00091    0.01823
N99   4    1.120845   -0.241578    0.720497    11.00000    0.03710    0.05159 =
         0.05870   -0.00041   -0.00320    0.01546
O100  5    1.175816   -0.179569    0.728936    11.00000    0.03642    0.06207 =
         0.08439   -0.00005   -0.00923    0.00409
O101  5    0.916426   -0.319727    0.693410    11.00000    0.06888    0.06231 =
         0.08351   -0.01444   -0.03239    0.01513
C102  1    0.998621   -0.420304    0.731430    11.00000    0.06739    0.05598 =
         0.07151    0.00291   -0.00134    0.00068
AFIX 137
H10A  2    0.995830   -0.370156    0.741661    11.00000   -1.50000
H10B  2    1.031625   -0.473621    0.737870    11.00000   -1.50000
H10C  2    0.931832   -0.437560    0.726898    11.00000   -1.50000
AFIX   0
C103  1    1.060863   -0.465411    0.696151    11.00000    0.10357    0.05969 =
         0.06754   -0.01013   -0.01146    0.03036
AFIX 137
H10D  2    0.994249   -0.486408    0.692478    11.00000   -1.50000
H10E  2    1.099115   -0.516908    0.702020    11.00000   -1.50000
H10F  2    1.092261   -0.442431    0.683572    11.00000   -1.50000
AFIX   0
C104  1    1.226597   -0.338769    0.700300    11.00000    0.07004    0.08977 =
         0.07531    0.02290    0.02189    0.04995
AFIX 137
H10G  2    1.192332   -0.319454    0.687336    11.00000   -1.50000
H10H  2    1.253910   -0.400560    0.698445    11.00000   -1.50000
H10I  2    1.279829   -0.295404    0.703666    11.00000   -1.50000
AFIX   0
C105  1    1.204060   -0.372212    0.738248    11.00000    0.06177    0.06481 =
         0.06428    0.00695   -0.00472    0.01865
AFIX 137
H10J  2    1.263009   -0.335114    0.741082    11.00000   -1.50000
H10K  2    1.222536   -0.437120    0.736913    11.00000   -1.50000
H10L  2    1.158943   -0.365251    0.749810    11.00000   -1.50000
AFIX   0
N106  4    0.021918    0.172233    0.663820    11.00000    0.02762    0.04711 =
         0.05192   -0.00404   -0.00042    0.00991
N107  4   -0.067964    0.214950    0.664078    11.00000    0.02772    0.04595 =
         0.05583   -0.00497   -0.00179    0.00630
C108  1   -0.140826    0.153324    0.658627    11.00000    0.03342    0.05293 =
         0.05013   -0.00424    0.00243   -0.00134
C109  1   -0.096963    0.069718    0.654680    11.00000    0.03444    0.04862 =
         0.05433   -0.00122   -0.00060   -0.00176
AFIX  43
H109  2   -0.128481    0.013798    0.650695    11.00000   -1.20000
AFIX   0
C110  1    0.005190    0.084973    0.657835    11.00000    0.03672    0.04633 =
         0.04835   -0.00216   -0.00200    0.00538
C111  1    0.085340    0.018086    0.655251    11.00000    0.03551    0.05046 =
         0.04390   -0.00637   -0.00703    0.01171
C112  1    0.172564    0.044179    0.645974    11.00000    0.03132    0.05377 =
         0.05136   -0.01039   -0.00476    0.00755
AFIX  43
H112  2    0.181067    0.105427    0.641126    11.00000   -1.20000
AFIX   0
C113  1    0.246748   -0.020470    0.643918    11.00000    0.03921    0.05738 =
         0.06679   -0.01584   -0.00682    0.00829
AFIX  43
H113  2    0.306315   -0.002193    0.637773    11.00000   -1.20000
AFIX   0
C114  1    0.236831   -0.109555    0.650451    11.00000    0.05287    0.06243 =
         0.07185   -0.01290   -0.02433    0.02229
C115  1    0.148474   -0.136088    0.659334    11.00000    0.07465    0.05100 =
         0.06047    0.00509   -0.01349    0.02043
AFIX  43
H115  2    0.138951   -0.198041    0.663599    11.00000   -1.20000
AFIX   0
C116  1    0.074455   -0.070923    0.661884    11.00000    0.06035    0.05625 =
         0.04377    0.00528   -0.00163    0.01371
AFIX  43
H116  2    0.015457   -0.088655    0.668339    11.00000   -1.20000
AFIX   0
PART 1
C117  1    0.325615   -0.171169    0.645700    10.50000    0.04944    0.04631 =
         0.06906    0.01492   -0.00489    0.00819
AFIX  13
H117  2    0.364953   -0.143688    0.634299    10.50000   -1.20000
AFIX   0
C118  1    0.388955   -0.180575    0.666200    10.50000    0.04783    0.05254 =
         0.09174   -0.00299   -0.02476    0.01404
AFIX 137
H11A  2    0.411705   -0.119549    0.670739    10.50000   -1.50000
H11B  2    0.445692   -0.220031    0.663650    10.50000   -1.50000
H11C  2    0.349422   -0.208079    0.677141    10.50000   -1.50000
AFIX   0
C119  1    0.293368   -0.269098    0.639946    10.50000    0.03760    0.06085 =
         0.05452   -0.00196    0.00728    0.00336
AFIX 137
H11D  2    0.263588   -0.298170    0.652062    10.50000   -1.50000
H11E  2    0.350565   -0.304993    0.635840    10.50000   -1.50000
H11F  2    0.245297   -0.266852    0.628250    10.50000   -1.50000
AFIX   0
PART 0
PART 2
C120  1    0.306890   -0.191606    0.651096    10.50000    0.05803    0.04932 =
         0.07765    0.01553   -0.01375    0.01619
AFIX  13
H120  2    0.277288   -0.243397    0.659071    10.50000   -1.20000
AFIX   0
C121  1    0.320103   -0.220104    0.628629    10.50000    0.04534    0.08514 =
         0.08644   -0.00753   -0.00227    0.01999
AFIX 137
H12A  2    0.256317   -0.236968    0.622276    10.50000   -1.50000
H12B  2    0.364506   -0.273097    0.628189    10.50000   -1.50000
H12C  2    0.348065   -0.168747    0.620835    10.50000   -1.50000
AFIX   0
C122  1    0.402513   -0.160155    0.662158    10.50000    0.04214    0.06778 =
         0.08606   -0.00060   -0.00667    0.02687
AFIX 137
H12D  2    0.430250   -0.108322    0.654488    10.50000   -1.50000
H12E  2    0.449515   -0.211230    0.662573    10.50000   -1.50000
H12F  2    0.388852   -0.140825    0.676479    10.50000   -1.50000
AFIX   0
PART 0
C123  1   -0.247731    0.179665    0.657364    11.00000    0.03270    0.05334 =
         0.06148   -0.00400    0.00326   -0.00038
AFIX 137
H12G  2   -0.265536    0.210426    0.670369    11.00000   -1.50000
H12H  2   -0.287837    0.124170    0.655383    11.00000   -1.50000
H12I  2   -0.259354    0.221534    0.645520    11.00000   -1.50000
AFIX   0
N124  4    0.085783    0.357368    0.655574    11.00000    0.03179    0.05418 =
         0.04973   -0.00787   -0.00395    0.01278
N125  4   -0.012546    0.377829    0.658236    11.00000    0.03075    0.05017 =
         0.05158   -0.00363   -0.00997    0.01182
C126  1   -0.037320    0.450876    0.646015    11.00000    0.04800    0.04700 =
         0.05551   -0.00274   -0.01280    0.01431
C127  1    0.043768    0.478520    0.635298    11.00000    0.05860    0.05243 =
         0.05725    0.00477   -0.01459    0.00634
AFIX  43
H127  2    0.048048    0.528286    0.625716    11.00000   -1.20000
AFIX   0
C128  1    0.119218    0.416992    0.641612    11.00000    0.04010    0.04850 =
         0.04423   -0.00266   -0.00692   -0.00134
C129  1    0.220054    0.412963    0.633815    11.00000    0.04221    0.07396 =
         0.04521   -0.00252   -0.00536   -0.00774
PART 1
C130  1    0.273878    0.331903    0.633447    10.50000    0.03899    0.07198 =
         0.05882   -0.00606    0.00943   -0.00699
AFIX  43
H130  2    0.250385    0.274677    0.638479    10.50000   -1.20000
AFIX   0
C131  1    0.366821    0.343386    0.624844    10.50000    0.04255    0.04931 =
         0.05699   -0.00210    0.01308   -0.00690
AFIX  43
H131  2    0.407179    0.290201    0.624162    10.50000   -1.20000
AFIX   0
C132  1    0.405829    0.425827    0.617158    10.50000    0.05223    0.05586 =
         0.05200    0.00301    0.01306   -0.01512
C133  1    0.343407    0.500682    0.618573    10.50000    0.03621    0.08352 =
         0.04726    0.00259    0.00988   -0.00016
AFIX  43
H133  2    0.366348    0.558137    0.613555    10.50000   -1.20000
AFIX   0
C134  1    0.250238    0.498749    0.626702    10.50000    0.02770    0.07371 =
         0.04637    0.00090    0.00124    0.00003
AFIX  43
H134  2    0.209978    0.552005    0.627369    10.50000   -1.20000
AFIX   0
PART 0
PART 2
C135  1    0.273490    0.330632    0.634043    10.50000    0.04498    0.07314 =
         0.05799   -0.00971    0.00346   -0.00523
AFIX  43
H135  2    0.239141    0.280571    0.639991    10.50000   -1.20000
AFIX   0
C136  1    0.367728    0.306416    0.627284    10.50000    0.04510    0.07300 =
         0.06147    0.00625    0.00752   -0.01017
AFIX  43
H136  2    0.396972    0.247126    0.628230    10.50000   -1.20000
AFIX   0
C137  1    0.410887    0.386620    0.618821    10.50000    0.05160    0.06578 =
         0.06627   -0.00601    0.00818   -0.01257
C138  1    0.371055    0.476840    0.616901    10.50000    0.03455    0.08727 =
         0.05607    0.00121    0.00335   -0.00583
AFIX  43
H138  2    0.404331    0.527593    0.610971    10.50000   -1.20000
AFIX   0
C139  1    0.276574    0.481353    0.624861    10.50000    0.02510    0.07679 =
         0.05751    0.00129   -0.00203   -0.00717
AFIX  43
H139  2    0.246416    0.540263    0.624012    10.50000   -1.20000
AFIX   0
PART 0
PART 1
C140  1    0.510630    0.426897    0.608128    10.50000    0.05955    0.04082 =
         0.10646   -0.00483    0.02625   -0.01105
AFIX  13
H140  2    0.525753    0.489325    0.602455    10.50000   -1.20000
AFIX   0
C141  1    0.583769    0.402393    0.626256    10.50000    0.02765    0.04872 =
         0.13134   -0.02501    0.02944   -0.01097
AFIX 137
H14A  2    0.567338    0.341775    0.631914    10.50000   -1.50000
H14B  2    0.579702    0.448819    0.637330    10.50000   -1.50000
H14C  2    0.650583    0.401067    0.621003    10.50000   -1.50000
AFIX   0
C142  1    0.511782    0.354648    0.590438    10.50000    0.06896    0.07370 =
         0.09747   -0.00097    0.03724    0.00584
AFIX 137
H14D  2    0.576714    0.353731    0.584250    10.50000   -1.50000
H14E  2    0.462102    0.370579    0.579647    10.50000   -1.50000
H14F  2    0.497260    0.293732    0.596179    10.50000   -1.50000
AFIX   0
PART 0
PART 2
C143  1    0.518117    0.369107    0.610481    10.50000    0.06684    0.06389 =
         0.10328    0.00651    0.03688   -0.01271
AFIX  13
H143  2    0.541308    0.306093    0.614547    10.50000   -1.20000
AFIX   0
C144  1    0.518717    0.380430    0.586706    10.50000    0.12772    0.17379 =
         0.10878    0.05625    0.06237    0.05095
AFIX 137
H14G  2    0.453705    0.400434    0.581578    10.50000   -1.50000
H14H  2    0.535126    0.321435    0.580232    10.50000   -1.50000
H14I  2    0.567705    0.426681    0.583060    10.50000   -1.50000
AFIX   0
C145  1    0.588638    0.441449    0.619180    10.50000    0.08580    0.13513 =
         0.24695   -0.04748    0.04547   -0.05200
AFIX 137
H14J  2    0.564706    0.502874    0.615249    10.50000   -1.50000
H14K  2    0.653694    0.431720    0.613430    10.50000   -1.50000
H14L  2    0.593027    0.436442    0.634477    10.50000   -1.50000
AFIX   0
PART 0
C146  1   -0.137837    0.492466    0.645359    11.00000    0.05111    0.06338 =
         0.08727    0.00516   -0.01696    0.02261
AFIX 137
H14M  2   -0.140468    0.542464    0.635055    11.00000   -1.50000
H14N  2   -0.152638    0.516942    0.659210    11.00000   -1.50000
H14O  2   -0.186208    0.445219    0.641383    11.00000   -1.50000
AFIX   0
N147  4    0.053102    0.290497    0.700395    11.00000    0.03100    0.04578 =
         0.04984   -0.00277   -0.00192    0.00808
N148  4   -0.041487    0.317638    0.695123    11.00000    0.02685    0.05723 =
         0.05323   -0.00873   -0.00017    0.00978
C149  1   -0.088508    0.341177    0.712626    11.00000    0.03814    0.03785 =
         0.05893   -0.00653    0.00623    0.00250
C150  1   -0.025207    0.329301    0.729380    11.00000    0.04205    0.04652 =
         0.05166   -0.00502    0.00603    0.00319
AFIX  43
H150  2   -0.038207    0.340302    0.743694    11.00000   -1.20000
AFIX   0
C151  1    0.063126    0.297476    0.721128    11.00000    0.04293    0.04352 =
         0.05162   -0.00165    0.00509    0.00995
C152  1    0.157458    0.275546    0.732176    11.00000    0.04933    0.06262 =
         0.04400    0.00270    0.00092    0.02294
C153  1    0.208825    0.196030    0.727808    11.00000    0.07658    0.06764 =
         0.05874   -0.00496   -0.00467    0.03800
AFIX  43
H153  2    0.182925    0.153747    0.717737    11.00000   -1.20000
AFIX   0
C154  1    0.298444    0.177383    0.738079    11.00000    0.08722    0.09239 =
         0.05926   -0.00614   -0.00832    0.05604
AFIX  43
H154  2    0.332451    0.122175    0.734968    11.00000   -1.20000
AFIX   0
C155  1    0.338730    0.238047    0.752750    11.00000    0.06932    0.09735 =
         0.04593    0.00149   -0.00368    0.04569
C156  1    0.286747    0.317156    0.756991    11.00000    0.05676    0.08915 =
         0.05040   -0.00422   -0.00710    0.02851
AFIX  43
H156  2    0.313096    0.359943    0.766899    11.00000   -1.20000
AFIX   0
C157  1    0.196641    0.335644    0.747085    11.00000    0.05526    0.06754 =
         0.04688   -0.00272   -0.00348    0.02489
AFIX  43
H157  2    0.161675    0.389861    0.750559    11.00000   -1.20000
AFIX   0
PART 2
C158  1    0.422298    0.191018    0.765069   -21.00000    0.07719    0.11374 =
         0.04000    0.02200    0.00649    0.05208
AFIX  13
H158  2    0.412590    0.122956    0.766184   -21.00000   -1.20000
AFIX   0
C159  1    0.504950    0.215504    0.751185   -21.00000    0.05611    0.18410 =
         0.08322    0.05727    0.00759    0.06179
AFIX 137
H15A  2    0.501956    0.176622    0.738644   -21.00000   -1.50000
H15B  2    0.567623    0.205569    0.758749   -21.00000   -1.50000
H15C  2    0.499380    0.280350    0.747071   -21.00000   -1.50000
AFIX   0
PART 0
PART 1
C160  1    0.442646    0.226213    0.762810    21.00000    0.05913    0.09542 =
         0.05735    0.01301   -0.00089    0.03689
AFIX  13
H160  2    0.464249    0.161814    0.759861    21.00000   -1.20000
AFIX   0
C161  1    0.523141    0.291284    0.755057    21.00000    0.05400    0.16947 =
         0.09396    0.05740   -0.01383    0.02176
AFIX 137
H16A  2    0.540723    0.273656    0.740841    21.00000   -1.50000
H16B  2    0.581182    0.286826    0.764417    21.00000   -1.50000
H16C  2    0.498716    0.354758    0.754982    21.00000   -1.50000
AFIX   0
PART 0
C162  1    0.438942    0.236335    0.786350    11.00000    0.07291    0.08738 =
         0.06513    0.00605   -0.01277    0.02536
PART 2
AFIX 137
H16G  2    0.465170    0.298515    0.784450   -21.00000   -1.50000
H16H  2    0.485836    0.199715    0.794763   -21.00000   -1.50000
H16I  2    0.376541    0.239965    0.793545   -21.00000   -1.50000
AFIX 137
PART 0
PART 1
H16D  2    0.421850    0.299939    0.789851    21.00000   -1.50000
H16E  2    0.503254    0.221171    0.792685    21.00000   -1.50000
H16F  2    0.389325    0.194452    0.791759    21.00000   -1.50000
AFIX   0
PART 0
C163  1   -0.193125    0.375453    0.712506    11.00000    0.03205    0.05936 =
         0.07525   -0.01885    0.00309    0.00570
AFIX 137
H16J  2   -0.198199    0.432498    0.704350    11.00000   -1.50000
H16K  2   -0.212482    0.387359    0.726910    11.00000   -1.50000
H16L  2   -0.236573    0.328741    0.706180    11.00000   -1.50000
AFIX   0
B180  3   -0.076306    0.315472    0.671768    11.00000    0.02791    0.05653 =
         0.05519   -0.00873   -0.00056    0.01210
AFIX  13
H180  2   -0.146279    0.335917    0.670532    11.00000   -1.20000
AFIX   0

O164  5    0.272157   -0.027019    0.705198     0.32541    0.13849    0.11284 =
         0.11556   -0.00569    0.01304   -0.05094
O165  5    0.723904    0.556924    0.568018     0.22765    0.06692    0.08796 =
         0.06116   -0.01268   -0.01860    0.01964
HKLF 4




REM  sq_pt_nn_th_0m.res in P2(1)/c
REM R1 =  0.0901 for   18609 Fo > 4sig(Fo)  and  0.1018 for all   21677 data
REM   1635 parameters refined using    595 restraints

END

WGHT      0.0457     48.9473

REM Highest difference peak  0.972,  deepest hole -0.498,  1-sigma level  0.091
Q1    1   0.8739  0.8623  0.5665  11.00000  0.05    0.97
Q2    1   0.1271  0.2611  0.6605  11.00000  0.05    0.77
Q3    1   0.1626  0.3213  0.6755  11.00000  0.05    0.75
Q4    1   0.1312  0.2659  0.6921  11.00000  0.05    0.74
Q5    1   0.8791  0.8649  0.5350  11.00000  0.05    0.69
Q6    1   0.1409  0.4585  0.5869  11.00000  0.05    0.56
Q7    1   0.9648  0.8543  0.5401  11.00000  0.05    0.52
Q8    1   0.2434  0.2622  0.6760  11.00000  0.05    0.50
Q9    1   0.8646  0.9394  0.5424  11.00000  0.05    0.47
Q10   1   0.5634  0.4427  0.5978  11.00000  0.05    0.45
Q11   1   0.8721 -0.1273  0.6840  11.00000  0.05    0.45
Q12   1   0.8382  0.8245  0.5525  11.00000  0.05    0.44
Q13   1   0.9814  0.8431  0.5577  11.00000  0.05    0.44
Q14   1   0.0382  0.2676  0.6821  11.00000  0.05    0.44
Q15   1   0.0693  0.2652  0.6883  11.00000  0.05    0.44
Q16   1  -0.0454  0.2445  0.6759  11.00000  0.05    0.43
Q17   1   0.9691  0.7823  0.5451  11.00000  0.05    0.42
Q18   1   0.0792  0.3389  0.6710  11.00000  0.05    0.41
Q19   1   0.0425  0.2278  0.6687  11.00000  0.05    0.41
Q20   1  -0.0549  0.3004  0.6832  11.00000  0.05    0.40
Q21   1   1.0537  0.9076  0.5527  11.00000  0.05    0.40
Q22   1   0.9586  0.9131  0.5519  11.00000  0.05    0.40
Q23   1   0.6876  0.1957  0.6914  11.00000  0.05    0.39
Q24   1   1.0373  0.7874  0.5356  11.00000  0.05    0.39
Q25   1   0.2002  0.2004  0.6648  11.00000  0.05    0.39
Q26   1  -0.0280  0.3945  0.6733  11.00000  0.05    0.38
Q27   1   1.0594  0.8363  0.5495  11.00000  0.05    0.38
Q28   1   0.0588  0.3639  0.6995  11.00000  0.05    0.37
Q29   1   0.3265  0.2545  0.6780  11.00000  0.05    0.36
Q30   1   1.0460  0.6824  0.5221  11.00000  0.05    0.36
Q31   1   0.7677  0.0472  0.6872  11.00000  0.05    0.36
Q32   1   0.7991  0.7947  0.5621  11.00000  0.05    0.35
Q33   1  -0.0334  0.3795  0.6877  11.00000  0.05    0.35
Q34   1  -0.1250  0.1965  0.6477  11.00000  0.05    0.35
Q35   1   0.0381 -0.0752  0.6766  11.00000  0.05    0.34
Q36   1   0.7825  0.7616  0.5477  11.00000  0.05    0.34
Q37   1   0.1216  0.4114  0.6550  11.00000  0.05    0.34
Q38   1   0.2383  0.1546  0.6935  11.00000  0.05    0.34
Q39   1   0.7697  0.8221  0.5490  11.00000  0.05    0.34
Q40   1   0.8640  0.7776  0.5397  11.00000  0.05    0.34
;
_shelx_res_checksum              788
loop_
_space_group_symop_operation_xyz
'x, y, z'
'-x, y+1/2, -z+1/2'
'-x, -y, -z'
'x, -y-1/2, z-1/2'
loop_
_atom_site_label
_atom_site_type_symbol
_atom_site_fract_x
_atom_site_fract_y
_atom_site_fract_z
_atom_site_U_iso_or_equiv
_atom_site_adp_type
_atom_site_occupancy
_atom_site_site_symmetry_order
_atom_site_calc_flag
_atom_site_refinement_flags_posn
_atom_site_refinement_flags_adp
_atom_site_refinement_flags_occupancy
_atom_site_disorder_assembly
_atom_site_disorder_group
Zn1 Zn 0.87507(5) 0.86278(5) 0.55102(2) 0.03844(18) Uani 1 1 d . . . . .
O2 O 0.7617(3) 0.7832(3) 0.54746(6) 0.0431(9) Uani 1 1 d . . . . .
O3 O 0.7725(2) 0.9308(2) 0.57168(6) 0.0401(8) Uani 1 1 d . . . . .
C4 C 0.6154(4) 0.9965(4) 0.59846(9) 0.0417(13) Uani 1 1 d . . . . .
C5 C 0.5200(4) 1.0094(5) 0.61038(11) 0.0572(17) Uani 1 1 d . . . . .
H5A H 0.464727 1.015963 0.600349 0.086 Uiso 1 1 calc R U . . .
H5B H 0.525210 1.064808 0.619102 0.086 Uiso 1 1 calc R U . . .
H5C H 0.509352 0.955621 0.619300 0.086 Uiso 1 1 calc R U . . .
C6 C 0.7009(4) 0.9864(4) 0.61448(10) 0.0490(14) Uani 1 1 d . . . . .
H6A H 0.692265 0.929947 0.622620 0.074 Uiso 1 1 calc R U . . .
H6B H 0.702123 1.039628 0.623913 0.074 Uiso 1 1 calc R U . . .
H6C H 0.762873 0.983191 0.607113 0.074 Uiso 1 1 calc R U . . .
C7 C 0.6296(4) 1.0817(4) 0.58489(11) 0.0536(16) Uani 1 1 d . . . . .
H7A H 0.690799 1.075827 0.577333 0.080 Uiso 1 1 calc R U . . .
H7B H 0.632719 1.136608 0.593801 0.080 Uiso 1 1 calc R U . . .
H7C H 0.574311 1.087350 0.574813 0.080 Uiso 1 1 calc R U . . .
C8 C 0.5287(4) 0.8569(4) 0.58269(9) 0.0407(12) Uani 1 1 d . . . . .
H8 H 0.472864 0.873802 0.590376 0.049 Uiso 1 1 calc R U . . .
C9 C 0.6097(4) 0.9111(4) 0.58439(9) 0.0362(11) Uani 1 1 d . . . . .
C10 C 0.6939(4) 0.8861(3) 0.57187(8) 0.0357(11) Uani 1 1 d . . . . .
C11 C 0.6867(4) 0.8033(4) 0.55854(9) 0.0384(12) Uani 1 1 d . . . . .
C12 C 0.5999(4) 0.7512(4) 0.55803(9) 0.0396(12) Uani 1 1 d . . . . .
H12 H 0.594776 0.698311 0.549301 0.048 Uiso 1 1 calc R U . . .
C13 C 0.5226(4) 0.7759(4) 0.57002(9) 0.0378(12) Uani 1 1 d . . . . .
C14 C 0.4318(4) 0.7214(4) 0.57020(9) 0.0398(12) Uani 1 1 d . . . . .
C15 C 0.4271(4) 0.6312(4) 0.56334(10) 0.0467(14) Uani 1 1 d . . . . .
H15 H 0.483935 0.602226 0.558144 0.056 Uiso 1 1 calc R U . . .
C16 C 0.3402(4) 0.5832(4) 0.56402(10) 0.0478(14) Uani 1 1 d . . . . .
H16 H 0.336917 0.521154 0.559351 0.057 Uiso 1 1 calc R U . . .
C17 C 0.2571(4) 0.6261(4) 0.57157(9) 0.0381(12) Uani 1 1 d . . . . .
C18 C 0.2682(4) 0.7169(4) 0.57838(10) 0.0475(14) Uani 1 1 d . . . . .
H18 H 0.212344 0.747067 0.583670 0.057 Uiso 1 1 calc R U . . .
N19 N 0.3520(3) 0.7641(3) 0.57796(8) 0.0458(11) Uani 1 1 d . . . . .
C20 C 0.1641(4) 0.5784(4) 0.57361(9) 0.0382(12) Uani 1 1 d . . . . .
S21 S 0.16020(9) 0.46117(9) 0.57204(2) 0.0403(3) Uani 1 1 d . . . . .
C22 C 0.0374(4) 0.4616(4) 0.57737(9) 0.0413(12) Uani 1 1 d . . . . .
C23 C 0.0018(4) 0.5495(4) 0.57987(9) 0.0434(13) Uani 1 1 d . . . . .
H23 H -0.064479 0.562935 0.582915 0.052 Uiso 1 1 calc R U . . .
C24 C 0.0722(4) 0.6153(4) 0.57748(9) 0.0424(13) Uani 1 1 d . . . . .
H24 H 0.059647 0.679522 0.578368 0.051 Uiso 1 1 calc R U . . .
C25 C -0.0129(4) 0.3772(4) 0.58090(9) 0.0393(12) Uani 1 1 d . . . . .
N26 N 0.0267(3) 0.2926(3) 0.57829(8) 0.0435(11) Uani 1 1 d . . . . .
C27 C -0.0328(4) 0.2195(4) 0.58882(9) 0.0441(13) Uani 1 1 d . . . . .
C28 C -0.1342(4) 0.2689(4) 0.58837(10) 0.0483(14) Uani 1 1 d . . . . .
N29 N -0.1036(3) 0.3681(3) 0.58840(8) 0.0458(11) Uani 1 1 d . . . . .
O30 O -0.1632(3) 0.4330(3) 0.59264(8) 0.0585(12) Uani 1 1 d . . . . .
O31 O 0.1121(3) 0.2771(3) 0.57148(7) 0.0522(10) Uani 1 1 d . . . . .
C32 C 0.0128(5) 0.2076(5) 0.61043(10) 0.0545(15) Uani 1 1 d . . . . .
H32A H 0.081426 0.188590 0.609285 0.082 Uiso 1 1 calc R U . . .
H32B H -0.023249 0.160413 0.618016 0.082 Uiso 1 1 calc R U . . .
H32C H 0.009938 0.266122 0.618030 0.082 Uiso 1 1 calc R U . . .
C33 C -0.0299(5) 0.1314(4) 0.57630(10) 0.0561(16) Uani 1 1 d . . . . .
H33A H -0.052028 0.143657 0.561835 0.084 Uiso 1 1 calc R U . . .
H33B H -0.073260 0.085699 0.582523 0.084 Uiso 1 1 calc R U . . .
H33C H 0.037349 0.107572 0.576416 0.084 Uiso 1 1 calc R U . . .
C34 C -0.1945(4) 0.2505(4) 0.60741(10) 0.0537(15) Uani 1 1 d . . . . .
H34A H -0.159406 0.273338 0.619959 0.081 Uiso 1 1 calc R U . . .
H34B H -0.205491 0.184060 0.608762 0.081 Uiso 1 1 calc R U . . .
H34C H -0.257875 0.282030 0.605842 0.081 Uiso 1 1 calc R U . . .
C35 C -0.1943(4) 0.2550(5) 0.56797(10) 0.0559(16) Uani 1 1 d . . . . .
H35A H -0.253124 0.293759 0.568125 0.084 Uiso 1 1 calc R U . . .
H35B H -0.213652 0.190227 0.566696 0.084 Uiso 1 1 calc R U . . .
H35C H -0.154512 0.272181 0.556046 0.084 Uiso 1 1 calc R U . . .
N36 N 0.9826(3) 0.7878(3) 0.53212(7) 0.0398(10) Uani 1 1 d . . . . .
N37 N 1.0722(3) 0.8322(3) 0.53348(7) 0.0374(10) Uani 1 1 d . . . . .
C38 C 1.1439(4) 0.7747(4) 0.52757(9) 0.0428(13) Uani 1 1 d . . . . .
C39 C 1.1018(4) 0.6925(4) 0.52183(9) 0.0420(13) Uani 1 1 d . . . . .
H39 H 1.133992 0.639220 0.516795 0.050 Uiso 1 1 calc R U . . .
C40 C 1.0002(4) 0.7037(4) 0.52498(8) 0.0384(12) Uani 1 1 d . . . . .
C41 C 0.9223(4) 0.6348(4) 0.52157(8) 0.0403(12) Uani 1 1 d . . . . .
C42 C 0.8281(4) 0.6593(4) 0.51465(9) 0.0425(13) Uani 1 1 d . . . . .
H42 H 0.813494 0.721876 0.511550 0.051 Uiso 1 1 calc R U . . .
C43 C 0.7559(4) 0.5935(4) 0.51227(9) 0.0439(13) Uani 1 1 d . . . . .
H43 H 0.692350 0.612025 0.507433 0.053 Uiso 1 1 calc R U . . .
C44 C 0.7724(4) 0.5012(4) 0.51666(9) 0.0453(13) Uani 1 1 d . . . . .
C45 C 0.8677(5) 0.4767(4) 0.52307(9) 0.0491(14) Uani 1 1 d . . . . .
H45 H 0.882461 0.413899 0.525886 0.059 Uiso 1 1 calc R U . . .
C46 C 0.9413(4) 0.5422(4) 0.52542(9) 0.0462(13) Uani 1 1 d . . . . .
H46 H 1.005527 0.523510 0.529727 0.055 Uiso 1 1 calc R U . . .
C47 C 0.6915(5) 0.4310(4) 0.51531(11) 0.0597(17) Uani 1 1 d . . . . .
H47 H 0.721910 0.368779 0.517263 0.072 Uiso 1 1 calc R U . . .
C48 C 0.6201(6) 0.4458(6) 0.53305(15) 0.092(3) Uani 1 1 d . . . . .
H48A H 0.655693 0.441257 0.546561 0.138 Uiso 1 1 calc R U . . .
H48B H 0.568674 0.398655 0.532268 0.138 Uiso 1 1 calc R U . . .
H48C H 0.590197 0.506947 0.531686 0.138 Uiso 1 1 calc R U . . .
C49 C 0.6366(5) 0.4313(5) 0.49432(13) 0.072(2) Uani 1 1 d . . . . .
H49A H 0.603145 0.490465 0.492322 0.108 Uiso 1 1 calc R U . . .
H49B H 0.588094 0.381439 0.493972 0.108 Uiso 1 1 calc R U . . .
H49C H 0.683128 0.422037 0.483096 0.108 Uiso 1 1 calc R U . . .
C50 C 1.2497(4) 0.8039(4) 0.52716(10) 0.0492(14) Uani 1 1 d . . . . .
H50A H 1.256706 0.854349 0.517116 0.074 Uiso 1 1 calc R U . . .
H50B H 1.290168 0.751658 0.522954 0.074 Uiso 1 1 calc R U . . .
H50C H 1.271259 0.824788 0.541138 0.074 Uiso 1 1 calc R U . . .
N51 N 0.9073(3) 0.9800(3) 0.53539(7) 0.0383(10) Uani 1 1 d . . . . .
N52 N 1.0067(3) 0.9949(3) 0.53401(7) 0.0385(10) Uani 1 1 d . . . . .
C53 C 1.0209(4) 1.0752(4) 0.52374(9) 0.0430(13) Uani 1 1 d . . . . .
C54 C 0.9304(4) 1.1133(4) 0.51876(9) 0.0413(12) Uani 1 1 d . . . . .
H54 H 0.917696 1.169693 0.511673 0.050 Uiso 1 1 calc R U . . .
C55 C 0.8614(4) 1.0512(4) 0.52636(8) 0.0401(12) Uani 1 1 d . . . . .
C56 C 0.7528(4) 1.0618(4) 0.52557(9) 0.0407(12) Uani 1 1 d . . . . .
C57 C 0.6886(4) 0.9879(4) 0.52541(9) 0.0468(14) Uani 1 1 d . . . . .
H57 H 0.713283 0.926723 0.525427 0.056 Uiso 1 1 calc R U . . .
C58 C 0.5880(4) 1.0032(5) 0.52522(10) 0.0518(15) Uani 1 1 d . . . . .
H58 H 0.545457 0.951416 0.525390 0.062 Uiso 1 1 calc R U . . .
C59 C 0.5473(4) 1.0894(5) 0.52479(10) 0.0501(15) Uani 1 1 d . . . . .
C60 C 0.6115(4) 1.1634(4) 0.52462(10) 0.0499(14) Uani 1 1 d . . . . .
H60 H 0.586093 1.224304 0.524296 0.060 Uiso 1 1 calc R U . . .
C61 C 0.7125(4) 1.1497(4) 0.52493(9) 0.0450(13) Uani 1 1 d . . . . .
H61 H 0.754851 1.201547 0.524708 0.054 Uiso 1 1 calc R U . . .
C62 C 0.4360(4) 1.1037(5) 0.52507(11) 0.0619(18) Uani 1 1 d . . . . .
H62 H 0.405324 1.050589 0.517353 0.074 Uiso 1 1 calc R U . . .
C63 C 0.4003(5) 1.0994(9) 0.54726(14) 0.112(4) Uani 1 1 d . . . . .
H63A H 0.328661 1.104784 0.547088 0.168 Uiso 1 1 calc R U . . .
H63B H 0.429392 1.150079 0.555446 0.168 Uiso 1 1 calc R U . . .
H63C H 0.419878 1.040515 0.553611 0.168 Uiso 1 1 calc R U . . .
C64 C 0.4015(5) 1.1906(5) 0.51383(15) 0.077(2) Uani 1 1 d . . . . .
H64A H 0.423108 1.244707 0.521904 0.116 Uiso 1 1 calc R U . . .
H64B H 0.329767 1.190400 0.512455 0.116 Uiso 1 1 calc R U . . .
H64C H 0.429585 1.192830 0.499886 0.116 Uiso 1 1 calc R U . . .
C65 C 1.1206(4) 1.1132(4) 0.51987(10) 0.0484(14) Uani 1 1 d . . . . .
H65A H 1.149657 1.136693 0.533023 0.073 Uiso 1 1 calc R U . . .
H65B H 1.115229 1.163310 0.509637 0.073 Uiso 1 1 calc R U . . .
H65C H 1.162418 1.064334 0.514405 0.073 Uiso 1 1 calc R U . . .
B66 B 1.0827(4) 0.9272(4) 0.54394(10) 0.0386(14) Uani 1 1 d . . . . .
H66 H 1.150551 0.951300 0.541989 0.046 Uiso 1 1 calc R U . . .
N165 N 0.9827(3) 0.8684(3) 0.57356(7) 0.0367(10) Uani 1 1 d . . . . .
N166 N 1.0651(3) 0.9140(3) 0.56756(7) 0.0363(10) Uani 1 1 d . . . . .
C167 C 1.1224(4) 0.9316(4) 0.58466(8) 0.0380(12) Uani 1 1 d . . . . .
C168 C 1.0774(4) 0.8967(3) 0.60196(8) 0.0360(11) Uani 1 1 d . . . . .
H168 H 1.100621 0.898910 0.616111 0.043 Uiso 1 1 calc R U . . .
C169 C 0.9893(3) 0.8570(4) 0.59417(8) 0.0351(11) Uani 1 1 d . . . . .
C170 C 0.9131(3) 0.8081(3) 0.60579(8) 0.0354(11) Uani 1 1 d . . . . .
C171 C 0.9003(4) 0.8240(4) 0.62677(9) 0.0418(12) Uani 1 1 d . . . . .
H171 H 0.941943 0.866712 0.633957 0.050 Uiso 1 1 calc R U . . .
C172 C 0.8274(4) 0.7789(4) 0.63769(9) 0.0423(13) Uani 1 1 d . . . . .
H172 H 0.820384 0.791208 0.652175 0.051 Uiso 1 1 calc R U . . .
C173 C 0.7644(4) 0.7158(4) 0.62765(9) 0.0398(12) Uani 1 1 d . . . . .
C174 C 0.7811(4) 0.6975(4) 0.60680(9) 0.0394(12) Uani 1 1 d . . . . .
H174 H 0.740843 0.653381 0.599725 0.047 Uiso 1 1 calc R U . . .
C175 C 0.8541(4) 0.7407(4) 0.59579(9) 0.0398(12) Uani 1 1 d . . . . .
H175 H 0.864186 0.725013 0.581576 0.048 Uiso 1 1 calc R U . . .
C176 C 0.6820(4) 0.6671(4) 0.63847(10) 0.0485(14) Uani 1 1 d . . . . .
H176 H 0.690090 0.599462 0.636075 0.058 Uiso 1 1 calc R U . . .
C177 C 0.6810(5) 0.6829(5) 0.66198(11) 0.0627(18) Uani 1 1 d . . . . .
H17A H 0.745472 0.667356 0.668209 0.094 Uiso 1 1 calc R U . . .
H17B H 0.630794 0.643757 0.668103 0.094 Uiso 1 1 calc R U . . .
H17C H 0.666235 0.747662 0.664782 0.094 Uiso 1 1 calc R U . . .
C178 C 0.5828(4) 0.6961(5) 0.62829(12) 0.0590(17) Uani 1 1 d . . . . .
H17D H 0.570149 0.761007 0.631462 0.088 Uiso 1 1 calc R U . . .
H17E H 0.530282 0.657998 0.633852 0.088 Uiso 1 1 calc R U . . .
H17F H 0.584944 0.687863 0.613084 0.088 Uiso 1 1 calc R U . . .
C179 C 1.2189(4) 0.9808(4) 0.58349(9) 0.0452(13) Uani 1 1 d . . . . .
H17G H 1.265252 0.942488 0.575913 0.068 Uiso 1 1 calc R U . . .
H17H H 1.245065 0.992544 0.597686 0.068 Uiso 1 1 calc R U . . .
H17I H 1.209363 1.039383 0.576107 0.068 Uiso 1 1 calc R U . . .
Zn71 Zn 0.13853(5) 0.26143(5) 0.67606(2) 0.04116(19) Uani 1 1 d . . . . .
O72 O 0.2426(2) 0.1689(3) 0.67785(7) 0.0478(10) Uani 1 1 d . . . . .
O73 O 0.2610(2) 0.3471(3) 0.68526(6) 0.0452(9) Uani 1 1 d . . . . .
C74 C 0.4494(4) 0.4415(4) 0.69532(10) 0.0456(13) Uani 1 1 d . . . . .
C75 C 0.5575(4) 0.4657(4) 0.69931(12) 0.0575(17) Uani 1 1 d . . . . .
H75A H 0.580964 0.436952 0.712399 0.086 Uiso 1 1 calc R U . . .
H75B H 0.564630 0.532726 0.700405 0.086 Uiso 1 1 calc R U . . .
H75C H 0.596188 0.443040 0.687693 0.086 Uiso 1 1 calc R U . . .
C76 C 0.4117(5) 0.4946(5) 0.67586(10) 0.0562(16) Uani 1 1 d . . . . .
H76A H 0.448883 0.475845 0.663679 0.084 Uiso 1 1 calc R U . . .
H76B H 0.420085 0.560861 0.678209 0.084 Uiso 1 1 calc R U . . .
H76C H 0.341939 0.480932 0.673302 0.084 Uiso 1 1 calc R U . . .
C77 C 0.3925(4) 0.4698(5) 0.71467(10) 0.0539(16) Uani 1 1 d . . . . .
H77A H 0.322864 0.455033 0.712417 0.081 Uiso 1 1 calc R U . . .
H77B H 0.399949 0.536190 0.716997 0.081 Uiso 1 1 calc R U . . .
H77C H 0.418377 0.436326 0.726949 0.081 Uiso 1 1 calc R U . . .
C78 C 0.5106(4) 0.2758(4) 0.69427(9) 0.0436(13) Uani 1 1 d . . . . .
H78 H 0.574108 0.298728 0.697910 0.052 Uiso 1 1 calc R U . . .
C79 C 0.4358(4) 0.3387(4) 0.69191(9) 0.0436(13) Uani 1 1 d . . . . .
C80 C 0.3389(4) 0.2992(4) 0.68674(9) 0.0421(13) Uani 1 1 d . . . . .
C81 C 0.3288(4) 0.2011(4) 0.68291(9) 0.0450(13) Uani 1 1 d . . . . .
C82 C 0.4106(4) 0.1416(4) 0.68576(10) 0.0480(14) Uani 1 1 d . . . . .
H82 H 0.403718 0.077107 0.683644 0.058 Uiso 1 1 calc R U . . .
C83 C 0.5001(4) 0.1789(4) 0.69165(10) 0.0462(14) Uani 1 1 d . . . . .
C84 C 0.5869(4) 0.1212(4) 0.69506(10) 0.0487(14) Uani 1 1 d . . . . .
C85 C 0.5936(4) 0.0307(4) 0.68853(12) 0.0592(18) Uani 1 1 d . . . . .
H85 H 0.538226 0.002194 0.681882 0.071 Uiso 1 1 calc R U . . .
C86 C 0.6796(4) -0.0194(5) 0.69152(12) 0.0597(18) Uani 1 1 d . . . . .
H86 H 0.683094 -0.081851 0.687193 0.072 Uiso 1 1 calc R U . . .
C87 C 0.7605(4) 0.0236(4) 0.70094(10) 0.0490(14) Uani 1 1 d . . . . .
C88 C 0.7488(4) 0.1139(4) 0.70718(10) 0.0496(15) Uani 1 1 d . . . . .
H88 H 0.803411 0.143814 0.713786 0.060 Uiso 1 1 calc R U . . .
N89 N 0.6660(3) 0.1620(4) 0.70455(8) 0.0487(12) Uani 1 1 d . . . . .
C90 C 0.8537(4) -0.0249(4) 0.70462(9) 0.0458(13) Uani 1 1 d . . . . .
S91 S 0.86250(10) -0.14021(10) 0.69946(2) 0.0453(3) Uani 1 1 d . . . . .
C92 C 0.9817(4) -0.1420(4) 0.70907(9) 0.0427(13) Uani 1 1 d . . . . .
C93 C 1.0144(4) -0.0569(4) 0.71524(9) 0.0456(13) Uani 1 1 d . . . . .
H93 H 1.078598 -0.044997 0.720752 0.055 Uiso 1 1 calc R U . . .
C94 C 0.9425(4) 0.0102(4) 0.71248(9) 0.0439(13) Uani 1 1 d . . . . .
H94 H 0.952858 0.073434 0.715617 0.053 Uiso 1 1 calc R U . . .
C95 C 1.0331(4) -0.2275(4) 0.71070(9) 0.0436(13) Uani 1 1 d . . . . .
N96 N 0.9981(4) -0.3092(4) 0.70349(8) 0.0538(13) Uani 1 1 d . . . . .
C97 C 1.0561(5) -0.3882(4) 0.71235(10) 0.0556(16) Uani 1 1 d . . . . .
C98 C 1.1544(5) -0.3402(4) 0.71817(10) 0.0517(15) Uani 1 1 d . . . . .
N99 N 1.1208(3) -0.2416(4) 0.72050(8) 0.0492(12) Uani 1 1 d . . . . .
O100 O 1.1758(3) -0.1796(3) 0.72894(8) 0.0612(12) Uani 1 1 d . . . . .
O101 O 0.9164(4) -0.3197(3) 0.69341(8) 0.0722(14) Uani 1 1 d . . . . .
C102 C 0.9986(5) -0.4203(5) 0.73143(11) 0.0650(18) Uani 1 1 d . . . . .
H10A H 0.995830 -0.370156 0.741661 0.098 Uiso 1 1 calc R U . . .
H10B H 1.031625 -0.473621 0.737870 0.098 Uiso 1 1 calc R U . . .
H10C H 0.931832 -0.437560 0.726898 0.098 Uiso 1 1 calc R U . . .
C103 C 1.0609(6) -0.4654(5) 0.69615(12) 0.077(2) Uani 1 1 d . . . . .
H10D H 0.994249 -0.486408 0.692478 0.116 Uiso 1 1 calc R U . . .
H10E H 1.099115 -0.516908 0.702020 0.116 Uiso 1 1 calc R U . . .
H10F H 1.092261 -0.442431 0.683572 0.116 Uiso 1 1 calc R U . . .
C104 C 1.2266(5) -0.3388(6) 0.70030(12) 0.078(2) Uani 1 1 d . . . . .
H10G H 1.192332 -0.319454 0.687336 0.117 Uiso 1 1 calc R U . . .
H10H H 1.253910 -0.400560 0.698445 0.117 Uiso 1 1 calc R U . . .
H10I H 1.279829 -0.295404 0.703666 0.117 Uiso 1 1 calc R U . . .
C105 C 1.2041(5) -0.3722(5) 0.73825(11) 0.0637(18) Uani 1 1 d . . . . .
H10J H 1.263009 -0.335114 0.741082 0.096 Uiso 1 1 calc R U . . .
H10K H 1.222536 -0.437120 0.736913 0.096 Uiso 1 1 calc R U . . .
H10L H 1.158943 -0.365251 0.749810 0.096 Uiso 1 1 calc R U . . .
N106 N 0.0219(3) 0.1722(3) 0.66382(7) 0.0422(11) Uani 1 1 d . . . . .
N107 N -0.0680(3) 0.2149(3) 0.66408(8) 0.0432(11) Uani 1 1 d . . . . .
C108 C -0.1408(4) 0.1533(4) 0.65863(9) 0.0455(13) Uani 1 1 d . . . . .
C109 C -0.0970(4) 0.0697(4) 0.65468(9) 0.0458(13) Uani 1 1 d . . . . .
H109 H -0.128481 0.013798 0.650695 0.055 Uiso 1 1 calc R U . . .
C110 C 0.0052(4) 0.0850(4) 0.65783(9) 0.0439(13) Uani 1 1 d . . . . .
C111 C 0.0853(4) 0.0181(4) 0.65525(9) 0.0434(13) Uani 1 1 d . . . . .
C112 C 0.1726(4) 0.0442(4) 0.64597(9) 0.0456(14) Uani 1 1 d . . . . .
H112 H 0.181067 0.105427 0.641126 0.055 Uiso 1 1 calc R U . . .
C113 C 0.2467(4) -0.0205(5) 0.64392(10) 0.0546(16) Uani 1 1 d . . . . .
H113 H 0.306315 -0.002193 0.637773 0.066 Uiso 1 1 calc R U . . .
C114 C 0.2368(5) -0.1096(5) 0.65045(11) 0.0629(19) Uani 1 1 d D . . . .
C115 C 0.1485(5) -0.1361(5) 0.65933(11) 0.0623(18) Uani 1 1 d . . . . .
H115 H 0.138951 -0.198041 0.663599 0.075 Uiso 1 1 calc R U . . .
C116 C 0.0745(5) -0.0709(5) 0.66188(9) 0.0535(15) Uani 1 1 d . . . . .
H116 H 0.015457 -0.088655 0.668339 0.064 Uiso 1 1 calc R U . . .
C117 C 0.3256(9) -0.1712(9) 0.6457(3) 0.055(4) Uani 0.5 1 d D U P A 1
H117 H 0.364953 -0.143688 0.634299 0.066 Uiso 0.5 1 calc R U P A 1
C118 C 0.389(2) -0.181(3) 0.6662(5) 0.065(7) Uani 0.5 1 d D U P A 1
H11A H 0.411705 -0.119549 0.670739 0.097 Uiso 0.5 1 calc R U P A 1
H11B H 0.445692 -0.220031 0.663650 0.097 Uiso 0.5 1 calc R U P A 1
H11C H 0.349422 -0.208079 0.677141 0.097 Uiso 0.5 1 calc R U P A 1
C119 C 0.2934(8) -0.2691(8) 0.6399(2) 0.051(3) Uani 0.5 1 d D U P A 1
H11D H 0.263588 -0.298170 0.652062 0.076 Uiso 0.5 1 calc R U P A 1
H11E H 0.350565 -0.304993 0.635840 0.076 Uiso 0.5 1 calc R U P A 1
H11F H 0.245297 -0.266852 0.628250 0.076 Uiso 0.5 1 calc R U P A 1
C120 C 0.3069(12) -0.1916(10) 0.6511(3) 0.062(5) Uani 0.5 1 d D U P A 2
H120 H 0.277288 -0.243397 0.659071 0.074 Uiso 0.5 1 calc R U P A 2
C121 C 0.3201(10) -0.2201(12) 0.6286(2) 0.072(4) Uani 0.5 1 d D U P A 2
H12A H 0.256317 -0.236968 0.622276 0.109 Uiso 0.5 1 calc R U P A 2
H12B H 0.364506 -0.273097 0.628189 0.109 Uiso 0.5 1 calc R U P A 2
H12C H 0.348065 -0.168747 0.620835 0.109 Uiso 0.5 1 calc R U P A 2
C122 C 0.403(2) -0.160(3) 0.6622(5) 0.065(6) Uani 0.5 1 d D U P A 2
H12D H 0.430250 -0.108322 0.654488 0.098 Uiso 0.5 1 calc R U P A 2
H12E H 0.449515 -0.211230 0.662573 0.098 Uiso 0.5 1 calc R U P A 2
H12F H 0.388852 -0.140825 0.676479 0.098 Uiso 0.5 1 calc R U P A 2
C123 C -0.2477(4) 0.1797(4) 0.65736(10) 0.0491(14) Uani 1 1 d . . . . .
H12G H -0.265536 0.210426 0.670369 0.074 Uiso 1 1 calc R U . . .
H12H H -0.287837 0.124170 0.655383 0.074 Uiso 1 1 calc R U . . .
H12I H -0.259354 0.221534 0.645520 0.074 Uiso 1 1 calc R U . . .
N124 N 0.0858(3) 0.3574(4) 0.65557(7) 0.0453(11) Uani 1 1 d . . . . .
N125 N -0.0125(3) 0.3778(3) 0.65824(7) 0.0444(11) Uani 1 1 d . . . . .
C126 C -0.0373(4) 0.4509(4) 0.64601(10) 0.0504(15) Uani 1 1 d . . . . .
C127 C 0.0438(5) 0.4785(5) 0.63530(10) 0.0564(16) Uani 1 1 d . . . . .
H127 H 0.048048 0.528286 0.625716 0.068 Uiso 1 1 calc R U . . .
C128 C 0.1192(4) 0.4170(4) 0.64161(9) 0.0444(13) Uani 1 1 d . . . . .
C129 C 0.2201(4) 0.4130(4) 0.63381(8) 0.0539(14) Uani 1 1 d D U . . .
C130 C 0.2739(11) 0.3319(8) 0.6334(3) 0.056(5) Uani 0.5 1 d D U P B 1
H130 H 0.250385 0.274677 0.638479 0.068 Uiso 0.5 1 calc R U P B 1
C131 C 0.3668(12) 0.3434(9) 0.6248(3) 0.049(3) Uani 0.5 1 d D U P B 1
H131 H 0.407179 0.290201 0.624162 0.059 Uiso 0.5 1 calc R U P B 1
C132 C 0.4058(9) 0.4258(10) 0.6172(2) 0.053(3) Uani 0.5 1 d D U P B 1
C133 C 0.3434(10) 0.5007(10) 0.6186(3) 0.055(4) Uani 0.5 1 d D U P B 1
H133 H 0.366348 0.558137 0.613555 0.067 Uiso 0.5 1 calc R U P B 1
C134 C 0.2502(10) 0.4987(7) 0.6267(3) 0.049(3) Uani 0.5 1 d D U P B 1
H134 H 0.209978 0.552005 0.627369 0.059 Uiso 0.5 1 calc R U P B 1
C135 C 0.2735(12) 0.3306(10) 0.6340(3) 0.059(5) Uani 0.5 1 d D U P B 2
H135 H 0.239141 0.280571 0.639991 0.070 Uiso 0.5 1 calc R U P B 2
C136 C 0.3677(12) 0.3064(11) 0.6273(3) 0.060(4) Uani 0.5 1 d D U P B 2
H136 H 0.396972 0.247126 0.628230 0.072 Uiso 0.5 1 calc R U P B 2
C137 C 0.4109(10) 0.3866(10) 0.6188(3) 0.061(4) Uani 0.5 1 d D U P B 2
C138 C 0.3711(11) 0.4768(10) 0.6169(3) 0.059(4) Uani 0.5 1 d D U P B 2
H138 H 0.404331 0.527593 0.610971 0.071 Uiso 0.5 1 calc R U P B 2
C139 C 0.2766(10) 0.4814(9) 0.6249(2) 0.053(4) Uani 0.5 1 d D U P B 2
H139 H 0.246416 0.540263 0.624012 0.064 Uiso 0.5 1 calc R U P B 2
C140 C 0.5106(10) 0.4269(10) 0.6081(2) 0.068(3) Uani 0.5 1 d D U P B 1
H140 H 0.525753 0.489325 0.602455 0.082 Uiso 0.5 1 calc R U P B 1
C141 C 0.5838(9) 0.4024(11) 0.6263(2) 0.069(4) Uani 0.5 1 d D U P B 1
H14A H 0.567338 0.341775 0.631914 0.103 Uiso 0.5 1 calc R U P B 1
H14B H 0.579702 0.448819 0.637330 0.103 Uiso 0.5 1 calc R U P B 1
H14C H 0.650583 0.401067 0.621003 0.103 Uiso 0.5 1 calc R U P B 1
C142 C 0.5118(19) 0.3546(14) 0.5904(3) 0.079(5) Uani 0.5 1 d D U P B 1
H14D H 0.576714 0.353731 0.584250 0.119 Uiso 0.5 1 calc R U P B 1
H14E H 0.462102 0.370579 0.579647 0.119 Uiso 0.5 1 calc R U P B 1
H14F H 0.497260 0.293732 0.596179 0.119 Uiso 0.5 1 calc R U P B 1
C143 C 0.5181(11) 0.3691(12) 0.6105(2) 0.077(4) Uani 0.5 1 d D U P B 2
H143 H 0.541308 0.306093 0.614547 0.093 Uiso 0.5 1 calc R U P B 2
C144 C 0.519(3) 0.380(2) 0.5867(3) 0.136(10) Uani 0.5 1 d D U P B 2
H14G H 0.453705 0.400434 0.581578 0.203 Uiso 0.5 1 calc R U P B 2
H14H H 0.535126 0.321435 0.580232 0.203 Uiso 0.5 1 calc R U P B 2
H14I H 0.567705 0.426681 0.583060 0.203 Uiso 0.5 1 calc R U P B 2
C145 C 0.5886(16) 0.4414(18) 0.6192(5) 0.155(10) Uani 0.5 1 d D U P B 2
H14J H 0.564706 0.502874 0.615249 0.233 Uiso 0.5 1 calc R U P B 2
H14K H 0.653694 0.431720 0.613430 0.233 Uiso 0.5 1 calc R U P B 2
H14L H 0.593027 0.436442 0.634477 0.233 Uiso 0.5 1 calc R U P B 2
C146 C -0.1378(5) 0.4925(5) 0.64536(12) 0.068(2) Uani 1 1 d . . . . .
H14M H -0.140468 0.542464 0.635055 0.101 Uiso 1 1 calc R U . . .
H14N H -0.152638 0.516942 0.659210 0.101 Uiso 1 1 calc R U . . .
H14O H -0.186208 0.445219 0.641383 0.101 Uiso 1 1 calc R U . . .
N147 N 0.0531(3) 0.2905(3) 0.70040(7) 0.0423(11) Uani 1 1 d . . . . .
N148 N -0.0415(3) 0.3176(4) 0.69512(8) 0.0458(12) Uani 1 1 d . . . . .
C149 C -0.0885(4) 0.3412(4) 0.71263(10) 0.0449(13) Uani 1 1 d . . . . .
C150 C -0.0252(4) 0.3293(4) 0.72938(10) 0.0466(14) Uani 1 1 d . . . . .
H150 H -0.038207 0.340302 0.743694 0.056 Uiso 1 1 calc R U . . .
C151 C 0.0631(4) 0.2975(4) 0.72113(9) 0.0460(14) Uani 1 1 d . . . . .
C152 C 0.1575(4) 0.2755(5) 0.73218(9) 0.0520(15) Uani 1 1 d . . . . .
C153 C 0.2088(5) 0.1960(5) 0.72781(11) 0.068(2) Uani 1 1 d . . . . .
H153 H 0.182925 0.153747 0.717737 0.081 Uiso 1 1 calc R U . . .
C154 C 0.2984(6) 0.1774(6) 0.73808(11) 0.080(3) Uani 1 1 d . . . . .
H154 H 0.332451 0.122175 0.734968 0.096 Uiso 1 1 calc R U . . .
C155 C 0.3387(5) 0.2380(6) 0.75275(10) 0.071(2) Uani 1 1 d D U . . .
C156 C 0.2867(5) 0.3172(6) 0.75699(10) 0.066(2) Uani 1 1 d . . . . .
H156 H 0.313096 0.359943 0.766899 0.079 Uiso 1 1 calc R U . . .
C157 C 0.1966(5) 0.3356(5) 0.74708(10) 0.0567(17) Uani 1 1 d . . . . .
H157 H 0.161675 0.389861 0.750559 0.068 Uiso 1 1 calc R U . . .
C158 C 0.4223(19) 0.191(2) 0.7651(3) 0.077(7) Uani 0.31(3) 1 d D U P C 2
H158 H 0.412590 0.122956 0.766184 0.092 Uiso 0.31(3) 1 calc R U P C 2
C159 C 0.505(2) 0.216(4) 0.7512(3) 0.108(13) Uani 0.31(3) 1 d D U P C 2
H15A H 0.501956 0.176622 0.738644 0.162 Uiso 0.31(3) 1 calc R U P C 2
H15B H 0.567623 0.205569 0.758749 0.162 Uiso 0.31(3) 1 calc R U P C 2
H15C H 0.499380 0.280350 0.747071 0.162 Uiso 0.31(3) 1 calc R U P C 2
C160 C 0.4426(7) 0.2262(13) 0.76281(17) 0.071(4) Uani 0.69(3) 1 d D U P C 1
H160 H 0.464249 0.161814 0.759861 0.085 Uiso 0.69(3) 1 calc R U P C 1
C161 C 0.5231(9) 0.291(2) 0.7551(3) 0.106(7) Uani 0.69(3) 1 d D U P C 1
H16A H 0.540723 0.273656 0.740841 0.159 Uiso 0.69(3) 1 calc R U P C 1
H16B H 0.581182 0.286826 0.764417 0.159 Uiso 0.69(3) 1 calc R U P C 1
H16C H 0.498716 0.354758 0.754982 0.159 Uiso 0.69(3) 1 calc R U P C 1
C162 C 0.4389(6) 0.2363(6) 0.78635(11) 0.075(2) Uani 1 1 d D U . . .
H16G H 0.465170 0.298515 0.784450 0.113 Uiso 0.31(3) 1 calc R U P C 2
H16H H 0.485836 0.199715 0.794763 0.113 Uiso 0.31(3) 1 calc R U P C 2
H16I H 0.376541 0.239965 0.793545 0.113 Uiso 0.31(3) 1 calc R U P C 2
H16D H 0.421850 0.299939 0.789851 0.113 Uiso 0.69(3) 1 calc R U P C 1
H16E H 0.503254 0.221171 0.792685 0.113 Uiso 0.69(3) 1 calc R U P C 1
H16F H 0.389325 0.194452 0.791759 0.113 Uiso 0.69(3) 1 calc R U P C 1
C163 C -0.1931(4) 0.3755(5) 0.71251(11) 0.0555(16) Uani 1 1 d . . . . .
H16J H -0.198199 0.432498 0.704350 0.083 Uiso 1 1 calc R U . . .
H16K H -0.212482 0.387359 0.726910 0.083 Uiso 1 1 calc R U . . .
H16L H -0.236573 0.328741 0.706180 0.083 Uiso 1 1 calc R U . . .
B180 B -0.0763(5) 0.3155(5) 0.67177(11) 0.0466(16) Uani 1 1 d . . . . .
H180 H -0.146279 0.335917 0.670532 0.056 Uiso 1 1 calc R U . . .
O164 O 0.2722(17) -0.0270(16) 0.7052(4) 0.122(11) Uani 0.325(19) 1 d . . . . .
O165 O 0.7239(15) 0.5569(16) 0.5680(3) 0.072(9) Uani 0.228(15) 1 d . . . . .
loop_
_atom_site_aniso_label
_atom_site_aniso_U_11
_atom_site_aniso_U_22
_atom_site_aniso_U_33
_atom_site_aniso_U_23
_atom_site_aniso_U_13
_atom_site_aniso_U_12
Zn1 0.0283(3) 0.0382(4) 0.0488(4) 0.0008(3) -0.0009(3) -0.0022(3)
O2 0.0330(19) 0.040(2) 0.056(2) -0.0084(18) 0.0016(17) 0.0000(16)
O3 0.0282(18) 0.035(2) 0.056(2) 0.0035(17) -0.0024(16) -0.0045(15)
C4 0.031(3) 0.035(3) 0.059(3) -0.002(3) 0.007(2) -0.004(2)
C5 0.044(3) 0.048(4) 0.081(5) -0.013(3) 0.015(3) -0.005(3)
C6 0.047(3) 0.044(3) 0.055(4) -0.008(3) -0.005(3) 0.004(3)
C7 0.040(3) 0.040(3) 0.080(5) 0.004(3) -0.003(3) -0.001(3)
C8 0.030(3) 0.040(3) 0.052(3) -0.002(2) 0.001(2) 0.001(2)
C9 0.028(2) 0.030(3) 0.050(3) 0.000(2) -0.003(2) 0.005(2)
C10 0.031(3) 0.030(3) 0.046(3) 0.004(2) -0.001(2) -0.001(2)
C11 0.027(2) 0.039(3) 0.049(3) -0.001(2) -0.001(2) 0.000(2)
C12 0.032(3) 0.035(3) 0.052(3) -0.003(2) -0.001(2) -0.003(2)
C13 0.029(2) 0.034(3) 0.051(3) 0.005(2) -0.003(2) -0.002(2)
C14 0.025(2) 0.040(3) 0.053(3) 0.002(2) 0.000(2) 0.003(2)
C15 0.029(3) 0.041(3) 0.070(4) -0.008(3) 0.003(3) 0.003(2)
C16 0.035(3) 0.040(3) 0.068(4) -0.011(3) 0.004(3) -0.002(2)
C17 0.027(2) 0.036(3) 0.051(3) 0.001(2) -0.003(2) -0.001(2)
C18 0.030(3) 0.039(3) 0.074(4) -0.005(3) -0.001(3) 0.000(2)
N19 0.032(2) 0.035(3) 0.071(3) -0.005(2) 0.001(2) 0.005(2)
C20 0.031(3) 0.033(3) 0.050(3) 0.000(2) -0.003(2) -0.003(2)
S21 0.0314(6) 0.0326(7) 0.0570(8) -0.0008(6) 0.0025(6) -0.0038(5)
C22 0.030(3) 0.042(3) 0.052(3) 0.002(3) 0.000(2) -0.003(2)
C23 0.030(3) 0.036(3) 0.063(4) 0.004(3) 0.001(2) 0.001(2)
C24 0.039(3) 0.031(3) 0.058(3) 0.002(2) 0.003(2) 0.003(2)
C25 0.028(2) 0.035(3) 0.055(3) 0.001(2) 0.004(2) -0.002(2)
N26 0.035(2) 0.038(3) 0.057(3) -0.002(2) 0.005(2) -0.002(2)
C27 0.044(3) 0.038(3) 0.050(3) -0.002(2) -0.001(3) -0.010(2)
C28 0.043(3) 0.044(3) 0.057(4) 0.001(3) 0.000(3) -0.012(3)
N29 0.037(2) 0.035(3) 0.066(3) 0.000(2) 0.006(2) -0.004(2)
O30 0.036(2) 0.042(2) 0.098(3) 0.003(2) 0.018(2) 0.0032(18)
O31 0.040(2) 0.040(2) 0.077(3) -0.004(2) 0.013(2) 0.0037(18)
C32 0.053(4) 0.051(4) 0.059(4) 0.003(3) -0.004(3) -0.004(3)
C33 0.066(4) 0.040(3) 0.062(4) 0.004(3) 0.002(3) -0.012(3)
C34 0.050(3) 0.045(4) 0.066(4) 0.001(3) 0.004(3) -0.011(3)
C35 0.049(3) 0.055(4) 0.064(4) 0.010(3) -0.004(3) -0.014(3)
N36 0.036(2) 0.037(3) 0.045(3) -0.001(2) -0.0022(19) -0.0020(19)
N37 0.026(2) 0.037(2) 0.049(3) 0.001(2) 0.0011(18) 0.0015(18)
C38 0.034(3) 0.054(4) 0.040(3) 0.003(3) -0.003(2) 0.008(3)
C39 0.038(3) 0.045(3) 0.043(3) -0.003(2) -0.001(2) 0.011(2)
C40 0.042(3) 0.035(3) 0.037(3) 0.004(2) -0.001(2) 0.006(2)
C41 0.047(3) 0.036(3) 0.038(3) -0.002(2) -0.002(2) 0.008(2)
C42 0.050(3) 0.032(3) 0.045(3) 0.001(2) -0.004(3) 0.002(2)
C43 0.042(3) 0.037(3) 0.052(3) 0.003(3) -0.002(3) 0.004(2)
C44 0.051(3) 0.040(3) 0.045(3) -0.001(2) 0.002(3) -0.002(3)
C45 0.067(4) 0.029(3) 0.051(3) 0.003(2) 0.001(3) 0.010(3)
C46 0.048(3) 0.042(3) 0.049(3) 0.001(3) -0.002(3) 0.004(3)
C47 0.062(4) 0.037(3) 0.081(5) -0.003(3) 0.011(4) -0.003(3)
C48 0.095(6) 0.056(5) 0.129(8) -0.006(5) 0.046(6) -0.024(4)
C49 0.053(4) 0.050(4) 0.113(6) -0.021(4) -0.005(4) -0.002(3)
C50 0.035(3) 0.059(4) 0.054(4) 0.001(3) 0.004(3) 0.006(3)
N51 0.030(2) 0.038(3) 0.048(3) 0.002(2) 0.0001(19) -0.0005(19)
N52 0.028(2) 0.043(3) 0.045(3) 0.003(2) 0.0027(18) -0.0015(19)
C53 0.039(3) 0.050(3) 0.041(3) 0.002(3) 0.004(2) 0.000(3)
C54 0.036(3) 0.038(3) 0.050(3) 0.005(2) 0.004(2) 0.003(2)
C55 0.038(3) 0.042(3) 0.040(3) -0.001(2) -0.001(2) 0.001(2)
C56 0.036(3) 0.043(3) 0.043(3) 0.004(2) -0.002(2) -0.004(2)
C57 0.040(3) 0.046(3) 0.054(3) 0.001(3) -0.005(3) 0.003(3)
C58 0.031(3) 0.055(4) 0.069(4) 0.007(3) -0.009(3) -0.010(3)
C59 0.031(3) 0.061(4) 0.057(4) 0.011(3) -0.004(3) 0.000(3)
C60 0.040(3) 0.048(4) 0.061(4) 0.006(3) 0.001(3) 0.007(3)
C61 0.033(3) 0.046(3) 0.056(3) 0.007(3) 0.000(2) 0.002(2)
C62 0.031(3) 0.076(5) 0.079(5) 0.018(4) -0.007(3) 0.003(3)
C63 0.037(4) 0.214(13) 0.085(6) 0.036(7) 0.000(4) 0.021(6)
C64 0.040(4) 0.065(5) 0.126(7) 0.012(5) -0.016(4) 0.007(3)
C65 0.037(3) 0.048(4) 0.060(4) 0.011(3) 0.007(3) -0.005(3)
B66 0.026(3) 0.039(3) 0.051(4) -0.002(3) 0.000(3) 0.000(2)
N165 0.026(2) 0.033(2) 0.051(3) -0.001(2) 0.0067(18) 0.0008(18)
N166 0.025(2) 0.035(2) 0.049(3) 0.0017(19) -0.0022(18) -0.0044(18)
C167 0.030(3) 0.039(3) 0.045(3) -0.005(2) 0.000(2) 0.007(2)
C168 0.035(3) 0.030(3) 0.043(3) -0.003(2) -0.003(2) -0.002(2)
C169 0.028(2) 0.030(3) 0.047(3) -0.002(2) -0.001(2) 0.004(2)
C170 0.028(2) 0.029(3) 0.049(3) 0.004(2) 0.001(2) 0.001(2)
C171 0.034(3) 0.041(3) 0.050(3) 0.001(2) 0.002(2) -0.002(2)
C172 0.037(3) 0.045(3) 0.045(3) 0.002(2) 0.003(2) 0.003(2)
C173 0.030(3) 0.026(3) 0.064(4) 0.008(2) 0.000(2) 0.004(2)
C174 0.032(3) 0.031(3) 0.054(3) 0.003(2) -0.004(2) -0.003(2)
C175 0.035(3) 0.034(3) 0.050(3) 0.002(2) -0.004(2) 0.003(2)
C176 0.038(3) 0.042(3) 0.065(4) 0.012(3) 0.002(3) 0.000(3)
C177 0.049(4) 0.068(5) 0.072(4) 0.016(4) 0.014(3) -0.012(3)
C178 0.033(3) 0.057(4) 0.087(5) 0.016(4) 0.007(3) 0.002(3)
C179 0.034(3) 0.048(3) 0.054(3) 0.001(3) 0.002(2) -0.008(2)
Zn71 0.0259(3) 0.0485(4) 0.0488(4) -0.0053(3) -0.0024(3) 0.0106(3)
O72 0.0258(18) 0.049(2) 0.068(3) -0.013(2) -0.0087(17) 0.0036(16)
O73 0.0298(18) 0.052(2) 0.053(2) -0.0062(18) -0.0057(16) 0.0153(17)
C74 0.033(3) 0.043(3) 0.061(4) 0.000(3) -0.004(3) 0.000(2)
C75 0.033(3) 0.044(4) 0.095(5) -0.003(3) -0.007(3) 0.002(3)
C76 0.051(4) 0.050(4) 0.068(4) 0.001(3) -0.007(3) 0.007(3)
C77 0.043(3) 0.052(4) 0.066(4) -0.008(3) -0.012(3) 0.013(3)
C78 0.028(3) 0.047(3) 0.055(3) -0.004(3) -0.004(2) 0.002(2)
C79 0.034(3) 0.050(4) 0.046(3) -0.003(3) -0.003(2) 0.005(2)
C80 0.030(3) 0.049(3) 0.047(3) -0.003(3) -0.004(2) 0.009(2)
C81 0.032(3) 0.049(3) 0.054(3) -0.008(3) -0.002(2) 0.010(2)
C82 0.033(3) 0.043(3) 0.068(4) -0.007(3) -0.002(3) 0.010(3)
C83 0.033(3) 0.049(4) 0.056(4) -0.004(3) -0.004(2) 0.011(3)
C84 0.032(3) 0.053(4) 0.060(4) 0.001(3) -0.004(3) 0.007(3)
C85 0.027(3) 0.044(4) 0.106(6) 0.003(4) -0.008(3) 0.002(3)
C86 0.032(3) 0.044(4) 0.104(6) -0.007(3) -0.002(3) 0.008(3)
C87 0.036(3) 0.053(4) 0.058(4) 0.006(3) -0.003(3) 0.006(3)
C88 0.036(3) 0.052(4) 0.060(4) -0.008(3) -0.007(3) 0.013(3)
N89 0.035(2) 0.058(3) 0.053(3) -0.004(2) -0.005(2) 0.016(2)
C90 0.037(3) 0.050(4) 0.050(3) 0.004(3) -0.004(2) 0.005(3)
S91 0.0334(7) 0.0467(8) 0.0555(8) -0.0002(7) -0.0031(6) 0.0078(6)
C92 0.030(3) 0.051(3) 0.047(3) 0.000(3) -0.001(2) 0.014(2)
C93 0.034(3) 0.046(3) 0.056(4) 0.001(3) -0.004(2) 0.003(2)
C94 0.038(3) 0.044(3) 0.050(3) 0.002(3) -0.003(2) 0.009(2)
C95 0.036(3) 0.047(3) 0.047(3) -0.001(3) -0.003(2) 0.010(3)
N96 0.052(3) 0.050(3) 0.058(3) -0.008(2) -0.012(3) 0.015(2)
C97 0.064(4) 0.045(4) 0.057(4) 0.000(3) -0.008(3) 0.019(3)
C98 0.053(3) 0.047(4) 0.056(4) 0.005(3) 0.001(3) 0.018(3)
N99 0.037(2) 0.052(3) 0.059(3) 0.000(2) -0.003(2) 0.015(2)
O100 0.036(2) 0.062(3) 0.084(3) 0.000(2) -0.009(2) 0.004(2)
O101 0.069(3) 0.062(3) 0.084(3) -0.014(3) -0.032(3) 0.015(2)
C102 0.067(4) 0.056(4) 0.072(5) 0.003(3) -0.001(4) 0.001(3)
C103 0.104(6) 0.060(5) 0.068(5) -0.010(4) -0.011(4) 0.030(4)
C104 0.070(5) 0.090(6) 0.075(5) 0.023(4) 0.022(4) 0.050(4)
C105 0.062(4) 0.065(5) 0.064(4) 0.007(3) -0.005(3) 0.019(4)
N106 0.028(2) 0.047(3) 0.052(3) -0.004(2) -0.0004(19) 0.010(2)
N107 0.028(2) 0.046(3) 0.056(3) -0.005(2) -0.002(2) 0.006(2)
C108 0.033(3) 0.053(4) 0.050(3) -0.004(3) 0.002(2) -0.001(3)
C109 0.034(3) 0.049(4) 0.054(3) -0.001(3) -0.001(2) -0.002(3)
C110 0.037(3) 0.046(3) 0.048(3) -0.002(3) -0.002(2) 0.005(2)
C111 0.036(3) 0.050(4) 0.044(3) -0.006(3) -0.007(2) 0.012(3)
C112 0.031(3) 0.054(4) 0.051(3) -0.010(3) -0.005(2) 0.008(3)
C113 0.039(3) 0.057(4) 0.067(4) -0.016(3) -0.007(3) 0.008(3)
C114 0.053(4) 0.062(5) 0.072(5) -0.013(4) -0.024(3) 0.022(3)
C115 0.075(5) 0.051(4) 0.060(4) 0.005(3) -0.013(3) 0.020(4)
C116 0.060(4) 0.056(4) 0.044(3) 0.005(3) -0.002(3) 0.014(3)
C117 0.049(7) 0.046(7) 0.069(9) 0.015(7) -0.005(6) 0.008(6)
C118 0.048(11) 0.053(14) 0.092(13) -0.003(10) -0.025(10) 0.014(8)
C119 0.038(6) 0.061(7) 0.055(7) -0.002(6) 0.007(5) 0.003(5)
C120 0.058(8) 0.049(8) 0.078(8) 0.016(7) -0.014(7) 0.016(7)
C121 0.045(7) 0.085(10) 0.086(8) -0.008(8) -0.002(7) 0.020(7)
C122 0.042(9) 0.068(17) 0.086(12) -0.001(10) -0.007(9) 0.027(8)
C123 0.033(3) 0.053(4) 0.061(4) -0.004(3) 0.003(3) 0.000(3)
N124 0.032(2) 0.054(3) 0.050(3) -0.008(2) -0.004(2) 0.013(2)
N125 0.031(2) 0.050(3) 0.052(3) -0.004(2) -0.010(2) 0.012(2)
C126 0.048(3) 0.047(4) 0.056(4) -0.003(3) -0.013(3) 0.014(3)
C127 0.059(4) 0.052(4) 0.057(4) 0.005(3) -0.015(3) 0.006(3)
C128 0.040(3) 0.048(3) 0.044(3) -0.003(3) -0.007(2) -0.001(3)
C129 0.042(3) 0.074(4) 0.045(3) -0.003(3) -0.005(3) -0.008(2)
C130 0.039(8) 0.072(8) 0.059(13) -0.006(10) 0.009(9) -0.007(7)
C131 0.043(6) 0.049(8) 0.057(8) -0.002(7) 0.013(5) -0.007(6)
C132 0.052(6) 0.056(9) 0.052(7) 0.003(7) 0.013(5) -0.015(6)
C133 0.036(8) 0.084(8) 0.047(7) 0.003(7) 0.010(6) 0.000(6)
C134 0.028(7) 0.074(6) 0.046(7) 0.001(6) 0.001(5) 0.000(5)
C135 0.045(9) 0.073(8) 0.058(13) -0.010(10) 0.003(9) -0.005(7)
C136 0.045(6) 0.073(9) 0.061(8) 0.006(9) 0.008(6) -0.010(6)
C137 0.052(6) 0.066(9) 0.066(8) -0.006(8) 0.008(6) -0.013(6)
C138 0.035(8) 0.087(9) 0.056(8) 0.001(8) 0.003(7) -0.006(6)
C139 0.025(7) 0.077(7) 0.058(9) 0.001(7) -0.002(6) -0.007(5)
C140 0.060(6) 0.041(7) 0.106(9) -0.005(7) 0.026(6) -0.011(6)
C141 0.028(6) 0.049(9) 0.131(11) -0.025(8) 0.029(6) -0.011(6)
C142 0.069(11) 0.074(11) 0.097(12) -0.001(9) 0.037(9) 0.006(9)
C143 0.067(7) 0.064(9) 0.103(9) 0.007(8) 0.037(7) -0.013(7)
C144 0.128(17) 0.17(2) 0.109(10) 0.056(12) 0.062(10) 0.051(15)
C145 0.086(12) 0.135(18) 0.247(19) -0.047(15) 0.045(13) -0.052(12)
C146 0.051(4) 0.063(5) 0.087(5) 0.005(4) -0.017(4) 0.023(3)
N147 0.031(2) 0.046(3) 0.050(3) -0.003(2) -0.002(2) 0.008(2)
N148 0.027(2) 0.057(3) 0.053(3) -0.009(2) 0.000(2) 0.010(2)
C149 0.038(3) 0.038(3) 0.059(4) -0.007(3) 0.006(3) 0.002(2)
C150 0.042(3) 0.047(3) 0.052(3) -0.005(3) 0.006(3) 0.003(3)
C151 0.043(3) 0.044(3) 0.052(3) -0.002(3) 0.005(3) 0.010(3)
C152 0.049(3) 0.063(4) 0.044(3) 0.003(3) 0.001(3) 0.023(3)
C153 0.077(5) 0.068(5) 0.059(4) -0.005(3) -0.005(4) 0.038(4)
C154 0.087(5) 0.092(6) 0.059(4) -0.006(4) -0.008(4) 0.056(5)
C155 0.069(4) 0.097(6) 0.046(4) 0.001(4) -0.004(3) 0.046(4)
C156 0.057(4) 0.089(5) 0.050(4) -0.004(4) -0.007(3) 0.029(4)
C157 0.055(4) 0.068(4) 0.047(3) -0.003(3) -0.003(3) 0.025(3)
C158 0.077(11) 0.114(17) 0.040(9) 0.022(8) 0.006(8) 0.052(12)
C159 0.056(12) 0.18(3) 0.083(13) 0.057(19) 0.008(12) 0.062(18)
C160 0.059(5) 0.095(9) 0.057(5) 0.013(6) -0.001(5) 0.037(6)
C161 0.054(6) 0.169(19) 0.094(10) 0.057(11) -0.014(6) 0.022(8)
C162 0.073(5) 0.087(6) 0.065(4) 0.006(4) -0.013(4) 0.025(4)
C163 0.032(3) 0.059(4) 0.075(4) -0.019(3) 0.003(3) 0.006(3)
B180 0.028(3) 0.057(4) 0.055(4) -0.009(3) -0.001(3) 0.012(3)
O164 0.14(2) 0.113(19) 0.116(18) -0.006(14) 0.013(14) -0.051(15)
O165 0.067(15) 0.088(18) 0.061(14) -0.013(11) -0.019(10) 0.020(12)
loop_
_atom_type_symbol
_atom_type_description
_atom_type_scat_dispersion_real
_atom_type_scat_dispersion_imag
_atom_type_scat_source
C C 0.0181 0.0091 'International Tables Vol C Tables 4.2.6.8 and 6.1.1.4'
H H 0.0000 0.0000 'International Tables Vol C Tables 4.2.6.8 and 6.1.1.4'
B B 0.0090 0.0039 'International Tables Vol C Tables 4.2.6.8 and 6.1.1.4'
N N 0.0311 0.0180 'International Tables Vol C Tables 4.2.6.8 and 6.1.1.4'
O O 0.0492 0.0322 'International Tables Vol C Tables 4.2.6.8 and 6.1.1.4'
S S 0.3331 0.5567 'International Tables Vol C Tables 4.2.6.8 and 6.1.1.4'
Zn Zn -1.5491 0.6778 'International Tables Vol C Tables 4.2.6.8 and 6.1.1.4'
loop_
_geom_angle_atom_site_label_1
_geom_angle_atom_site_label_2
_geom_angle_atom_site_label_3
_geom_angle
O2 Zn1 N165 131.72(17)
O2 Zn1 N51 128.77(17)
N165 Zn1 N51 98.82(18)
O2 Zn1 O3 79.52(14)
N165 Zn1 O3 90.89(15)
N51 Zn1 O3 94.00(16)
O2 Zn1 N36 100.47(16)
N165 Zn1 N36 85.98(16)
N51 Zn1 N36 89.28(17)
O3 Zn1 N36 175.78(16)
C11 O2 Zn1 116.2(3)
C10 O3 Zn1 109.5(3)
C7 C4 C9 109.1(5)
C7 C4 C6 110.5(5)
C9 C4 C6 109.7(4)
C7 C4 C5 107.8(5)
C9 C4 C5 111.1(4)
C6 C4 C5 108.6(5)
C4 C5 H5A 109.5
C4 C5 H5B 109.5
H5A C5 H5B 109.5
C4 C5 H5C 109.5
H5A C5 H5C 109.5
H5B C5 H5C 109.5
C4 C6 H6A 109.5
C4 C6 H6B 109.5
H6A C6 H6B 109.5
C4 C6 H6C 109.5
H6A C6 H6C 109.5
H6B C6 H6C 109.5
C4 C7 H7A 109.5
C4 C7 H7B 109.5
H7A C7 H7B 109.5
C4 C7 H7C 109.5
H7A C7 H7C 109.5
H7B C7 H7C 109.5
C9 C8 C13 123.8(5)
C9 C8 H8 118.1
C13 C8 H8 118.1
C8 C9 C10 117.4(5)
C8 C9 C4 122.9(5)
C10 C9 C4 119.7(4)
O3 C10 C9 124.1(5)
O3 C10 C11 117.3(5)
C9 C10 C11 118.6(4)
O2 C11 C12 122.9(5)
O2 C11 C10 117.4(4)
C12 C11 C10 119.7(5)
C13 C12 C11 120.5(5)
C13 C12 H12 119.8
C11 C12 H12 119.8
C12 C13 C8 120.0(5)
C12 C13 C14 121.7(5)
C8 C13 C14 118.3(5)
N19 C14 C15 121.2(5)
N19 C14 C13 116.1(5)
C15 C14 C13 122.7(5)
C16 C15 C14 120.1(5)
C16 C15 H15 119.9
C14 C15 H15 119.9
C15 C16 C17 119.7(5)
C15 C16 H16 120.2
C17 C16 H16 120.2
C16 C17 C18 116.6(5)
C16 C17 C20 122.6(5)
C18 C17 C20 120.6(5)
N19 C18 C17 124.5(5)
N19 C18 H18 117.8
C17 C18 H18 117.8
C18 N19 C14 117.9(5)
C24 C20 C17 128.7(5)
C24 C20 S21 111.6(4)
C17 C20 S21 119.7(4)
C20 S21 C22 90.8(3)
C23 C22 C25 127.4(5)
C23 C22 S21 112.0(4)
C25 C22 S21 120.2(4)
C24 C23 C22 112.6(5)
C24 C23 H23 123.7
C22 C23 H23 123.7
C23 C24 C20 112.9(5)
C23 C24 H24 123.5
C20 C24 H24 123.5
N29 C25 N26 109.2(5)
N29 C25 C22 126.2(5)
N26 C25 C22 124.4(5)
O31 N26 C25 125.1(5)
O31 N26 C27 122.5(5)
C25 N26 C27 111.2(4)
N26 C27 C32 106.0(5)
N26 C27 C33 109.8(5)
C32 C27 C33 111.8(5)
N26 C27 C28 99.0(4)
C32 C27 C28 114.3(5)
C33 C27 C28 114.7(5)
N29 C28 C34 109.1(5)
N29 C28 C35 105.6(5)
C34 C28 C35 111.8(5)
N29 C28 C27 101.3(4)
C34 C28 C27 114.0(5)
C35 C28 C27 114.0(5)
O30 N29 C25 126.9(5)
O30 N29 C28 122.0(4)
C25 N29 C28 110.6(5)
C27 C32 H32A 109.5
C27 C32 H32B 109.5
H32A C32 H32B 109.5
C27 C32 H32C 109.5
H32A C32 H32C 109.5
H32B C32 H32C 109.5
C27 C33 H33A 109.5
C27 C33 H33B 109.5
H33A C33 H33B 109.5
C27 C33 H33C 109.5
H33A C33 H33C 109.5
H33B C33 H33C 109.5
C28 C34 H34A 109.5
C28 C34 H34B 109.5
H34A C34 H34B 109.5
C28 C34 H34C 109.5
H34A C34 H34C 109.5
H34B C34 H34C 109.5
C28 C35 H35A 109.5
C28 C35 H35B 109.5
H35A C35 H35B 109.5
C28 C35 H35C 109.5
H35A C35 H35C 109.5
H35B C35 H35C 109.5
C40 N36 N37 106.4(4)
C40 N36 Zn1 140.2(4)
N37 N36 Zn1 109.6(3)
C38 N37 N36 109.9(4)
C38 N37 B66 128.2(4)
N36 N37 B66 121.2(4)
N37 C38 C39 108.3(5)
N37 C38 C50 122.2(5)
C39 C38 C50 129.5(5)
C38 C39 C40 105.4(5)
C38 C39 H39 127.3
C40 C39 H39 127.3
N36 C40 C39 110.0(5)
N36 C40 C41 122.7(5)
C39 C40 C41 127.3(5)
C46 C41 C42 117.9(5)
C46 C41 C40 120.2(5)
C42 C41 C40 121.9(5)
C43 C42 C41 120.5(5)
C43 C42 H42 119.8
C41 C42 H42 119.7
C42 C43 C44 122.5(5)
C42 C43 H43 118.8
C44 C43 H43 118.8
C43 C44 C45 116.8(5)
C43 C44 C47 122.0(6)
C45 C44 C47 121.2(6)
C46 C45 C44 121.3(5)
C46 C45 H45 119.3
C44 C45 H45 119.3
C45 C46 C41 120.9(5)
C45 C46 H46 119.5
C41 C46 H46 119.5
C44 C47 C49 113.0(6)
C44 C47 C48 110.1(6)
C49 C47 C48 110.3(7)
C44 C47 H47 107.8
C49 C47 H47 107.8
C48 C47 H47 107.8
C47 C48 H48A 109.5
C47 C48 H48B 109.5
H48A C48 H48B 109.5
C47 C48 H48C 109.5
H48A C48 H48C 109.5
H48B C48 H48C 109.5
C47 C49 H49A 109.5
C47 C49 H49B 109.5
H49A C49 H49B 109.5
C47 C49 H49C 109.5
H49A C49 H49C 109.5
H49B C49 H49C 109.5
C38 C50 H50A 109.5
C38 C50 H50B 109.5
H50A C50 H50B 109.5
C38 C50 H50C 109.5
H50A C50 H50C 109.5
H50B C50 H50C 109.5
C55 N51 N52 107.5(4)
C55 N51 Zn1 139.4(4)
N52 N51 Zn1 113.0(3)
C53 N52 N51 108.7(4)
C53 N52 B66 129.9(4)
N51 N52 B66 121.4(4)
N52 C53 C54 108.5(5)
N52 C53 C65 122.7(5)
C54 C53 C65 128.7(5)
C53 C54 C55 105.5(5)
C53 C54 H54 127.2
C55 C54 H54 127.2
N51 C55 C54 109.7(5)
N51 C55 C56 123.3(5)
C54 C55 C56 126.9(5)
C57 C56 C61 117.5(5)
C57 C56 C55 123.3(5)
C61 C56 C55 119.2(5)
C56 C57 C58 120.0(6)
C56 C57 H57 120.0
C58 C57 H57 120.0
C59 C58 C57 123.1(6)
C59 C58 H58 118.4
C57 C58 H58 118.4
C58 C59 C60 117.0(5)
C58 C59 C62 121.7(6)
C60 C59 C62 121.3(6)
C59 C60 C61 120.9(6)
C59 C60 H60 119.6
C61 C60 H60 119.6
C56 C61 C60 121.5(6)
C56 C61 H61 119.2
C60 C61 H61 119.2
C63 C62 C64 112.0(7)
C63 C62 C59 110.5(5)
C64 C62 C59 113.5(6)
C63 C62 H62 106.8
C64 C62 H62 106.8
C59 C62 H62 106.8
C62 C63 H63A 109.5
C62 C63 H63B 109.5
H63A C63 H63B 109.5
C62 C63 H63C 109.5
H63A C63 H63C 109.5
H63B C63 H63C 109.5
C62 C64 H64A 109.5
C62 C64 H64B 109.5
H64A C64 H64B 109.5
C62 C64 H64C 109.5
H64A C64 H64C 109.5
H64B C64 H64C 109.5
C53 C65 H65A 109.5
C53 C65 H65B 109.5
H65A C65 H65B 109.5
C53 C65 H65C 109.5
H65A C65 H65C 109.5
H65B C65 H65C 109.5
N37 B66 N166 107.3(5)
N37 B66 N52 109.8(4)
N166 B66 N52 110.9(4)
N37 B66 H66 109.6
N166 B66 H66 109.6
N52 B66 H66 109.6
C169 N165 N166 107.8(4)
C169 N165 Zn1 136.6(3)
N166 N165 Zn1 113.8(3)
C167 N166 N165 109.0(4)
C167 N166 B66 131.6(4)
N165 N166 B66 119.0(4)
N166 C167 C168 108.6(5)
N166 C167 C179 122.5(5)
C168 C167 C179 128.8(5)
C167 C168 C169 105.2(5)
C167 C168 H168 127.4
C169 C168 H168 127.4
N165 C169 C168 109.4(5)
N165 C169 C170 122.0(4)
C168 C169 C170 128.6(5)
C171 C170 C175 118.1(5)
C171 C170 C169 121.3(5)
C175 C170 C169 120.5(5)
C170 C171 C172 121.4(5)
C170 C171 H171 119.3
C172 C171 H171 119.3
C171 C172 C173 121.0(5)
C171 C172 H172 119.5
C173 C172 H172 119.5
C174 C173 C172 116.8(5)
C174 C173 C176 119.7(5)
C172 C173 C176 123.5(5)
C173 C174 C175 122.9(5)
C173 C174 H174 118.5
C175 C174 H174 118.5
C174 C175 C170 119.6(5)
C174 C175 H175 120.2
C170 C175 H175 120.2
C173 C176 C177 114.1(5)
C173 C176 C178 109.4(5)
C177 C176 C178 110.0(5)
C173 C176 H176 107.7
C177 C176 H176 107.7
C178 C176 H176 107.7
C176 C177 H17A 109.5
C176 C177 H17B 109.5
H17A C177 H17B 109.5
C176 C177 H17C 109.5
H17A C177 H17C 109.5
H17B C177 H17C 109.5
C176 C178 H17D 109.5
C176 C178 H17E 109.5
H17D C178 H17E 109.5
C176 C178 H17F 109.5
H17D C178 H17F 109.5
H17E C178 H17F 109.5
C167 C179 H17G 109.5
C167 C179 H17H 109.5
H17G C179 H17H 109.5
C167 C179 H17I 109.5
H17G C179 H17I 109.5
H17H C179 H17I 109.5
O72 Zn71 N147 122.27(19)
O72 Zn71 N124 138.82(19)
N147 Zn71 N124 98.74(18)
O72 Zn71 O73 79.96(14)
N147 Zn71 O73 97.44(17)
N124 Zn71 O73 92.11(18)
O72 Zn71 N106 97.64(16)
N147 Zn71 N106 88.25(18)
N124 Zn71 N106 86.30(19)
O73 Zn71 N106 174.27(16)
C81 O72 Zn71 114.6(4)
C80 O73 Zn71 110.1(4)
C79 C74 C75 111.3(5)
C79 C74 C77 108.4(5)
C75 C74 C77 108.1(5)
C79 C74 C76 109.9(5)
C75 C74 C76 108.5(5)
C77 C74 C76 110.6(5)
C74 C75 H75A 109.5
C74 C75 H75B 109.5
H75A C75 H75B 109.5
C74 C75 H75C 109.5
H75A C75 H75C 109.5
H75B C75 H75C 109.5
C74 C76 H76A 109.5
C74 C76 H76B 109.5
H76A C76 H76B 109.5
C74 C76 H76C 109.5
H76A C76 H76C 109.5
H76B C76 H76C 109.5
C74 C77 H77A 109.5
C74 C77 H77B 109.5
H77A C77 H77B 109.5
C74 C77 H77C 109.5
H77A C77 H77C 109.5
H77B C77 H77C 109.5
C79 C78 C83 124.9(5)
C79 C78 H78 117.6
C83 C78 H78 117.6
C78 C79 C80 115.2(5)
C78 C79 C74 123.4(5)
C80 C79 C74 121.3(5)
O73 C80 C81 116.7(5)
O73 C80 C79 123.2(5)
C81 C80 C79 120.1(5)
O72 C81 C82 121.0(5)
O72 C81 C80 118.5(5)
C82 C81 C80 120.4(5)
C83 C82 C81 118.8(6)
C83 C82 H82 120.6
C81 C82 H82 120.6
C82 C83 C78 120.4(5)
C82 C83 C84 121.5(6)
C78 C83 C84 118.1(5)
N89 C84 C85 119.4(5)
N89 C84 C83 116.5(5)
C85 C84 C83 124.1(5)
C84 C85 C86 121.3(6)
C84 C85 H85 119.4
C86 C85 H85 119.4
C85 C86 C87 118.8(6)
C85 C86 H86 120.6
C87 C86 H86 120.6
C88 C87 C86 117.1(5)
C88 C87 C90 121.1(6)
C86 C87 C90 121.8(6)
N89 C88 C87 124.4(6)
N89 C88 H88 117.8
C87 C88 H88 117.8
C88 N89 C84 119.1(5)
C94 C90 C87 128.5(6)
C94 C90 S91 111.2(4)
C87 C90 S91 120.3(5)
C90 S91 C92 91.0(3)
C93 C92 C95 127.6(5)
C93 C92 S91 112.7(4)
C95 C92 S91 119.7(5)
C92 C93 C94 112.0(5)
C92 C93 H93 124.0
C94 C93 H93 124.0
C93 C94 C90 113.1(6)
C93 C94 H94 123.5
C90 C94 H94 123.5
N99 C95 N96 108.9(5)
N99 C95 C92 126.3(6)
N96 C95 C92 124.7(5)
O101 N96 C95 124.7(5)
O101 N96 C97 122.8(5)
C95 N96 C97 111.5(5)
N96 C97 C103 109.8(5)
N96 C97 C102 104.8(5)
C103 C97 C102 110.2(6)
N96 C97 C98 101.0(5)
C103 C97 C98 116.1(6)
C102 C97 C98 113.8(6)
C105 C98 N99 109.8(5)
C105 C98 C104 110.9(5)
N99 C98 C104 105.3(5)
C105 C98 C97 115.5(6)
N99 C98 C97 100.9(4)
C104 C98 C97 113.5(6)
O100 N99 C95 126.1(5)
O100 N99 C98 122.2(4)
C95 N99 C98 111.4(5)
C97 C102 H10A 109.5
C97 C102 H10B 109.5
H10A C102 H10B 109.5
C97 C102 H10C 109.5
H10A C102 H10C 109.5
H10B C102 H10C 109.5
C97 C103 H10D 109.5
C97 C103 H10E 109.5
H10D C103 H10E 109.5
C97 C103 H10F 109.5
H10D C103 H10F 109.5
H10E C103 H10F 109.5
C98 C104 H10G 109.5
C98 C104 H10H 109.5
H10G C104 H10H 109.5
C98 C104 H10I 109.5
H10G C104 H10I 109.5
H10H C104 H10I 109.5
C98 C105 H10J 109.5
C98 C105 H10K 109.5
H10J C105 H10K 109.5
C98 C105 H10L 109.5
H10J C105 H10L 109.5
H10K C105 H10L 109.5
C110 N106 N107 106.6(4)
C110 N106 Zn71 141.3(4)
N107 N106 Zn71 111.7(3)
N106 N107 C108 110.0(5)
N106 N107 B180 120.3(4)
C108 N107 B180 129.5(5)
N107 C108 C109 107.8(5)
N107 C108 C123 122.6(5)
C109 C108 C123 129.6(5)
C108 C109 C110 105.4(5)
C108 C109 H109 127.3
C110 C109 H109 127.3
N106 C110 C109 110.2(5)
N106 C110 C111 122.3(5)
C109 C110 C111 127.5(5)
C116 C111 C112 119.3(5)
C116 C111 C110 120.0(6)
C112 C111 C110 120.8(6)
C113 C112 C111 119.2(6)
C113 C112 H112 120.4
C111 C112 H112 120.4
C114 C113 C112 122.1(6)
C114 C113 H113 118.9
C112 C113 H113 118.9
C113 C114 C115 118.5(6)
C113 C114 C120 132.8(10)
C115 C114 C120 108.6(9)
C113 C114 C117 113.8(8)
C115 C114 C117 127.5(9)
C116 C115 C114 119.6(7)
C116 C115 H115 120.2
C114 C115 H115 120.2
C111 C116 C115 121.2(6)
C111 C116 H116 119.4
C115 C116 H116 119.4
C119 C117 C114 111.4(10)
C119 C117 C118 105.6(17)
C114 C117 C118 108(2)
C119 C117 H117 110.6
C114 C117 H117 110.6
C118 C117 H117 110.6
C117 C118 H11A 109.5
C117 C118 H11B 109.5
H11A C118 H11B 109.5
C117 C118 H11C 109.5
H11A C118 H11C 109.5
H11B C118 H11C 109.5
C117 C119 H11D 109.5
C117 C119 H11E 109.5
H11D C119 H11E 109.5
C117 C119 H11F 109.5
H11D C119 H11F 109.5
H11E C119 H11F 109.5
C121 C120 C114 106.3(10)
C121 C120 C122 113(2)
C114 C120 C122 107.6(19)
C121 C120 H120 109.8
C114 C120 H120 109.8
C122 C120 H120 109.8
C120 C121 H12A 109.5
C120 C121 H12B 109.5
H12A C121 H12B 109.5
C120 C121 H12C 109.5
H12A C121 H12C 109.5
H12B C121 H12C 109.5
C120 C122 H12D 109.5
C120 C122 H12E 109.5
H12D C122 H12E 109.5
C120 C122 H12F 109.5
H12D C122 H12F 109.5
H12E C122 H12F 109.5
C108 C123 H12G 109.5
C108 C123 H12H 109.5
H12G C123 H12H 109.5
C108 C123 H12I 109.5
H12G C123 H12I 109.5
H12H C123 H12I 109.5
C128 N124 N125 107.0(5)
C128 N124 Zn71 139.1(4)
N125 N124 Zn71 113.2(4)
C126 N125 N124 108.8(5)
C126 N125 B180 130.5(5)
N124 N125 B180 120.4(5)
N125 C126 C127 108.9(5)
N125 C126 C146 123.0(6)
C127 C126 C146 128.0(6)
C126 C127 C128 105.2(6)
C126 C127 H127 127.4
C128 C127 H127 127.4
N124 C128 C127 110.0(5)
N124 C128 C129 122.7(5)
C127 C128 C129 127.3(6)
C130 C129 C134 126.3(11)
C139 C129 C135 108.7(12)
C130 C129 C128 122.5(9)
C139 C129 C128 130.0(8)
C134 C129 C128 111.2(7)
C135 C129 C128 121.3(10)
C129 C130 C131 112.9(12)
C129 C130 H130 123.6
C131 C130 H130 123.6
C132 C131 C130 126.3(12)
C132 C131 H131 116.8
C130 C131 H131 116.8
C133 C132 C131 114.0(12)
C133 C132 C140 126.1(12)
C131 C132 C140 119.9(12)
C132 C133 C134 125.4(13)
C132 C133 H133 117.3
C134 C133 H133 117.3
C133 C134 C129 115.0(11)
C133 C134 H134 122.5
C129 C134 H134 122.5
C129 C135 C136 133.4(17)
C129 C135 H135 113.3
C136 C135 H135 113.3
C135 C136 C137 107.6(14)
C135 C136 H136 126.2
C137 C136 H136 126.2
C136 C137 C138 128.9(12)
C136 C137 C143 113.1(12)
C138 C137 C143 118.1(12)
C139 C138 C137 111.4(12)
C139 C138 H138 124.3
C137 C138 H138 124.3
C129 C139 C138 130.0(13)
C129 C139 H139 115.0
C138 C139 H139 115.0
C142 C140 C141 111.8(14)
C142 C140 C132 107.1(13)
C141 C140 C132 107.4(11)
C142 C140 H140 110.2
C141 C140 H140 110.2
C132 C140 H140 110.2
C140 C141 H14A 109.5
C140 C141 H14B 109.5
H14A C141 H14B 109.5
C140 C141 H14C 109.5
H14A C141 H14C 109.5
H14B C141 H14C 109.5
C140 C142 H14D 109.5
C140 C142 H14E 109.5
H14D C142 H14E 109.5
C140 C142 H14F 109.5
H14D C142 H14F 109.5
H14E C142 H14F 109.5
C145 C143 C144 105.5(17)
C145 C143 C137 110.2(15)
C144 C143 C137 110.3(17)
C145 C143 H143 110.2
C144 C143 H143 110.2
C137 C143 H143 110.2
C143 C144 H14G 109.5
C143 C144 H14H 109.5
H14G C144 H14H 109.5
C143 C144 H14I 109.5
H14G C144 H14I 109.5
H14H C144 H14I 109.5
C143 C145 H14J 109.5
C143 C145 H14K 109.5
H14J C145 H14K 109.5
C143 C145 H14L 109.5
H14J C145 H14L 109.5
H14K C145 H14L 109.5
C126 C146 H14M 109.5
C126 C146 H14N 109.5
H14M C146 H14N 109.5
C126 C146 H14O 109.5
H14M C146 H14O 109.5
H14N C146 H14O 109.5
C151 N147 N148 106.8(4)
C151 N147 Zn71 137.6(4)
N148 N147 Zn71 115.4(3)
C149 N148 N147 109.5(5)
C149 N148 B180 131.5(5)
N147 N148 B180 119.1(4)
N148 C149 C150 108.2(5)
N148 C149 C163 123.4(5)
C150 C149 C163 128.3(6)
C149 C150 C151 106.0(5)
C149 C150 H150 127.0
C151 C150 H150 127.0
N147 C151 C150 109.5(5)
N147 C151 C152 121.3(5)
C150 C151 C152 129.2(5)
C153 C152 C157 118.5(6)
C153 C152 C151 121.3(6)
C157 C152 C151 120.2(5)
C152 C153 C154 120.6(7)
C152 C153 H153 119.7
C154 C153 H153 119.7
C155 C154 C153 121.2(7)
C155 C154 H154 119.4
C153 C154 H154 119.4
C156 C155 C154 117.7(6)
C156 C155 C158 130.6(10)
C154 C155 C158 109.8(12)
C156 C155 C160 118.7(9)
C154 C155 C160 123.3(8)
C155 C156 C157 121.5(7)
C155 C156 H156 119.2
C157 C156 H156 119.2
C152 C157 C156 120.5(6)
C152 C157 H157 119.7
C156 C157 H157 119.7
C159 C158 C162 109.4(17)
C159 C158 C155 98.7(17)
C162 C158 C155 110.9(12)
C159 C158 H158 112.4
C162 C158 H158 112.4
C155 C158 H158 112.4
C158 C159 H15A 109.5
C158 C159 H15B 109.5
H15A C159 H15B 109.5
C158 C159 H15C 109.5
H15A C159 H15C 109.5
H15B C159 H15C 109.5
C162 C160 C161 107.7(10)
C162 C160 C155 110.2(8)
C161 C160 C155 116.8(10)
C162 C160 H160 107.3
C161 C160 H160 107.3
C155 C160 H160 107.3
C160 C161 H16A 109.5
C160 C161 H16B 109.5
H16A C161 H16B 109.5
C160 C161 H16C 109.5
H16A C161 H16C 109.5
H16B C161 H16C 109.5
C158 C162 H16G 109.5
C158 C162 H16H 109.5
H16G C162 H16H 109.5
C158 C162 H16I 109.5
H16G C162 H16I 109.5
H16H C162 H16I 109.5
C160 C162 H16D 109.5
C160 C162 H16E 109.5
H16D C162 H16E 109.5
C160 C162 H16F 109.5
H16D C162 H16F 109.5
H16E C162 H16F 109.5
C149 C163 H16J 109.5
C149 C163 H16K 109.5
H16J C163 H16K 109.5
C149 C163 H16L 109.5
H16J C163 H16L 109.5
H16K C163 H16L 109.5
N125 B180 N107 109.2(5)
N125 B180 N148 111.5(5)
N107 B180 N148 107.5(5)
N125 B180 H180 109.5
N107 B180 H180 109.5
N148 B180 H180 109.5
loop_
_geom_bond_atom_site_label_1
_geom_bond_atom_site_label_2
_geom_bond_distance
Zn1 O2 1.939(4)
Zn1 N165 2.027(4)
Zn1 N51 2.028(5)
Zn1 O3 2.186(4)
Zn1 N36 2.213(5)
O2 C11 1.294(6)
O3 C10 1.253(6)
C4 C7 1.526(8)
C4 C9 1.533(7)
C4 C6 1.536(8)
C4 C5 1.537(8)
C5 H5A 0.9800
C5 H5B 0.9800
C5 H5C 0.9800
C6 H6A 0.9800
C6 H6B 0.9800
C6 H6C 0.9800
C7 H7A 0.9800
C7 H7B 0.9800
C7 H7C 0.9800
C8 C9 1.358(7)
C8 C13 1.429(8)
C8 H8 0.9500
C9 C10 1.463(7)
C10 C11 1.474(7)
C11 C12 1.405(7)
C12 C13 1.369(7)
C12 H12 0.9500
C13 C14 1.469(7)
C14 N19 1.359(7)
C14 C15 1.382(8)
C15 C16 1.376(8)
C15 H15 0.9500
C16 C17 1.391(7)
C16 H16 0.9500
C17 C18 1.395(8)
C17 C20 1.453(7)
C18 N19 1.332(7)
C18 H18 0.9500
C20 C24 1.392(7)
C20 S21 1.707(5)
S21 C22 1.719(5)
C22 C23 1.376(8)
C22 C25 1.426(7)
C23 C24 1.366(8)
C23 H23 0.9500
C24 H24 0.9500
C25 N29 1.346(7)
C25 N26 1.354(7)
N26 O31 1.274(6)
N26 C27 1.507(7)
C27 C32 1.507(8)
C27 C33 1.510(8)
C27 C28 1.557(8)
C28 N29 1.500(7)
C28 C34 1.512(8)
C28 C35 1.533(8)
N29 O30 1.278(6)
C32 H32A 0.9800
C32 H32B 0.9800
C32 H32C 0.9800
C33 H33A 0.9800
C33 H33B 0.9800
C33 H33C 0.9800
C34 H34A 0.9800
C34 H34B 0.9800
C34 H34C 0.9800
C35 H35A 0.9800
C35 H35B 0.9800
C35 H35C 0.9800
N36 C40 1.329(7)
N36 N37 1.380(6)
N37 C38 1.348(7)
N37 B66 1.537(8)
C38 C39 1.370(8)
C38 C50 1.505(8)
C39 C40 1.414(7)
C39 H39 0.9500
C40 C41 1.470(8)
C41 C46 1.389(8)
C41 C42 1.393(7)
C42 C43 1.377(8)
C42 H42 0.9500
C43 C44 1.386(8)
C43 H43 0.9500
C44 C45 1.397(8)
C44 C47 1.503(8)
C45 C46 1.387(8)
C45 H45 0.9500
C46 H46 0.9500
C47 C49 1.517(10)
C47 C48 1.531(10)
C47 H47 1.0000
C48 H48A 0.9800
C48 H48B 0.9800
C48 H48C 0.9800
C49 H49A 0.9800
C49 H49B 0.9800
C49 H49C 0.9800
C50 H50A 0.9800
C50 H50B 0.9800
C50 H50C 0.9800
N51 C55 1.332(7)
N51 N52 1.378(6)
N52 C53 1.354(7)
N52 B66 1.552(7)
C53 C54 1.380(7)
C53 C65 1.494(7)
C54 C55 1.400(8)
C54 H54 0.9500
C55 C56 1.488(7)
C56 C57 1.385(8)
C56 C61 1.390(8)
C57 C58 1.388(8)
C57 H57 0.9500
C58 C59 1.369(9)
C58 H58 0.9500
C59 C60 1.386(9)
C59 C62 1.533(8)
C60 C61 1.391(8)
C60 H60 0.9500
C61 H61 0.9500
C62 C63 1.513(11)
C62 C64 1.520(9)
C62 H62 1.0000
C63 H63A 0.9800
C63 H63B 0.9800
C63 H63C 0.9800
C64 H64A 0.9800
C64 H64B 0.9800
C64 H64C 0.9800
C65 H65A 0.9800
C65 H65B 0.9800
C65 H65C 0.9800
B66 N166 1.546(8)
B66 H66 1.0000
N165 C169 1.327(7)
N165 N166 1.369(6)
N166 C167 1.348(7)
C167 C168 1.376(8)
C167 C179 1.501(7)
C168 C169 1.409(7)
C168 H168 0.9500
C169 C170 1.476(7)
C170 C171 1.376(8)
C170 C175 1.408(7)
C171 C172 1.394(7)
C171 H171 0.9500
C172 C173 1.399(8)
C172 H172 0.9500
C173 C174 1.384(8)
C173 C176 1.512(7)
C174 C175 1.384(7)
C174 H174 0.9500
C175 H175 0.9500
C176 C177 1.520(9)
C176 C178 1.543(8)
C176 H176 1.0000
C177 H17A 0.9800
C177 H17B 0.9800
C177 H17C 0.9800
C178 H17D 0.9800
C178 H17E 0.9800
C178 H17F 0.9800
C179 H17G 0.9800
C179 H17H 0.9800
C179 H17I 0.9800
Zn71 O72 1.955(4)
Zn71 N147 2.014(5)
Zn71 N124 2.029(5)
Zn71 O73 2.151(4)
Zn71 N106 2.178(5)
O72 C81 1.297(6)
O73 C80 1.271(6)
C74 C79 1.520(8)
C74 C75 1.529(7)
C74 C77 1.535(9)
C74 C76 1.539(8)
C75 H75A 0.9800
C75 H75B 0.9800
C75 H75C 0.9800
C76 H76A 0.9800
C76 H76B 0.9800
C76 H76C 0.9800
C77 H77A 0.9800
C77 H77B 0.9800
C77 H77C 0.9800
C78 C79 1.373(8)
C78 C83 1.424(8)
C78 H78 0.9500
C79 C80 1.469(8)
C80 C81 1.451(8)
C81 C82 1.419(7)
C82 C83 1.378(8)
C82 H82 0.9500
C83 C84 1.461(7)
C84 N89 1.357(7)
C84 C85 1.383(9)
C85 C86 1.388(8)
C85 H85 0.9500
C86 C87 1.388(8)
C86 H86 0.9500
C87 C88 1.382(9)
C87 C90 1.466(8)
C88 N89 1.334(7)
C88 H88 0.9500
C90 C94 1.394(8)
C90 S91 1.711(6)
S91 C92 1.721(5)
C92 C93 1.368(8)
C92 C95 1.428(8)
C93 C94 1.388(8)
C93 H93 0.9500
C94 H94 0.9500
C95 N99 1.349(7)
C95 N96 1.355(8)
N96 O101 1.279(6)
N96 C97 1.495(7)
C97 C103 1.528(9)
C97 C102 1.541(10)
C97 C98 1.546(9)
C98 C105 1.507(8)
C98 N99 1.511(8)
C98 C104 1.529(9)
N99 O100 1.281(7)
C102 H10A 0.9800
C102 H10B 0.9800
C102 H10C 0.9800
C103 H10D 0.9800
C103 H10E 0.9800
C103 H10F 0.9800
C104 H10G 0.9800
C104 H10H 0.9800
C104 H10I 0.9800
C105 H10J 0.9800
C105 H10K 0.9800
C105 H10L 0.9800
N106 C110 1.341(7)
N106 N107 1.374(6)
N107 C108 1.374(7)
N107 B180 1.545(8)
C108 C109 1.380(8)
C108 C123 1.507(7)
C109 C110 1.419(7)
C109 H109 0.9500
C110 C111 1.475(7)
C111 C116 1.370(9)
C111 C112 1.396(8)
C112 C113 1.389(8)
C112 H112 0.9500
C113 C114 1.367(10)
C113 H113 0.9500
C114 C115 1.400(10)
C114 C120 1.527(9)
C114 C117 1.542(9)
C115 C116 1.396(9)
C115 H115 0.9500
C116 H116 0.9500
C117 C119 1.530(15)
C117 C118 1.554(17)
C117 H117 1.0000
C118 H11A 0.9800
C118 H11B 0.9800
C118 H11C 0.9800
C119 H11D 0.9800
C119 H11E 0.9800
C119 H11F 0.9800
C120 C121 1.510(15)
C120 C122 1.534(18)
C120 H120 1.0000
C121 H12A 0.9800
C121 H12B 0.9800
C121 H12C 0.9800
C122 H12D 0.9800
C122 H12E 0.9800
C122 H12F 0.9800
C123 H12G 0.9800
C123 H12H 0.9800
C123 H12I 0.9800
N124 C128 1.333(8)
N124 N125 1.388(6)
N125 C126 1.354(8)
N125 B180 1.538(9)
C126 C127 1.377(9)
C126 C146 1.497(8)
C127 C128 1.412(8)
C127 H127 0.9500
C128 C129 1.477(8)
C129 C130 1.388(9)
C129 C139 1.390(9)
C129 C134 1.392(9)
C129 C135 1.400(9)
C130 C131 1.406(9)
C130 H130 0.9500
C131 C132 1.404(9)
C131 H131 0.9500
C132 C133 1.385(9)
C132 C140 1.556(17)
C133 C134 1.386(9)
C133 H133 0.9500
C134 H134 0.9500
C135 C136 1.412(9)
C135 H135 0.9500
C136 C137 1.419(9)
C136 H136 0.9500
C137 C138 1.422(9)
C137 C143 1.59(2)
C138 C139 1.400(9)
C138 H138 0.9500
C139 H139 0.9500
C140 C142 1.542(9)
C140 C141 1.548(9)
C140 H140 1.0000
C141 H14A 0.9800
C141 H14B 0.9800
C141 H14C 0.9800
C142 H14D 0.9800
C142 H14E 0.9800
C142 H14F 0.9800
C143 C145 1.518(10)
C143 C144 1.528(10)
C143 H143 1.0000
C144 H14G 0.9800
C144 H14H 0.9800
C144 H14I 0.9800
C145 H14J 0.9800
C145 H14K 0.9800
C145 H14L 0.9800
C146 H14M 0.9800
C146 H14N 0.9800
C146 H14O 0.9800
N147 C151 1.331(7)
N147 N148 1.381(6)
N148 C149 1.349(7)
N148 B180 1.553(8)
C149 C150 1.366(8)
C149 C163 1.510(7)
C150 C151 1.407(8)
C150 H150 0.9500
C151 C152 1.484(8)
C152 C153 1.383(9)
C152 C157 1.387(9)
C153 C154 1.396(9)
C153 H153 0.9500
C154 C155 1.388(11)
C154 H154 0.9500
C155 C156 1.381(10)
C155 C158 1.527(10)
C155 C160 1.548(8)
C156 C157 1.392(8)
C156 H156 0.9500
C157 H157 0.9500
C158 C159 1.497(18)
C158 C162 1.522(18)
C158 H158 1.0000
C159 H15A 0.9800
C159 H15B 0.9800
C159 H15C 0.9800
C160 C162 1.513(12)
C160 C161 1.541(14)
C160 H160 1.0000
C161 H16A 0.9800
C161 H16B 0.9800
C161 H16C 0.9800
C162 H16G 0.9800
C162 H16H 0.9800
C162 H16I 0.9800
C162 H16D 0.9800
C162 H16E 0.9800
C162 H16F 0.9800
C163 H16J 0.9800
C163 H16K 0.9800
C163 H16L 0.9800
B180 H180 1.0000
loop_
_geom_torsion_atom_site_label_1
_geom_torsion_atom_site_label_2
_geom_torsion_atom_site_label_3
_geom_torsion_atom_site_label_4
_geom_torsion
C13 C8 C9 C10 2.2(8)
C13 C8 C9 C4 -178.6(5)
C7 C4 C9 C8 -117.2(6)
C6 C4 C9 C8 121.6(6)
C5 C4 C9 C8 1.6(8)
C7 C4 C9 C10 61.9(6)
C6 C4 C9 C10 -59.3(6)
C5 C4 C9 C10 -179.3(5)
Zn1 O3 C10 C9 178.7(4)
Zn1 O3 C10 C11 -1.3(6)
C8 C9 C10 O3 178.9(5)
C4 C9 C10 O3 -0.3(8)
C8 C9 C10 C11 -1.1(7)
C4 C9 C10 C11 179.7(5)
Zn1 O2 C11 C12 -178.6(4)
Zn1 O2 C11 C10 2.5(6)
O3 C10 C11 O2 -0.6(7)
C9 C10 C11 O2 179.4(5)
O3 C10 C11 C12 -179.5(5)
C9 C10 C11 C12 0.5(8)
O2 C11 C12 C13 -179.7(5)
C10 C11 C12 C13 -0.9(8)
C11 C12 C13 C8 1.9(8)
C11 C12 C13 C14 -178.5(5)
C9 C8 C13 C12 -2.7(9)
C9 C8 C13 C14 177.7(5)
C12 C13 C14 N19 -163.0(5)
C8 C13 C14 N19 16.6(8)
C12 C13 C14 C15 18.3(9)
C8 C13 C14 C15 -162.1(6)
N19 C14 C15 C16 0.9(9)
C13 C14 C15 C16 179.5(6)
C14 C15 C16 C17 0.2(10)
C15 C16 C17 C18 -0.8(9)
C15 C16 C17 C20 -177.2(6)
C16 C17 C18 N19 0.4(9)
C20 C17 C18 N19 176.8(6)
C17 C18 N19 C14 0.6(9)
C15 C14 N19 C18 -1.3(9)
C13 C14 N19 C18 180.0(5)
C16 C17 C20 C24 -168.2(6)
C18 C17 C20 C24 15.6(9)
C16 C17 C20 S21 14.0(8)
C18 C17 C20 S21 -162.2(5)
C24 C20 S21 C22 -1.8(5)
C17 C20 S21 C22 176.4(5)
C20 S21 C22 C23 1.0(5)
C20 S21 C22 C25 -172.5(5)
C25 C22 C23 C24 173.0(6)
S21 C22 C23 C24 0.1(7)
C22 C23 C24 C20 -1.5(8)
C17 C20 C24 C23 -175.7(6)
S21 C20 C24 C23 2.3(7)
C23 C22 C25 N29 -3.6(10)
S21 C22 C25 N29 168.7(5)
C23 C22 C25 N26 -179.5(6)
S21 C22 C25 N26 -7.1(8)
N29 C25 N26 O31 -180.0(6)
C22 C25 N26 O31 -3.4(9)
N29 C25 N26 C27 -12.4(6)
C22 C25 N26 C27 164.1(5)
O31 N26 C27 C32 74.8(6)
C25 N26 C27 C32 -93.0(6)
O31 N26 C27 C33 -46.1(7)
C25 N26 C27 C33 146.1(5)
O31 N26 C27 C28 -166.5(5)
C25 N26 C27 C28 25.7(6)
N26 C27 C28 N29 -27.3(5)
C32 C27 C28 N29 84.9(6)
C33 C27 C28 N29 -144.0(5)
N26 C27 C28 C34 -144.4(5)
C32 C27 C28 C34 -32.1(7)
C33 C27 C28 C34 98.9(6)
N26 C27 C28 C35 85.6(5)
C32 C27 C28 C35 -162.1(5)
C33 C27 C28 C35 -31.1(7)
N26 C25 N29 O30 -180.0(6)
C22 C25 N29 O30 4.1(10)
N26 C25 N29 C28 -7.9(7)
C22 C25 N29 C28 175.7(5)
C34 C28 N29 O30 -43.9(7)
C35 C28 N29 O30 76.4(7)
C27 C28 N29 O30 -164.5(5)
C34 C28 N29 C25 144.0(5)
C35 C28 N29 C25 -95.7(6)
C27 C28 N29 C25 23.5(6)
C40 N36 N37 C38 -1.1(6)
Zn1 N36 N37 C38 161.7(3)
C40 N36 N37 B66 -171.8(5)
Zn1 N36 N37 B66 -9.0(6)
N36 N37 C38 C39 1.3(6)
B66 N37 C38 C39 171.1(5)
N36 N37 C38 C50 179.3(5)
B66 N37 C38 C50 -10.9(9)
N37 C38 C39 C40 -0.9(6)
C50 C38 C39 C40 -178.7(6)
N37 N36 C40 C39 0.5(6)
Zn1 N36 C40 C39 -153.7(4)
N37 N36 C40 C41 179.5(5)
Zn1 N36 C40 C41 25.3(9)
C38 C39 C40 N36 0.2(6)
C38 C39 C40 C41 -178.7(5)
N36 C40 C41 C46 -144.5(6)
C39 C40 C41 C46 34.3(9)
N36 C40 C41 C42 34.9(8)
C39 C40 C41 C42 -146.3(6)
C46 C41 C42 C43 1.6(8)
C40 C41 C42 C43 -177.8(5)
C41 C42 C43 C44 0.4(9)
C42 C43 C44 C45 -2.0(9)
C42 C43 C44 C47 176.0(6)
C43 C44 C45 C46 1.6(9)
C47 C44 C45 C46 -176.5(6)
C44 C45 C46 C41 0.4(9)
C42 C41 C46 C45 -2.0(9)
C40 C41 C46 C45 177.5(5)
C43 C44 C47 C49 53.7(8)
C45 C44 C47 C49 -128.3(6)
C43 C44 C47 C48 -70.1(9)
C45 C44 C47 C48 107.9(7)
C55 N51 N52 C53 -1.0(6)
Zn1 N51 N52 C53 -178.8(4)
C55 N51 N52 B66 177.1(5)
Zn1 N51 N52 B66 -0.7(6)
N51 N52 C53 C54 1.0(6)
B66 N52 C53 C54 -176.9(5)
N51 N52 C53 C65 178.8(5)
B66 N52 C53 C65 0.9(9)
N52 C53 C54 C55 -0.7(6)
C65 C53 C54 C55 -178.3(6)
N52 N51 C55 C54 0.6(6)
Zn1 N51 C55 C54 177.5(4)
N52 N51 C55 C56 -177.3(5)
Zn1 N51 C55 C56 -0.4(9)
C53 C54 C55 N51 0.0(6)
C53 C54 C55 C56 177.9(5)
N51 C55 C56 C57 -29.0(9)
C54 C55 C56 C57 153.4(6)
N51 C55 C56 C61 151.1(6)
C54 C55 C56 C61 -26.5(9)
C61 C56 C57 C58 -1.8(9)
C55 C56 C57 C58 178.3(5)
C56 C57 C58 C59 1.2(10)
C57 C58 C59 C60 -0.2(10)
C57 C58 C59 C62 -178.6(6)
C58 C59 C60 C61 -0.1(10)
C62 C59 C60 C61 178.3(6)
C57 C56 C61 C60 1.4(9)
C55 C56 C61 C60 -178.6(5)
C59 C60 C61 C56 -0.5(10)
C58 C59 C62 C63 82.8(10)
C60 C59 C62 C63 -95.5(9)
C58 C59 C62 C64 -150.4(7)
C60 C59 C62 C64 31.3(10)
C38 N37 B66 N166 -101.3(6)
N36 N37 B66 N166 67.5(6)
C38 N37 B66 N52 138.1(5)
N36 N37 B66 N52 -53.1(6)
C53 N52 B66 N37 -119.7(6)
N51 N52 B66 N37 62.6(6)
C53 N52 B66 N166 121.9(6)
N51 N52 B66 N166 -55.8(6)
C169 N165 N166 C167 -0.7(5)
Zn1 N165 N166 C167 166.6(3)
C169 N165 N166 B66 173.3(4)
Zn1 N165 N166 B66 -19.5(5)
N37 B66 N166 C167 121.1(6)
N52 B66 N166 C167 -119.0(6)
N37 B66 N166 N165 -51.1(6)
N52 B66 N166 N165 68.8(6)
N165 N166 C167 C168 0.4(6)
B66 N166 C167 C168 -172.5(5)
N165 N166 C167 C179 179.9(5)
B66 N166 C167 C179 7.0(9)
N166 C167 C168 C169 0.0(6)
C179 C167 C168 C169 -179.4(5)
N166 N165 C169 C168 0.7(6)
Zn1 N165 C169 C168 -162.3(4)
N166 N165 C169 C170 -178.6(4)
Zn1 N165 C169 C170 18.5(8)
C167 C168 C169 N165 -0.4(6)
C167 C168 C169 C170 178.8(5)
N165 C169 C170 C171 -156.1(5)
C168 C169 C170 C171 24.8(8)
N165 C169 C170 C175 26.5(7)
C168 C169 C170 C175 -152.6(5)
C175 C170 C171 C172 -3.5(8)
C169 C170 C171 C172 179.0(5)
C170 C171 C172 C173 -0.2(8)
C171 C172 C173 C174 3.0(8)
C171 C172 C173 C176 -178.0(5)
C172 C173 C174 C175 -2.1(8)
C176 C173 C174 C175 178.8(5)
C173 C174 C175 C170 -1.6(8)
C171 C170 C175 C174 4.4(7)
C169 C170 C175 C174 -178.2(5)
C174 C173 C176 C177 171.6(5)
C172 C173 C176 C177 -7.4(8)
C174 C173 C176 C178 -64.6(7)
C172 C173 C176 C178 116.4(6)
C83 C78 C79 C80 1.3(9)
C83 C78 C79 C74 178.6(6)
C75 C74 C79 C78 6.0(9)
C77 C74 C79 C78 -112.8(6)
C76 C74 C79 C78 126.2(6)
C75 C74 C79 C80 -176.9(5)
C77 C74 C79 C80 64.3(7)
C76 C74 C79 C80 -56.7(7)
Zn71 O73 C80 C81 -2.2(6)
Zn71 O73 C80 C79 177.4(4)
C78 C79 C80 O73 175.7(5)
C74 C79 C80 O73 -1.7(9)
C78 C79 C80 C81 -4.7(8)
C74 C79 C80 C81 178.0(5)
Zn71 O72 C81 C82 177.0(5)
Zn71 O72 C81 C80 0.4(7)
O73 C80 C81 O72 1.4(9)
C79 C80 C81 O72 -178.2(5)
O73 C80 C81 C82 -175.3(5)
C79 C80 C81 C82 5.1(9)
O72 C81 C82 C83 -178.4(6)
C80 C81 C82 C83 -1.8(9)
C81 C82 C83 C78 -1.7(9)
C81 C82 C83 C84 179.3(6)
C79 C78 C83 C82 1.9(10)
C79 C78 C83 C84 -179.0(6)
C82 C83 C84 N89 -168.0(6)
C78 C83 C84 N89 13.0(9)
C82 C83 C84 C85 14.6(10)
C78 C83 C84 C85 -164.4(7)
N89 C84 C85 C86 0.0(11)
C83 C84 C85 C86 177.4(7)
C84 C85 C86 C87 -1.1(11)
C85 C86 C87 C88 1.4(10)
C85 C86 C87 C90 179.9(6)
C86 C87 C88 N89 -0.7(10)
C90 C87 C88 N89 -179.3(6)
C87 C88 N89 C84 -0.4(10)
C85 C84 N89 C88 0.7(9)
C83 C84 N89 C88 -176.9(6)
C88 C87 C90 C94 -6.4(10)
C86 C87 C90 C94 175.1(7)
C88 C87 C90 S91 172.7(5)
C86 C87 C90 S91 -5.8(9)
C94 C90 S91 C92 3.0(5)
C87 C90 S91 C92 -176.2(5)
C90 S91 C92 C93 -2.2(5)
C90 S91 C92 C95 175.1(5)
C95 C92 C93 C94 -176.2(6)
S91 C92 C93 C94 0.8(7)
C92 C93 C94 C90 1.5(8)
C87 C90 C94 C93 176.0(6)
S91 C90 C94 C93 -3.2(7)
C93 C92 C95 N99 6.7(10)
S91 C92 C95 N99 -170.2(5)
C93 C92 C95 N96 -177.2(6)
S91 C92 C95 N96 6.0(9)
N99 C95 N96 O101 -179.8(6)
C92 C95 N96 O101 3.5(10)
N99 C95 N96 C97 11.6(7)
C92 C95 N96 C97 -165.1(6)
O101 N96 C97 C103 45.0(9)
C95 N96 C97 C103 -146.2(6)
O101 N96 C97 C102 -73.4(7)
C95 N96 C97 C102 95.4(6)
O101 N96 C97 C98 168.1(6)
C95 N96 C97 C98 -23.0(7)
N96 C97 C98 C105 141.9(5)
C103 C97 C98 C105 -99.5(7)
C102 C97 C98 C105 30.1(8)
N96 C97 C98 N99 23.6(6)
C103 C97 C98 N99 142.3(6)
C102 C97 C98 N99 -88.1(6)
N96 C97 C98 C104 -88.5(6)
C103 C97 C98 C104 30.1(8)
C102 C97 C98 C104 159.8(6)
N96 C95 N99 O100 178.8(6)
C92 C95 N99 O100 -4.5(10)
N96 C95 N99 C98 5.8(7)
C92 C95 N99 C98 -177.5(6)
C105 C98 N99 O100 44.9(8)
C104 C98 N99 O100 -74.6(7)
C97 C98 N99 O100 167.2(5)
C105 C98 N99 C95 -141.8(6)
C104 C98 N99 C95 98.8(6)
C97 C98 N99 C95 -19.5(6)
C110 N106 N107 C108 1.2(6)
Zn71 N106 N107 C108 -172.9(4)
C110 N106 N107 B180 175.9(5)
Zn71 N106 N107 B180 1.9(6)
N106 N107 C108 C109 -0.4(7)
B180 N107 C108 C109 -174.5(6)
N106 N107 C108 C123 -179.6(5)
B180 N107 C108 C123 6.3(10)
N107 C108 C109 C110 -0.6(7)
C123 C108 C109 C110 178.6(6)
N107 N106 C110 C109 -1.6(7)
Zn71 N106 C110 C109 169.6(5)
N107 N106 C110 C111 178.5(5)
Zn71 N106 C110 C111 -10.3(10)
C108 C109 C110 N106 1.4(7)
C108 C109 C110 C111 -178.7(6)
N106 C110 C111 C116 139.4(6)
C109 C110 C111 C116 -40.6(9)
N106 C110 C111 C112 -41.0(8)
C109 C110 C111 C112 139.1(6)
C116 C111 C112 C113 -0.8(8)
C110 C111 C112 C113 179.6(5)
C111 C112 C113 C114 0.9(9)
C112 C113 C114 C115 0.5(10)
C112 C113 C114 C120 -176.4(10)
C112 C113 C114 C117 177.0(8)
C113 C114 C115 C116 -2.0(10)
C120 C114 C115 C116 175.6(8)
C117 C114 C115 C116 -177.9(9)
C112 C111 C116 C115 -0.7(9)
C110 C111 C116 C115 179.0(6)
C114 C115 C116 C111 2.1(10)
C113 C114 C117 C119 -144.0(11)
C115 C114 C117 C119 32.2(17)
C113 C114 C117 C118 100.6(16)
C115 C114 C117 C118 -83.3(17)
C113 C114 C120 C121 -70.4(17)
C115 C114 C120 C121 112.5(13)
C113 C114 C120 C122 51(2)
C115 C114 C120 C122 -125.8(17)
C128 N124 N125 C126 -0.9(6)
Zn71 N124 N125 C126 171.5(4)
C128 N124 N125 B180 173.9(5)
Zn71 N124 N125 B180 -13.7(6)
N124 N125 C126 C127 0.1(7)
B180 N125 C126 C127 -173.9(6)
N124 N125 C126 C146 -178.8(6)
B180 N125 C126 C146 7.1(10)
N125 C126 C127 C128 0.6(7)
C146 C126 C127 C128 179.5(6)
N125 N124 C128 C127 1.3(7)
Zn71 N124 C128 C127 -168.1(5)
N125 N124 C128 C129 -176.2(5)
Zn71 N124 C128 C129 14.4(9)
C126 C127 C128 N124 -1.2(7)
C126 C127 C128 C129 176.2(6)
N124 C128 C129 C130 26.0(11)
C127 C128 C129 C130 -151.1(9)
N124 C128 C129 C139 -157.7(10)
C127 C128 C129 C139 25.2(12)
N124 C128 C129 C134 -155.6(9)
C127 C128 C129 C134 27.4(10)
N124 C128 C129 C135 24.6(10)
C127 C128 C129 C135 -152.5(9)
C134 C129 C130 C131 0.0(3)
C128 C129 C130 C131 178.2(6)
C129 C130 C131 C132 0.0(3)
C130 C131 C132 C133 -0.1(6)
C130 C131 C132 C140 179.9(12)
C131 C132 C133 C134 0.1(8)
C140 C132 C133 C134 -179.9(13)
C132 C133 C134 C129 -0.1(8)
C130 C129 C134 C133 0.0(6)
C128 C129 C134 C133 -178.4(6)
C139 C129 C135 C136 0.0(3)
C128 C129 C135 C136 178.1(7)
C129 C135 C136 C137 0.1(6)
C135 C136 C137 C138 -0.2(8)
C135 C136 C137 C143 -179.9(12)
C136 C137 C138 C139 0.3(8)
C143 C137 C138 C139 179.9(13)
C135 C129 C139 C138 0.1(3)
C128 C129 C139 C138 -177.9(7)
C137 C138 C139 C129 -0.2(6)
C133 C132 C140 C142 -123.6(16)
C131 C132 C140 C142 56.4(17)
C133 C132 C140 C141 116.1(14)
C131 C132 C140 C141 -63.8(14)
C136 C137 C143 C145 -130.3(18)
C138 C137 C143 C145 50(2)
C136 C137 C143 C144 113.6(19)
C138 C137 C143 C144 -66(2)
C151 N147 N148 C149 0.1(7)
Zn71 N147 N148 C149 -175.7(4)
C151 N147 N148 B180 -179.0(5)
Zn71 N147 N148 B180 5.2(7)
N147 N148 C149 C150 -0.2(7)
B180 N148 C149 C150 178.8(6)
N147 N148 C149 C163 179.1(5)
B180 N148 C149 C163 -1.9(10)
N148 C149 C150 C151 0.2(7)
C163 C149 C150 C151 -179.1(6)
N148 N147 C151 C150 0.0(7)
Zn71 N147 C151 C150 174.4(5)
N148 N147 C151 C152 -178.6(6)
Zn71 N147 C151 C152 -4.2(10)
C149 C150 C151 N147 -0.1(7)
C149 C150 C151 C152 178.3(6)
N147 C151 C152 C153 -47.1(9)
C150 C151 C152 C153 134.7(7)
N147 C151 C152 C157 132.2(7)
C150 C151 C152 C157 -46.0(10)
C157 C152 C153 C154 -0.5(11)
C151 C152 C153 C154 178.8(7)
C152 C153 C154 C155 -0.5(13)
C153 C154 C155 C156 0.6(12)
C153 C154 C155 C158 166.6(16)
C153 C154 C155 C160 -173.1(10)
C154 C155 C156 C157 0.5(12)
C158 C155 C156 C157 -162(2)
C160 C155 C156 C157 174.5(9)
C153 C152 C157 C156 1.6(10)
C151 C152 C157 C156 -177.8(6)
C155 C156 C157 C152 -1.6(11)
C156 C155 C158 C159 -107(3)
C154 C155 C158 C159 89(2)
C156 C155 C158 C162 8(4)
C154 C155 C158 C162 -156.0(18)
C156 C155 C160 C162 54.9(15)
C154 C155 C160 C162 -131.5(11)
C156 C155 C160 C161 -68.4(15)
C154 C155 C160 C161 105.3(14)
C126 N125 B180 N107 120.3(6)
N124 N125 B180 N107 -53.2(7)
C126 N125 B180 N148 -121.0(6)
N124 N125 B180 N148 65.5(7)
N106 N107 B180 N125 58.5(7)
C108 N107 B180 N125 -127.9(6)
N106 N107 B180 N148 -62.6(6)
C108 N107 B180 N148 111.0(6)
C149 N148 B180 N125 121.5(6)
N147 N148 B180 N125 -59.6(7)
C149 N148 B180 N107 -118.8(7)
N147 N148 B180 N107 60.1(7)
