#------------------------------------------------------------------------------
#$Date: 2017-07-05 00:27:49 +0300 (Wed, 05 Jul 2017) $
#$Revision: 198425 $
#$URL: file:///home/coder/svn-repositories/cod/cif/1/54/61/1546124.cif $
#------------------------------------------------------------------------------
#
# This file is available in the Crystallography Open Database (COD),
# http://www.crystallography.net/
#
# All data on this site have been placed in the public domain by the
# contributors.
#
data_1546124
loop_
_publ_author_name
'Xu, Wei'
'Wang, Gaonan'
'Sun, Ning'
'Liu, Yuanhong'
_publ_section_title
;
 Gold-Catalyzed Formal [3 + 2] Cycloaddition of Ynamides with
 4,5-Dihydro-1,2,4-oxadiazoles: Synthesis of Functionalized
 4-Aminoimidazoles.
;
_journal_issue                   12
_journal_name_full               'Organic letters'
_journal_page_first              3307
_journal_page_last               3310
_journal_paper_doi               10.1021/acs.orglett.7b01469
_journal_volume                  19
_journal_year                    2017
_chemical_formula_sum            'C24 H23 N3 O3 S'
_chemical_formula_weight         433.51
_chemical_name_systematic
; 
 ? 
;
_space_group_crystal_system      orthorhombic
_space_group_IT_number           61
_space_group_name_Hall           '-P 2ac 2ab'
_space_group_name_H-M_alt        'P b c a'
_symmetry_space_group_name_Hall  '-P 2ac 2ab'
_symmetry_space_group_name_H-M   'P b c a'
_atom_sites_solution_hydrogens   geom
_audit_creation_method           SHELXL-2013
_cell_angle_alpha                90
_cell_angle_beta                 90
_cell_angle_gamma                90
_cell_formula_units_Z            8
_cell_length_a                   15.862(2)
_cell_length_b                   15.219(2)
_cell_length_c                   18.723(3)
_cell_measurement_reflns_used    4095
_cell_measurement_temperature    293(2)
_cell_measurement_theta_max      44.421
_cell_measurement_theta_min      4.300
_cell_volume                     4519.8(11)
_computing_cell_refinement       'Bruker SMART'
_computing_data_collection       'Bruker SMART'
_computing_data_reduction        'Bruker SHELXTL'
_computing_molecular_graphics    'Bruker SHELXTL'
_computing_publication_material  'Bruker SHELXTL'
_computing_structure_refinement  'SHELXL-2013 (Sheldrick, 2013)'
_computing_structure_solution    'Bruker SHELXTL'
_diffrn_ambient_temperature      293(2)
_diffrn_measured_fraction_theta_full 0.975
_diffrn_measured_fraction_theta_max 1.000
_diffrn_measurement_device_type  'CCD area detector'
_diffrn_measurement_method       'phi and omega scans'
_diffrn_radiation_type           MoK\a
_diffrn_radiation_wavelength     0.71073
_diffrn_reflns_av_R_equivalents  0.0497
_diffrn_reflns_av_unetI/netI     0.0336
_diffrn_reflns_Laue_measured_fraction_full 0.975
_diffrn_reflns_Laue_measured_fraction_max 1.000
_diffrn_reflns_limit_h_max       18
_diffrn_reflns_limit_h_min       -17
_diffrn_reflns_limit_k_max       17
_diffrn_reflns_limit_k_min       -18
_diffrn_reflns_limit_l_max       21
_diffrn_reflns_limit_l_min       -22
_diffrn_reflns_number            23563
_diffrn_reflns_point_group_measured_fraction_full 0.975
_diffrn_reflns_point_group_measured_fraction_max 1.000
_diffrn_reflns_theta_full        25.242
_diffrn_reflns_theta_max         24.999
_diffrn_reflns_theta_min         2.150
_exptl_absorpt_coefficient_mu    0.173
_exptl_absorpt_correction_T_max  0.7456
_exptl_absorpt_correction_T_min  0.6763
_exptl_absorpt_correction_type   multi-scan
_exptl_absorpt_process_details   sadabs
_exptl_crystal_colour            colorless
_exptl_crystal_density_diffrn    1.274
_exptl_crystal_description       prismatic
_exptl_crystal_F_000             1824
_exptl_crystal_size_max          0.20
_exptl_crystal_size_mid          0.17
_exptl_crystal_size_min          0.14
_refine_diff_density_max         0.514
_refine_diff_density_min         -0.148
_refine_diff_density_rms         0.045
_refine_ls_extinction_method     none
_refine_ls_goodness_of_fit_ref   1.043
_refine_ls_hydrogen_treatment    constr
_refine_ls_matrix_type           full
_refine_ls_number_parameters     282
_refine_ls_number_reflns         3983
_refine_ls_number_restraints     0
_refine_ls_restrained_S_all      1.043
_refine_ls_R_factor_all          0.0756
_refine_ls_R_factor_gt           0.0520
_refine_ls_shift/su_max          0.007
_refine_ls_shift/su_mean         0.000
_refine_ls_structure_factor_coef Fsqd
_refine_ls_weighting_details
'w=1/[\s^2^(Fo^2^)+(0.0767P)^2^+1.8031P] where P=(Fo^2^+2Fc^2^)/3'
_refine_ls_weighting_scheme      calc
_refine_ls_wR_factor_gt          0.1406
_refine_ls_wR_factor_ref         0.1577
_reflns_Friedel_coverage         0.000
_reflns_number_gt                2792
_reflns_number_total             3983
_reflns_threshold_expression     'I > 2\s(I)'
_cod_data_source_file            ol7b01469_si_003.cif
_cod_data_source_block           cd17172
_cod_depositor_comments          'Adding full bibliography for 1546124.cif.'
_cod_original_cell_volume        4519.7(11)
_cod_database_code               1546124
_shelx_space_group_comment
; 
The symmetry employed for this shelxl refinement is uniquely defined 
by the following loop, which should always be used as a source of 
symmetry information in preference to the above space-group names. 
They are only intended as comments. 
;
_shelxl_version_number           2013-4
_shelx_res_file
; 
TITL cd17172 in Pbca 
CELL 0.71073  15.8621  15.2190  18.7226  90.000  90.000  90.000 
ZERR    8.00   0.0021   0.0021   0.0025   0.000   0.000   0.000 
LATT 1 
SYMM 0.5-X, -Y, 0.5+Z 
SYMM -X, 0.5+Y, 0.5-Z 
SYMM 0.5+X, 0.5-Y, -Z 
SFAC C  H  N  O  S 
UNIT 192 184 24 24 8 
OMIT  -3.00  50.00 
L.S. 10 
ACTA 
BOND  $H 
FMAP 2 
PLAN 20 
HTAB C24 N1 
HTAB C24 N1 
conf 
htab 
mpla c3 > c8 
mpla c9 > c14 
mpla c17 > c22 
mpla 4 c1 c2 n1 n2 o1 
wpdb -1 
HTAB C24 N1 
WGHT    0.076700    1.803100 
FVAR       0.06389 
MOLE 1 
S1    5    0.014409    0.107137    0.401213    11.00000    0.07059    0.04549 = 
         0.05470    0.00523    0.01101    0.00253 
N1    3    0.059429    0.139649    0.244440    11.00000    0.08900    0.04935 = 
         0.04781   -0.00251    0.00387    0.01152 
N2    3    0.095985    0.138774    0.127066    11.00000    0.09080    0.06283 = 
         0.05894    0.00130    0.00580    0.00666 
N3    3    0.090988    0.163918    0.365812    11.00000    0.06445    0.05087 = 
         0.04537    0.00527    0.00383    0.00014 
O1    4    0.125948    0.075762    0.236198    11.00000    0.12711    0.06922 = 
         0.04819   -0.00007    0.00838    0.03505 
O2    4    0.032762    0.102366    0.475161    11.00000    0.10570    0.07676 = 
         0.05091    0.00929    0.01303   -0.00369 
O3    4   -0.061915    0.146058    0.378445    11.00000    0.06668    0.06649 = 
         0.09137    0.01539    0.01239    0.00484 
C1    1    0.161631    0.091810    0.165702    11.00000    0.08352    0.06319 = 
         0.06109   -0.00415    0.00109   -0.00322 
AFIX  13 
H1    2    0.212227    0.128437    0.169694    11.00000   -1.20000 
AFIX   0 
C2    1    0.043653    0.167168    0.173465    11.00000    0.08528    0.05131 = 
         0.04944   -0.00316    0.00529    0.00106 
C3    1   -0.032418    0.220321    0.157091    11.00000    0.07479    0.04810 = 
         0.05325   -0.00398    0.00112   -0.00906 
C4    1   -0.045052    0.249149    0.087878    11.00000    0.08396    0.06063 = 
         0.05687    0.00293    0.00185   -0.00229 
AFIX  43 
H4    2   -0.006796    0.233859    0.052348    11.00000   -1.20000 
AFIX   0 
C5    1   -0.113730    0.300230    0.071214    11.00000    0.07995    0.07231 = 
         0.07169    0.01426   -0.01030   -0.01395 
AFIX  43 
H5    2   -0.122060    0.318824    0.024426    11.00000   -1.20000 
AFIX   0 
C6    1   -0.169764    0.323758    0.123154    11.00000    0.06274    0.07658 = 
         0.09166    0.00646   -0.01109   -0.01174 
AFIX  43 
H6    2   -0.215764    0.359037    0.111920    11.00000   -1.20000 
AFIX   0 
C7    1   -0.158108    0.295350    0.191697    11.00000    0.06143    0.08892 = 
         0.08093   -0.00892    0.00109   -0.00872 
AFIX  43 
H7    2   -0.196488    0.311380    0.226914    11.00000   -1.20000 
AFIX   0 
C8    1   -0.090381    0.243411    0.209171    11.00000    0.06861    0.07313 = 
         0.06024   -0.00395   -0.00141   -0.00980 
AFIX  43 
H8    2   -0.083442    0.223786    0.255843    11.00000   -1.20000 
AFIX   0 
C9    1    0.184062    0.003377    0.135799    11.00000    0.07138    0.06130 = 
         0.04978   -0.00315    0.00512    0.00793 
C10   1    0.126257   -0.061189    0.131871    11.00000    0.07793    0.07260 = 
         0.09015   -0.01103    0.01860   -0.00529 
AFIX  43 
H10   2    0.071036   -0.049969    0.145848    11.00000   -1.20000 
AFIX   0 
C11   1    0.147269   -0.142292    0.107867    11.00000    0.11019    0.06738 = 
         0.10179   -0.00535    0.01553   -0.00770 
AFIX  43 
H11   2    0.106434   -0.186044    0.105488    11.00000   -1.20000 
AFIX   0 
C12   1    0.227488   -0.160081    0.087283    11.00000    0.11818    0.07518 = 
         0.07914   -0.02313   -0.00380    0.02740 
AFIX  43 
H12   2    0.241641   -0.216453    0.072323    11.00000   -1.20000 
AFIX   0 
C13   1    0.286888   -0.096642    0.088343    11.00000    0.07726    0.12828 = 
         0.09302   -0.04765    0.00971    0.01840 
AFIX  43 
H13   2    0.341399   -0.108434    0.072767    11.00000   -1.20000 
AFIX   0 
C14   1    0.265441   -0.013050    0.113132    11.00000    0.07804    0.09987 = 
         0.07889   -0.02230    0.00466   -0.01668 
AFIX  43 
H14   2    0.305718    0.031331    0.114379    11.00000   -1.20000 
AFIX   0 
C15   1    0.082249    0.201935    0.296768    11.00000    0.05825    0.05252 = 
         0.04592    0.00024    0.00690    0.00189 
C16   1    0.095473    0.286261    0.283182    11.00000    0.05945    0.05705 = 
         0.04737    0.00791    0.00474    0.00013 
AFIX  43 
H16   2    0.098096    0.300326    0.234894    11.00000   -1.20000 
AFIX   0 
C17   1    0.106609    0.360754    0.331363    11.00000    0.05283    0.04868 = 
         0.06017    0.00289   -0.00607   -0.00015 
C18   1    0.132462    0.439929    0.301649    11.00000    0.09113    0.05925 = 
         0.07497    0.01523   -0.01416   -0.01012 
AFIX  43 
H18   2    0.143798    0.443152    0.252984    11.00000   -1.20000 
AFIX   0 
C19   1    0.141478    0.513786    0.343610    11.00000    0.12110    0.05051 = 
         0.11114    0.00858   -0.02131   -0.01616 
AFIX  43 
H19   2    0.157881    0.566561    0.322780    11.00000   -1.20000 
AFIX   0 
C20   1    0.126737    0.510383    0.414756    11.00000    0.12305    0.06254 = 
         0.10030   -0.01684   -0.02513   -0.00642 
AFIX  43 
H20   2    0.133997    0.560233    0.442819    11.00000   -1.20000 
AFIX   0 
C21   1    0.101401    0.434064    0.444731    11.00000    0.10187    0.06583 = 
         0.07272   -0.01288   -0.00836   -0.00069 
AFIX  43 
H21   2    0.090952    0.431852    0.493575    11.00000   -1.20000 
AFIX   0 
C22   1    0.090826    0.359536    0.404046    11.00000    0.07721    0.05905 = 
         0.06160   -0.00063    0.00260   -0.00150 
AFIX  43 
H22   2    0.072874    0.307789    0.425648    11.00000   -1.20000 
AFIX   0 
C23   1    0.176053    0.149917    0.393378    11.00000    0.06959    0.12614 = 
         0.08251    0.03278   -0.00592   -0.00526 
AFIX 137 
H23A  2    0.194113    0.091339    0.382076    11.00000   -1.50000 
H23B  2    0.176095    0.157716    0.444260    11.00000   -1.50000 
H23C  2    0.213872    0.191491    0.371921    11.00000   -1.50000 
AFIX   0 
C24   1    0.019504    0.000587    0.366958    11.00000    0.11836    0.04466 = 
         0.08232    0.00153    0.01012   -0.00219 
AFIX 137 
H24A  2   -0.019515   -0.036339    0.392165    11.00000   -1.50000 
H24B  2    0.075621   -0.021943    0.372733    11.00000   -1.50000 
H24C  2    0.005207    0.001449    0.317139    11.00000   -1.50000 
AFIX   0 
HKLF 4 
  
REM  cd17172 in Pbca 
REM R1 =  0.0520 for    2792 Fo > 4sig(Fo)  and  0.0756 for all    3983 data 
REM    282 parameters refined using      0 restraints 
  
END 
  
WGHT      0.0765      1.8115 
  
REM Instructions for potential hydrogen bonds 
HTAB C24 N1 
  
REM Highest difference peak  0.514,  deepest hole -0.148,  1-sigma level  0.045 
Q1    1   0.0328  0.0862  0.1273  11.00000  0.05    0.51 
Q2    1   0.0747  0.0154  0.1650  11.00000  0.05    0.36 
Q3    1  -0.0187  0.1145  0.4514  11.00000  0.05    0.26 
Q4    1   0.2165  0.0333  0.1070  11.00000  0.05    0.24 
Q5    1   0.0637  0.1227  0.3666  11.00000  0.05    0.24 
Q6    1   0.2932 -0.0327  0.0710  11.00000  0.05    0.23 
Q7    1  -0.0120  0.1458  0.1670  11.00000  0.05    0.21 
Q8    1   0.1712  0.0981  0.4350  11.00000  0.05    0.21 
Q9    1   0.1861  0.4785  0.3403  11.00000  0.05    0.21 
Q10   1   0.0485  0.0620  0.4416  11.00000  0.05    0.20 
Q11   1   0.0180  0.0451  0.3782  11.00000  0.05    0.20 
Q12   1   0.0904  0.1767  0.3371  11.00000  0.05    0.19 
Q13   1   0.0508  0.1429  0.4639  11.00000  0.05    0.19 
Q14   1  -0.0371  0.1696  0.3805  11.00000  0.05    0.18 
Q15   1   0.1294  0.4224  0.5005  11.00000  0.05    0.16 
Q16   1   0.0109  0.1066  0.2481  11.00000  0.05    0.16 
Q17   1  -0.0208  0.1271  0.3521  11.00000  0.05    0.16 
Q18   1  -0.0820  0.2096  0.1782  11.00000  0.05    0.15 
Q19   1  -0.0384  0.2420  0.1869  11.00000  0.05    0.15 
Q20   1   0.1682 -0.1001  0.1488  11.00000  0.05    0.15 
;
_shelx_res_checksum              47037
_shelx_hkl_file
; 
   0   1   0    0.00    0.00 
   0   2   0    0.31    0.03 
   0   3   0    0.00    0.02 
   0   4   0  136.53    4.89 
   0   5   0    0.04    0.02 
   0   6   0   30.89    1.15 
   0   7   0    0.01    0.03 
   0  -8   0   31.91    1.20 
   0  -9   0   -0.03    0.04 
   0 -10   0    2.57    0.16 
   0 -11   0    0.00    0.05 
   0 -12   0    4.22    0.24 
   0 -13   0   -0.01    0.06 
   0 -14   0    4.25    0.26 
   0 -14   0    4.04    0.25 
   0 -15   0    0.02    0.08 
   0 -15   0    0.02    0.08 
   0 -16   0   -0.12    0.07 
   0 -17   0   -0.02    0.09 
   0 -18   0    0.60    0.15 
   0 -19   0    0.04    0.11 
   0 -20   0    1.65    0.23 
   1 -20   0   -0.06    0.13 
   1 -19   0    0.00    0.12 
   1 -18   0   -0.03    0.10 
   1 -17   0   -0.08    0.09 
   1 -16   0   -0.07    0.07 
   1 -15   0    0.03    0.09 
   1 -15   0    0.12    0.08 
   1 -14   0    0.02    0.08 
   1 -14   0    0.03    0.07 
   1 -13   0   -0.10    0.05 
   1 -13   0   -0.08    0.07 
   1 -12   0   -0.04    0.05 
   1 -11   0   -0.03    0.04 
   1 -10   0   -0.03    0.04 
   1  -9   0    0.04    0.04 
   1  -8   0   -0.05    0.03 
   1  -7   0    0.02    0.03 
   1  -6   0   -0.02    0.03 
   1  -5   0    0.13    0.03 
   1  -4   0    0.02    0.02 
   1  -3   0    0.06    0.02 
   1  -2   0   -0.01    0.01 
   1  -1   0   -0.06    0.01 
  -1   0   0   -0.50    0.00 
   1   0   0   -0.51    0.00 
   1   0   0   -0.49    0.00 
  -1  -1   0   -0.02    0.01 
   1   1   0   -0.05    0.01 
   1   2   0    0.03    0.02 
   1   3   0    0.08    0.03 
   1   4   0    0.00    0.02 
   1   5   0    0.11    0.03 
   1   6   0    0.01    0.03 
   1   7   0   -0.03    0.02 
   1   8   0   -0.03    0.03 
   1   9   0   -0.02    0.04 
   1  10   0   -0.08    0.04 
  -1 -11   0    0.10    0.06 
  -1 -12   0    0.07    0.06 
  -1 -13   0   -0.02    0.06 
  -1 -14   0   -0.08    0.08 
  -1 -15   0   -0.04    0.08 
  -1 -15   0   -0.04    0.08 
  -1 -16   0   -0.06    0.08 
  -1 -17   0    0.01    0.09 
  -1 -18   0   -0.15    0.09 
  -1 -19   0    0.06    0.12 
  -1 -20   0    0.00    0.14 
   2 -20   0    0.44    0.17 
   2 -19   0    0.08    0.12 
   2 -18   0    0.71    0.16 
   2 -17   0   -0.03    0.10 
   2 -16   0   -0.02    0.08 
   2 -15   0    0.37    0.11 
   2 -15   0    0.23    0.10 
   2 -14   0    0.96    0.12 
   2 -14   0    0.50    0.12 
   2 -13   0    2.28    0.16 
   2 -13   0    2.06    0.18 
   2 -12   0    0.93    0.11 
   2 -11   0    1.53    0.13 
   2 -10   0    0.55    0.08 
   2  -9   0    3.27    0.17 
   2  -8   0   22.18    0.84 
   2  -7   0    7.05    0.30 
   2  -6   0   18.40    0.70 
   2  -5   0   34.23    1.25 
   2  -4   0   30.59    1.12 
   2  -3   0  362.37   12.91 
   2  -2   0   67.31    2.42 
   2  -1   0   63.55    2.23 
   2  -1   0   60.64    2.17 
  -2   0   0  334.28   12.29 
   2   0   0  342.25   12.07 
  -2  -1   0   60.21    2.24 
   2   1   0   62.80    2.21 
   2   1   0   61.35    2.18 
  -2  -2   0   63.55    2.33 
   2   2   0   64.23    2.30 
  -2  -3   0  370.69   13.32 
   2   3   0  363.80   13.09 
   2   4   0   30.17    1.11 
   2   5   0   34.56    1.28 
   2   6   0   20.46    0.78 
   2   7   0    7.56    0.33 
   2   8   0   23.73    0.92 
   2   9   0    3.54    0.20 
   2  10   0    0.87    0.11 
   2  11   0    1.54    0.14 
   2  12   0    0.90    0.12 
  -2 -14   0    0.97    0.15 
  -2 -15   0    0.38    0.12 
  -2 -15   0    0.46    0.11 
  -2 -16   0   -0.01    0.08 
  -2 -16   0    0.05    0.09 
  -2 -17   0    0.34    0.12 
  -2 -18   0    0.55    0.14 
  -2 -19   0    0.18    0.12 
  -2 -20   0    0.43    0.16 
   3 -20   0   -0.07    0.13 
   3 -19   0    0.05    0.13 
   3 -18   0    0.06    0.11 
   3 -17   0   -0.07    0.10 
   3 -16   0   -0.01    0.09 
   3 -15   0    0.05    0.09 
   3 -15   0    0.03    0.08 
   3 -14   0   -0.02    0.07 
   3 -14   0    0.07    0.09 
   3 -13   0    0.03    0.06 
   3 -13   0   -0.06    0.07 
   3 -12   0    0.03    0.08 
   3 -12   0    0.08    0.06 
   3 -11   0   -0.15    0.06 
   3 -11   0   -0.01    0.05 
   3 -10   0    0.01    0.05 
   3  -9   0    0.03    0.04 
   3  -8   0   -0.06    0.03 
   3  -7   0    0.02    0.04 
   3  -6   0    0.06    0.03 
   3  -5   0    0.01    0.03 
   3  -4   0    0.03    0.03 
   3  -3   0    0.02    0.02 
   3  -2   0    0.02    0.02 
   3  -2   0    0.00    0.02 
   3  -1   0   -0.03    0.02 
   3  -1   0   -0.07    0.02 
  -3   0   0    0.11    0.02 
   3   0   0    0.09    0.01 
   3   0   0    0.06    0.02 
  -3  -1   0   -0.01    0.02 
   3   1   0   -0.06    0.02 
   3   1   0   -0.04    0.01 
  -3  -2   0    0.10    0.03 
   3   2   0    0.09    0.01 
   3   2   0    0.05    0.02 
  -3  -3   0    0.00    0.02 
   3   3   0    0.07    0.03 
  -3  -4   0    0.12    0.03 
   3   4   0    0.07    0.03 
  -3  -5   0    0.00    0.04 
   3   5   0    0.02    0.03 
   3   6   0    0.00    0.03 
   3   7   0    0.07    0.04 
   3   8   0   -0.04    0.03 
   3   9   0    0.03    0.05 
   3  10   0   -0.05    0.04 
   3  11   0    0.05    0.06 
   3  12   0    0.07    0.06 
   3  13   0   -0.10    0.06 
   3  14   0   -0.09    0.08 
  -3 -15   0    0.16    0.10 
  -3 -15   0   -0.06    0.09 
  -3 -16   0   -0.02    0.08 
  -3 -16   0    0.23    0.11 
  -3 -17   0   -0.05    0.09 
  -3 -18   0    0.07    0.11 
  -3 -19   0    0.04    0.13 
   4 -19   0    0.07    0.13 
   4 -18   0    2.33    0.24 
   4 -17   0    0.09    0.11 
   4 -16   0    0.63    0.14 
   4 -15   0    0.05    0.09 
   4 -14   0   13.99    0.60 
   4 -14   0   12.79    0.57 
   4 -13   0    0.61    0.10 
   4 -13   0    0.51    0.12 
   4 -12   0    0.10    0.06 
   4 -12   0    0.10    0.08 
   4 -11   0    1.10    0.12 
   4 -11   0    1.12    0.13 
   4 -10   0   15.51    0.60 
   4 -10   0   14.14    0.61 
   4  -9   0    1.14    0.12 
   4  -9   0    1.17    0.11 
   4  -8   0   37.74    1.40 
   4  -7   0   13.72    0.54 
   4  -6   0    4.81    0.22 
   4  -5   0   77.93    2.77 
   4  -5   0   75.33    2.71 
   4  -4   0    2.18    0.12 
   4  -4   0    2.26    0.12 
   4  -3   0   19.69    0.72 
   4  -3   0   19.45    0.73 
   4  -2   0    2.28    0.11 
   4  -2   0    2.25    0.11 
   4  -1   0   66.66    2.40 
   4   0   0  224.44    8.19 
   4   0   0  234.43    7.98 
  -4  -1   0   65.56    2.36 
   4   1   0   62.22    2.32 
   4   1   0   65.00    2.25 
  -4  -2   0    2.58    0.12 
   4   2   0    2.29    0.12 
   4   2   0    2.37    0.10 
  -4  -3   0   19.91    0.73 
   4   3   0   18.73    0.73 
  -4  -4   0    2.57    0.13 
   4   4   0    2.49    0.14 
  -4  -5   0   77.67    2.85 
   4   5   0   77.32    2.81 
  -4  -6   0    4.63    0.21 
   4   6   0    4.34    0.22 
  -4  -7   0   15.45    0.61 
   4   7   0   14.64    0.61 
  -4  -8   0   38.77    1.47 
   4   8   0   38.81    1.46 
   4   9   0    1.23    0.12 
   4  10   0   15.05    0.63 
   4  11   0    0.94    0.12 
   4  12   0    0.04    0.06 
   4  13   0    0.81    0.14 
   4  14   0   12.63    0.58 
  -4 -15   0   -0.02    0.08 
   4  15   0   -0.03    0.10 
  -4 -16   0    0.57    0.12 
   4  16   0    0.60    0.16 
  -4 -17   0    0.08    0.10 
  -4 -18   0    2.44    0.24 
   5 -19   0   -0.19    0.11 
   5 -18   0   -0.15    0.11 
   5 -17   0   -0.01    0.11 
   5 -16   0    0.09    0.11 
   5 -15   0   -0.07    0.09 
   5 -14   0    0.03    0.08 
   5 -14   0   -0.03    0.09 
   5 -13   0    0.07    0.09 
   5 -13   0    0.00    0.06 
   5 -12   0    0.07    0.06 
   5 -12   0    0.06    0.08 
   5 -11   0   -0.10    0.06 
   5 -11   0    0.01    0.06 
   5 -10   0   -0.01    0.07 
   5 -10   0    0.01    0.05 
   5  -9   0   -0.02    0.05 
   5  -9   0    0.01    0.05 
   5  -8   0    0.00    0.05 
   5  -8   0    0.07    0.05 
   5  -7   0    0.04    0.05 
   5  -7   0    0.05    0.05 
   5  -6   0    0.06    0.04 
   5  -6   0    0.04    0.04 
   5  -5   0    0.04    0.04 
   5  -5   0   -0.08    0.03 
   5  -4   0    0.04    0.03 
   5  -4   0    0.12    0.04 
   5  -3   0    0.02    0.03 
   5  -3   0    0.06    0.03 
   5  -2   0    0.10    0.03 
   5  -2   0    0.04    0.02 
   5  -1   0    0.00    0.01 
   5  -1   0    0.01    0.03 
   5   0   0    0.16    0.02 
   5   0   0    0.11    0.04 
  -5  -1   0    0.06    0.03 
   5   1   0    0.03    0.02 
   5   1   0    0.02    0.03 
  -5  -2   0    0.09    0.03 
   5   2   0    0.07    0.04 
   5   2   0    0.05    0.01 
  -5  -3   0    0.01    0.03 
   5   3   0    0.06    0.03 
   5   3   0    0.02    0.01 
  -5  -4   0    0.11    0.04 
   5   4   0    0.07    0.04 
  -5  -5   0    0.01    0.03 
   5   5   0   -0.04    0.03 
  -5  -6   0    0.08    0.04 
   5   6   0    0.03    0.04 
  -5  -7   0    0.01    0.05 
   5   7   0    0.03    0.05 
  -5  -8   0    0.05    0.05 
   5   8   0   -0.03    0.04 
  -5  -9   0    0.04    0.05 
   5   9   0    0.01    0.05 
  -5 -10   0   -0.03    0.06 
   5  10   0   -0.02    0.05 
  -5 -11   0   -0.01    0.06 
   5  11   0   -0.06    0.06 
  -5 -12   0    0.04    0.07 
   5  12   0   -0.03    0.07 
  -5 -13   0    0.04    0.09 
   5  13   0   -0.05    0.09 
  -5 -14   0    0.08    0.09 
   5  14   0   -0.06    0.09 
  -5 -15   0   -0.03    0.08 
  -5 -15   0    0.04    0.08 
   5  15   0   -0.07    0.09 
  -5 -16   0    0.05    0.10 
  -5 -16   0   -0.08    0.09 
   5  16   0   -0.05    0.10 
  -5 -17   0    0.02    0.10 
  -5 -18   0   -0.01    0.13 
   6 -19   0    0.00    0.13 
   6 -18   0    1.41    0.21 
   6 -17   0    0.06    0.12 
   6 -16   0    0.09    0.10 
   6 -15   0    0.29    0.12 
   6 -14   0    4.47    0.27 
   6 -14   0    4.88    0.30 
   6 -13   0    2.93    0.22 
   6 -13   0    2.98    0.20 
   6 -12   0    0.74    0.13 
   6 -12   0    1.34    0.13 
   6 -11   0   13.41    0.58 
   6 -11   0   13.28    0.56 
   6 -10   0   28.92    1.12 
   6 -10   0   29.73    1.12 
   6  -9   0    0.33    0.08 
   6  -9   0    0.45    0.08 
   6  -8   0    0.96    0.10 
   6  -8   0    0.99    0.11 
   6  -7   0    0.64    0.08 
   6  -7   0    0.71    0.09 
   6  -6   0   12.96    0.50 
   6  -6   0   12.12    0.50 
   6  -5   0    2.12    0.13 
   6  -5   0    2.25    0.13 
   6  -4   0    0.11    0.04 
   6  -4   0    0.10    0.04 
   6  -3   0   18.83    0.68 
   6  -3   0   17.92    0.70 
   6  -2   0   60.46    2.11 
   6  -2   0   59.10    2.17 
   6  -1   0    0.05    0.02 
   6  -1   0    0.04    0.04 
   6   0   0    4.54    0.21 
   6   0   0    4.41    0.18 
  -6  -1   0    0.03    0.04 
   6   1   0    0.07    0.02 
   6   1   0    0.07    0.04 
  -6  -2   0   59.42    2.22 
   6   2   0   59.11    2.20 
   6   2   0   61.88    2.10 
  -6  -3   0   19.32    0.73 
   6   3   0   19.39    0.67 
   6   3   0   17.84    0.73 
  -6  -4   0    0.17    0.05 
   6   4   0    0.22    0.06 
  -6  -5   0    2.30    0.13 
   6   5   0    2.15    0.14 
  -6  -6   0   12.07    0.51 
   6   6   0   12.84    0.52 
  -6  -7   0    0.80    0.09 
   6   7   0    0.91    0.11 
  -6  -8   0    1.04    0.11 
   6   8   0    1.07    0.12 
  -6  -9   0    0.36    0.08 
   6   9   0    0.38    0.09 
  -6 -10   0   29.36    1.14 
   6  10   0   28.66    1.15 
  -6 -11   0   13.03    0.55 
   6  11   0   12.16    0.57 
  -6 -12   0    1.17    0.14 
   6  12   0    1.23    0.16 
  -6 -13   0    3.36    0.23 
   6  13   0    3.66    0.25 
  -6 -14   0    4.24    0.28 
   6  14   0    5.08    0.31 
  -6 -15   0    0.34    0.12 
   6  15   0    0.40    0.14 
  -6 -16   0   -0.08    0.09 
   6  16   0    0.03    0.11 
  -6 -17   0    0.05    0.11 
   7 -19   0   -0.02    0.14 
   7 -18   0    0.02    0.13 
   7 -17   0    0.19    0.13 
   7 -16   0   -0.12    0.10 
   7 -15   0    0.10    0.10 
   7 -14   0    0.02    0.08 
   7 -14   0    0.02    0.08 
   7 -13   0   -0.03    0.07 
   7 -13   0    0.04    0.08 
   7 -12   0    0.01    0.07 
   7 -12   0    0.04    0.09 
   7 -11   0    0.11    0.08 
   7 -11   0   -0.01    0.06 
   7 -10   0   -0.08    0.06 
   7 -10   0    0.05    0.08 
   7  -9   0    0.01    0.06 
   7  -9   0    0.03    0.07 
   7  -8   0    0.04    0.06 
   7  -8   0   -0.03    0.06 
   7  -7   0   -0.01    0.05 
   7  -7   0    0.08    0.05 
   7  -6   0    0.02    0.05 
   7  -6   0    0.08    0.05 
   7  -5   0   -0.01    0.03 
   7  -5   0    0.00    0.04 
   7  -4   0    0.07    0.04 
   7  -4   0    0.05    0.04 
   7  -3   0    0.02    0.04 
   7  -3   0    0.02    0.03 
   7  -2   0    0.01    0.03 
   7  -2   0    0.08    0.04 
   7  -1   0    0.02    0.02 
   7  -1   0   -0.03    0.03 
   7   0   0    0.03    0.04 
   7   0   0    0.02    0.02 
  -7  -1   0    0.04    0.03 
   7   1   0   -0.02    0.02 
   7   1   0    0.02    0.04 
  -7  -2   0    0.05    0.04 
   7   2   0    0.02    0.04 
   7   2   0    0.03    0.02 
  -7  -3   0    0.02    0.04 
   7   3   0    0.05    0.05 
   7   3   0    0.03    0.02 
  -7  -4   0   -0.01    0.04 
   7   4   0    0.03    0.04 
  -7  -5   0   -0.04    0.04 
   7   5   0    0.06    0.05 
  -7  -6   0   -0.02    0.05 
   7   6   0    0.09    0.05 
  -7  -7   0    0.00    0.05 
   7   7   0    0.09    0.06 
  -7  -8   0    0.04    0.05 
   7   8   0   -0.02    0.05 
  -7  -9   0   -0.07    0.06 
   7   9   0    0.10    0.06 
  -7 -10   0    0.05    0.07 
   7  10   0    0.00    0.08 
  -7 -11   0    0.03    0.07 
   7  11   0    0.05    0.08 
  -7 -12   0   -0.08    0.07 
   7  12   0   -0.04    0.08 
  -7 -13   0   -0.04    0.08 
   7  13   0   -0.05    0.09 
  -7 -14   0    0.01    0.09 
   7  14   0    0.00    0.09 
  -7 -15   0   -0.05    0.09 
   7  15   0    0.04    0.11 
  -7 -16   0    0.05    0.10 
   7  16   0   -0.09    0.11 
   8 -18   0    0.35    0.15 
   8 -17   0    0.71    0.16 
   8 -16   0    0.16    0.10 
   8 -15   0    1.89    0.20 
   8 -14   0    0.16    0.10 
   8 -13   0    4.95    0.30 
   8 -13   0    4.68    0.27 
   8 -12   0    0.37    0.10 
   8 -12   0    0.44    0.12 
   8 -11   0    0.26    0.09 
   8 -11   0    0.13    0.09 
   8 -10   0    3.78    0.23 
   8 -10   0    3.67    0.22 
   8  -9   0    1.91    0.15 
   8  -9   0    2.27    0.17 
   8  -8   0    0.27    0.07 
   8  -8   0    0.28    0.07 
   8  -7   0   13.21    0.56 
   8  -7   0   14.07    0.56 
   8  -6   0   11.06    0.47 
   8  -6   0   11.38    0.46 
   8  -5   0    0.50    0.07 
   8  -5   0    0.41    0.07 
   8  -4   0    0.50    0.07 
   8  -4   0    0.45    0.07 
   8  -3   0   12.58    0.48 
   8  -3   0   12.32    0.51 
   8  -2   0   33.55    1.26 
   8  -1   0   17.51    0.71 
   8  -1   0   18.53    0.66 
   8   0   0    4.19    0.22 
   8   0   0    4.21    0.17 
  -8  -1   0   16.68    0.70 
   8   1   0   17.84    0.63 
   8   1   0   18.30    0.70 
  -8  -2   0   34.38    1.30 
   8   2   0   32.53    1.29 
   8   2   0   35.21    1.20 
  -8  -3   0   12.19    0.52 
   8   3   0   13.16    0.46 
   8   3   0   12.33    0.53 
  -8  -4   0    0.48    0.07 
   8   4   0    0.54    0.09 
  -8  -5   0    0.48    0.07 
   8   5   0    0.52    0.09 
  -8  -6   0   11.14    0.47 
   8   6   0   11.33    0.49 
  -8  -7   0   14.16    0.57 
   8   7   0   13.49    0.59 
  -8  -8   0    0.23    0.07 
   8   8   0    0.32    0.09 
  -8  -9   0    1.85    0.15 
   8   9   0    2.14    0.19 
  -8 -10   0    3.73    0.22 
   8  10   0    3.83    0.25 
  -8 -11   0    0.34    0.09 
   8  11   0    0.19    0.10 
  -8 -12   0    0.42    0.11 
   8  12   0    0.26    0.11 
  -8 -13   0    4.67    0.28 
   8  13   0    4.47    0.30 
  -8 -14   0   -0.01    0.09 
   8  14   0    0.07    0.11 
  -8 -15   0    1.54    0.18 
   8  15   0    1.62    0.21 
   8  16   0    0.22    0.13 
   8  17   0    0.91    0.21 
   9 -18   0    0.10    0.11 
   9 -17   0   -0.10    0.10 
   9 -16   0   -0.02    0.10 
   9 -15   0   -0.08    0.09 
   9 -14   0    0.04    0.09 
   9 -13   0    0.03    0.09 
   9 -13   0    0.03    0.09 
   9 -12   0   -0.07    0.08 
   9 -12   0    0.01    0.08 
   9 -11   0   -0.09    0.08 
   9 -11   0    0.09    0.09 
   9 -10   0    0.00    0.08 
   9 -10   0    0.01    0.06 
   9  -9   0    0.03    0.07 
   9  -9   0   -0.13    0.07 
   9  -8   0    0.00    0.07 
   9  -8   0   -0.06    0.05 
   9  -7   0   -0.01    0.05 
   9  -7   0    0.01    0.06 
   9  -6   0   -0.02    0.05 
   9  -6   0    0.07    0.05 
   9  -5   0   -0.03    0.04 
   9  -5   0    0.04    0.05 
   9  -4   0    0.07    0.04 
   9  -4   0   -0.04    0.05 
   9  -3   0    0.05    0.05 
   9  -3   0    0.05    0.04 
   9  -2   0    0.02    0.02 
   9  -2   0   -0.01    0.05 
   9  -1   0    0.00    0.05 
   9  -1   0    0.05    0.03 
   9   0   0    0.01    0.03 
   9   0   0    0.02    0.05 
   9   1   0    0.03    0.02 
   9   1   0    0.02    0.05 
  -9  -2   0    0.04    0.05 
   9   2   0    0.02    0.02 
   9   2   0    0.04    0.06 
  -9  -3   0    0.04    0.05 
   9   3   0    0.02    0.05 
   9   3   0    0.02    0.02 
  -9  -4   0   -0.02    0.04 
   9   4   0    0.08    0.06 
  -9  -5   0    0.01    0.05 
   9   5   0    0.03    0.05 
  -9  -6   0   -0.06    0.05 
   9   6   0   -0.07    0.05 
  -9  -7   0    0.00    0.05 
   9   7   0    0.04    0.06 
  -9  -8   0    0.00    0.06 
   9   8   0    0.11    0.08 
  -9  -9   0    0.02    0.06 
   9   9   0    0.04    0.08 
  -9 -10   0    0.08    0.07 
   9  10   0    0.04    0.08 
  -9 -11   0   -0.09    0.07 
   9  11   0   -0.05    0.08 
  -9 -12   0    0.01    0.09 
   9  12   0    0.06    0.10 
  -9 -13   0    0.06    0.09 
   9  13   0   -0.02    0.08 
  -9 -14   0    0.02    0.09 
   9  14   0    0.15    0.11 
   9  15   0    0.29    0.13 
   9  16   0    0.04    0.12 
   9  17   0   -0.05    0.14 
  10 -17   0    0.29    0.13 
  10 -16   0    0.04    0.11 
  10 -15   0    0.72    0.15 
  10 -14   0    0.05    0.10 
  10 -13   0    0.52    0.12 
  10 -13   0    0.69    0.14 
  10 -12   0    0.95    0.15 
  10 -12   0    0.71    0.13 
  10 -11   0    0.23    0.09 
  10 -11   0    0.33    0.11 
  10 -10   0    0.72    0.11 
  10 -10   0    0.37    0.11 
  10  -9   0    0.46    0.10 
  10  -9   0    0.57    0.11 
  10  -8   0    0.09    0.08 
  10  -8   0    0.10    0.07 
  10  -7   0    4.92    0.27 
  10  -7   0    5.48    0.27 
  10  -6   0    0.22    0.07 
  10  -6   0    0.30    0.07 
  10  -5   0    0.13    0.06 
  10  -5   0    0.11    0.06 
  10  -4   0    0.85    0.11 
  10  -4   0    1.00    0.09 
  10  -3   0   12.70    0.49 
  10  -3   0   12.52    0.53 
  10  -2   0    0.09    0.04 
  10  -2   0    0.06    0.06 
  10  -1   0   -0.01    0.05 
  10  -1   0    0.04    0.03 
  10   0   0    4.30    0.18 
  10   0   0    4.23    0.23 
  10   1   0    0.04    0.06 
  10   1   0    0.01    0.02 
 -10  -2   0    0.10    0.06 
  10   2   0    0.11    0.03 
  10   2   0    0.15    0.07 
 -10  -3   0   12.63    0.54 
  10   3   0   12.39    0.55 
  10   3   0   13.00    0.46 
 -10  -4   0    1.01    0.11 
  10   4   0    0.99    0.13 
 -10  -5   0    0.09    0.06 
  10   5   0    0.11    0.07 
 -10  -6   0    0.33    0.08 
  10   6   0    0.30    0.09 
 -10  -7   0    5.85    0.29 
  10   7   0    5.77    0.32 
 -10  -8   0    0.03    0.06 
  10   8   0    0.05    0.08 
 -10  -9   0    0.49    0.10 
  10   9   0    0.51    0.12 
 -10 -10   0    0.62    0.12 
  10  10   0    0.45    0.12 
 -10 -11   0    0.11    0.09 
  10  11   0    0.20    0.11 
 -10 -12   0    0.49    0.12 
  10  12   0    0.68    0.15 
 -10 -13   0    0.71    0.14 
  10  13   0    0.81    0.17 
  10  14   0   -0.12    0.10 
  10  15   0    1.07    0.20 
  10  16   0    0.31    0.16 
  10  17   0   -0.10    0.15 
  11 -17   0    0.22    0.11 
  11 -16   0    0.14    0.11 
  11 -15   0   -0.04    0.11 
  11 -14   0   -0.04    0.10 
  11 -13   0    0.01    0.09 
  11 -12   0    0.10    0.10 
  11 -12   0    0.19    0.11 
  11 -11   0   -0.02    0.09 
  11 -11   0    0.14    0.10 
  11 -10   0   -0.12    0.09 
  11 -10   0   -0.05    0.07 
  11  -9   0   -0.10    0.07 
  11  -9   0   -0.05    0.07 
  11  -8   0    0.02    0.08 
  11  -8   0   -0.01    0.07 
  11  -7   0    0.02    0.08 
  11  -7   0    0.05    0.07 
  11  -6   0   -0.03    0.06 
  11  -6   0   -0.07    0.06 
  11  -5   0    0.07    0.05 
  11  -5   0   -0.04    0.05 
  11  -4   0    0.01    0.05 
  11  -4   0    0.07    0.07 
  11  -3   0    0.06    0.06 
  11  -3   0    0.00    0.04 
  11  -2   0    0.09    0.05 
  11  -2   0   -0.01    0.06 
  11  -1   0    0.00    0.04 
  11  -1   0    0.01    0.06 
  11   0   0   -0.06    0.03 
  11   0   0    0.02    0.06 
  11   1   0   -0.01    0.03 
  11   1   0   -0.03    0.05 
  11   2   0    0.03    0.06 
  11   2   0    0.05    0.03 
 -11  -3   0   -0.05    0.05 
  11   3   0   -0.05    0.05 
 -11  -4   0    0.01    0.06 
  11   4   0    0.01    0.06 
 -11  -5   0   -0.12    0.05 
  11   5   0   -0.11    0.05 
 -11  -6   0    0.03    0.06 
  11   6   0    0.01    0.07 
 -11  -7   0    0.02    0.06 
  11   7   0   -0.01    0.08 
 -11  -8   0   -0.01    0.06 
  11   8   0   -0.02    0.08 
 -11  -9   0    0.07    0.07 
  11   9   0   -0.06    0.08 
 -11 -10   0   -0.02    0.08 
  11  10   0    0.09    0.09 
 -11 -11   0   -0.03    0.07 
  11  11   0   -0.01    0.09 
 -11 -12   0   -0.10    0.07 
  11  12   0    0.18    0.12 
  11  13   0   -0.01    0.11 
  11  14   0   -0.12    0.10 
  11  15   0    0.17    0.13 
  11  16   0   -0.03    0.13 
  11  17   0    0.24    0.16 
  12 -16   0    0.02    0.11 
  12 -15   0    0.00    0.10 
  12 -14   0    0.00    0.10 
  12 -13   0   -0.02    0.09 
  12 -12   0    0.00    0.09 
  12 -12   0    0.20    0.11 
  12 -11   0    0.25    0.11 
  12 -11   0    0.22    0.10 
  12 -10   0    0.66    0.13 
  12 -10   0    0.62    0.13 
  12  -9   0    0.73    0.12 
  12  -9   0    0.49    0.11 
  12  -8   0    0.41    0.10 
  12  -8   0    0.41    0.10 
  12  -7   0    0.88    0.12 
  12  -7   0    0.77    0.13 
  12  -6   0    1.35    0.13 
  12  -6   0    1.47    0.15 
  12  -5   0    4.62    0.27 
  12  -5   0    4.63    0.24 
  12  -4   0    0.72    0.11 
  12  -4   0    0.67    0.09 
  12  -3   0    6.32    0.33 
  12  -2   0    2.90    0.16 
  12  -2   0    2.78    0.20 
  12  -1   0    8.98    0.36 
  12  -1   0    9.01    0.43 
  12   0   0    1.90    0.11 
  12   0   0    1.60    0.16 
  12   1   0    9.20    0.44 
  12   2   0    2.91    0.21 
 -12  -3   0    6.06    0.31 
  12   3   0    5.52    0.31 
 -12  -4   0    0.64    0.10 
  12   4   0    0.67    0.12 
 -12  -5   0    4.13    0.24 
  12   5   0    4.46    0.28 
 -12  -6   0    1.19    0.14 
  12   6   0    1.63    0.18 
 -12  -7   0    0.71    0.11 
  12   7   0    0.63    0.13 
 -12  -8   0    0.55    0.10 
  12   8   0    0.27    0.11 
 -12  -9   0    0.60    0.11 
  12   9   0    0.85    0.16 
 -12 -10   0    0.78    0.12 
  12  10   0    0.59    0.14 
 -12 -11   0    0.38    0.11 
  12  11   0    0.10    0.11 
  12  12   0    0.13    0.12 
  12  13   0   -0.05    0.11 
  12  14   0    0.16    0.14 
  12  15   0   -0.16    0.11 
  12  16   0    0.02    0.14 
  13 -16   0    0.09    0.12 
  13 -15   0    0.07    0.13 
  13 -14   0    0.11    0.11 
  13 -13   0    0.02    0.11 
  13 -12   0    0.08    0.10 
  13 -12   0    0.03    0.10 
  13 -11   0    0.08    0.09 
  13 -11   0   -0.06    0.09 
  13 -10   0   -0.03    0.09 
  13 -10   0   -0.07    0.08 
  13  -9   0   -0.03    0.09 
  13  -9   0    0.10    0.10 
  13  -8   0    0.13    0.09 
  13  -8   0    0.04    0.09 
  13  -7   0    0.02    0.08 
  13  -7   0    0.05    0.08 
  13  -6   0    0.07    0.08 
  13  -6   0    0.03    0.08 
  13  -5   0   -0.04    0.07 
  13  -5   0    0.03    0.06 
  13  -4   0    0.01    0.06 
  13  -4   0   -0.07    0.07 
  13  -3   0    0.07    0.08 
  13  -3   0   -0.01    0.05 
  13  -2   0    0.06    0.08 
  13  -2   0    0.05    0.06 
  13  -1   0   -0.05    0.07 
  13   0   0    0.01    0.07 
  13   1   0   -0.13    0.07 
  13   2   0   -0.11    0.08 
  13   3   0    0.00    0.08 
 -13  -4   0    0.01    0.07 
  13   4   0   -0.10    0.06 
 -13  -5   0    0.00    0.07 
  13   5   0   -0.03    0.08 
 -13  -6   0    0.09    0.08 
  13   6   0    0.00    0.08 
 -13  -7   0   -0.05    0.07 
  13   7   0    0.03    0.08 
 -13  -8   0   -0.01    0.07 
  13   8   0    0.06    0.09 
 -13  -9   0    0.10    0.09 
  13   9   0   -0.06    0.08 
 -13 -10   0    0.00    0.09 
  13  10   0   -0.03    0.09 
 -13 -11   0    0.02    0.09 
  13  11   0    0.24    0.12 
  13  12   0    0.14    0.12 
  13  13   0    0.10    0.13 
  13  14   0   -0.12    0.13 
  13  15   0   -0.04    0.14 
  14 -15   0    0.05    0.12 
  14 -14   0    0.20    0.13 
  14 -13   0    0.03    0.12 
  14 -12   0    0.13    0.12 
  14 -11   0    1.16    0.17 
  14 -11   0    1.16    0.17 
  14 -10   0    0.02    0.10 
  14 -10   0    0.04    0.09 
  14  -9   0    0.03    0.09 
  14  -9   0    0.04    0.09 
  14  -8   0    0.27    0.11 
  14  -8   0    0.03    0.09 
  14  -7   0    0.44    0.12 
  14  -7   0    0.61    0.11 
  14  -6   0    0.25    0.09 
  14  -6   0    0.15    0.09 
  14  -5   0    0.45    0.12 
  14  -5   0    0.50    0.10 
  14  -4   0    0.30    0.10 
  14  -4   0    0.07    0.04 
  14  -3   0    3.11    0.17 
  14  -3   0    2.74    0.22 
  14  -2   0    0.73    0.13 
  14  -1   0    2.10    0.20 
  14   0   0    1.21    0.16 
  14   1   0    2.20    0.20 
  14   2   0    0.46    0.12 
  14   3   0    2.93    0.22 
  14   4   0    0.31    0.11 
 -14  -5   0    0.42    0.10 
  14   5   0    0.41    0.11 
 -14  -6   0    0.32    0.10 
  14   6   0    0.19    0.10 
 -14  -7   0    0.79    0.13 
  14   7   0    0.57    0.13 
 -14  -8   0    0.02    0.08 
  14   8   0    0.16    0.10 
 -14  -9   0   -0.14    0.07 
  14   9   0   -0.04    0.09 
  14  10   0    0.28    0.12 
  14  11   0    1.28    0.21 
  14  12   0   -0.01    0.12 
  14  13   0   -0.03    0.12 
  14  14   0    0.07    0.14 
  14  15   0   -0.01    0.13 
  15 -14   0    0.25    0.14 
  15 -13   0   -0.01    0.12 
  15 -12   0    0.09    0.12 
  15 -11   0   -0.10    0.11 
  15 -11   0   -0.01    0.11 
  15 -10   0    0.03    0.11 
  15 -10   0    0.10    0.11 
  15  -9   0   -0.05    0.10 
  15  -9   0   -0.05    0.09 
  15  -8   0   -0.04    0.09 
  15  -8   0   -0.09    0.08 
  15  -7   0    0.02    0.09 
  15  -7   0   -0.10    0.09 
  15  -6   0   -0.12    0.08 
  15  -6   0   -0.05    0.09 
  15  -5   0   -0.03    0.08 
  15  -4   0    0.03    0.09 
  15  -3   0   -0.06    0.09 
  15  -2   0    0.08    0.09 
  15  -1   0   -0.09    0.07 
  15   0   0    0.08    0.09 
  15   1   0    0.06    0.08 
  15   2   0    0.05    0.10 
  15   3   0   -0.04    0.09 
  15   4   0   -0.05    0.08 
  15   5   0    0.07    0.09 
 -15  -6   0    0.02    0.08 
  15   6   0   -0.01    0.09 
 -15  -7   0    0.01    0.09 
  15   7   0    0.01    0.09 
 -15  -8   0    0.00    0.09 
  15   8   0    0.13    0.11 
  15   9   0    0.09    0.12 
  15  10   0    0.19    0.12 
  15  11   0    0.24    0.15 
  15  12   0   -0.13    0.11 
  15  13   0    0.07    0.14 
  15  14   0    0.20    0.16 
  16 -13   0    0.10    0.13 
  16 -12   0    0.11    0.13 
  16 -11   0    0.42    0.14 
  16 -11   0    0.32    0.15 
  16 -10   0    0.02    0.12 
  16 -10   0   -0.10    0.11 
  16  -9   0    0.72    0.15 
  16  -9   0    1.01    0.16 
  16  -8   0    0.03    0.11 
  16  -8   0    0.01    0.10 
  16  -7   0    0.50    0.13 
  16  -6   0    0.06    0.10 
  16  -5   0    0.04    0.10 
  16  -4   0   -0.03    0.09 
  16  -3   0    0.13    0.10 
  16  -2   0    1.75    0.20 
  16  -1   0    0.48    0.13 
  16   0   0    0.77    0.15 
  16   1   0    0.56    0.14 
  16   2   0    2.39    0.24 
  16   3   0    0.01    0.10 
  16   4   0    0.18    0.10 
  16   5   0    0.09    0.10 
  16   6   0    0.33    0.12 
 -16  -7   0    0.34    0.11 
  16   7   0    0.38    0.12 
  16   8   0    0.05    0.11 
  16   9   0    0.52    0.16 
  16  10   0    0.12    0.13 
  16  11   0    0.31    0.15 
  16  12   0    0.16    0.13 
  16  13   0    0.20    0.15 
  17 -12   0   -0.04    0.14 
  17 -10   0   -0.13    0.14 
  17  -9   0   -0.03    0.13 
  17  -8   0    0.19    0.13 
  17  -7   0   -0.03    0.11 
  17  -6   0   -0.10    0.10 
  17  -5   0    0.14    0.11 
  17  -4   0   -0.11    0.09 
  17  -3   0   -0.10    0.09 
  17  -2   0   -0.05    0.10 
  17  -1   0   -0.05    0.09 
  17   0   0   -0.03    0.09 
  17   1   0   -0.02    0.10 
  17   2   0    0.14    0.12 
  17   3   0   -0.06    0.10 
  17   4   0    0.15    0.13 
  17   5   0   -0.09    0.10 
  17   6   0    0.09    0.11 
  17   7   0   -0.05    0.10 
  17   8   0    0.08    0.11 
  17   9   0    0.14    0.13 
  17  10   0    0.00    0.12 
  17  11   0   -0.02    0.12 
  17  12   0    0.02    0.13 
  18 -10   0    0.20    0.16 
  18  -9   0    0.01    0.14 
  18  -8   0    0.00    0.13 
  18  -7   0    0.75    0.18 
  18  -6   0    0.12    0.13 
  18  -5   0    0.04    0.12 
  18  -4   0    0.36    0.14 
  18  -3   0    0.04    0.11 
  18  -2   0   -0.05    0.11 
  18  -1   0   -0.17    0.10 
  18   0   0    0.12    0.13 
  18   1   0   -0.11    0.11 
  18   2   0   -0.10    0.11 
  18   3   0   -0.02    0.12 
  18   4   0    0.27    0.14 
  18   5   0    0.41    0.15 
  18   6   0    0.21    0.13 
  18   7   0    0.33    0.13 
  18   8   0    0.11    0.12 
  18   9   0    0.09    0.12 
  18  10   0    0.08    0.13 
  19  -8   0    0.05    0.17 
  19  -7   0    0.04    0.14 
  19  -6   0    0.07    0.14 
  19  -5   0   -0.06    0.14 
  19  -4   0    0.03    0.14 
  19  -3   0    0.20    0.14 
  19  -2   0   -0.10    0.12 
  19  -1   0   -0.05    0.12 
  19   0   0    0.08    0.13 
  19   1   0   -0.07    0.12 
  19   2   0   -0.07    0.12 
  19   3   0    0.06    0.14 
  19   4   0   -0.10    0.13 
  19   5   0   -0.02    0.10 
  19   6   0    0.03    0.12 
  19   7   0    0.01    0.10 
  19   8   0    0.02    0.12 
  20  -6   0   -0.09    0.15 
  20  -5   0    0.16    0.17 
  20  -4   0    0.00    0.15 
  20  -3   0    0.22    0.16 
  20  -2   0    0.04    0.13 
  20  -1   0    0.06    0.14 
  20   0   0    0.10    0.16 
  20   1   0   -0.08    0.13 
  20   2   0    0.16    0.15 
  20   3   0    0.30    0.16 
  20   4   0    0.09    0.15 
  20   5   0    0.25    0.13 
  20   6   0    0.04    0.12 
  21  -2   0    0.00    0.16 
  21  -1   0    0.11    0.16 
  21   0   0   -0.03    0.14 
  21   1   0    0.08    0.16 
  21   2   0   -0.08    0.16 
  21   1   1   -0.02    0.15 
  21   0   1    0.04    0.15 
  21  -1   1   -0.05    0.14 
  20   6   1    0.27    0.13 
  20   5   1    0.12    0.12 
  20   4   1    0.02    0.10 
  20   3   1    0.00    0.14 
  20   2   1    0.09    0.13 
  20   1   1    0.07    0.15 
  20   0   1   -0.06    0.13 
  20  -1   1    0.15    0.16 
  20  -2   1   -0.06    0.15 
  20  -3   1   -0.01    0.14 
  20  -4   1    0.17    0.15 
  20  -5   1    0.01    0.15 
  20  -6   1    0.01    0.15 
  19   8   1    0.32    0.13 
  19   7   1    0.05    0.11 
  19   6   1    0.37    0.14 
  19   5   1    0.02    0.11 
  19   4   1    0.06    0.09 
  19   3   1    0.05    0.13 
  19   2   1    0.15    0.14 
  19   1   1   -0.03    0.12 
  19   0   1   -0.16    0.11 
  19  -1   1   -0.01    0.12 
  19  -2   1   -0.01    0.12 
  19  -3   1    0.09    0.13 
  19  -4   1    0.18    0.15 
  19  -5   1    0.10    0.14 
  19  -6   1    0.08    0.15 
  19  -7   1    0.00    0.15 
  19  -8   1   -0.06    0.15 
  18  10   1    0.11    0.12 
  18   9   1    0.08    0.11 
  18   8   1    0.04    0.12 
  18   7   1    0.14    0.13 
  18   6   1    0.20    0.12 
  18   5   1    0.06    0.11 
  18   4   1    0.27    0.12 
  18   3   1    0.01    0.11 
  18   2   1    0.12    0.13 
  18   1   1    0.27    0.14 
  18   0   1    0.04    0.12 
  18  -1   1    0.08    0.12 
  18  -2   1   -0.02    0.11 
  18  -3   1   -0.10    0.11 
  18  -4   1    0.28    0.14 
  18  -5   1    0.11    0.13 
  18  -6   1    0.08    0.14 
  18  -7   1    0.08    0.14 
  18  -8   1    0.04    0.15 
  18  -9   1    0.27    0.17 
  18 -10   1    0.03    0.15 
  17  12   1    0.19    0.14 
  17  11   1    0.02    0.14 
  17  10   1    0.00    0.12 
  17   9   1    0.08    0.12 
  17   8   1    0.15    0.12 
  17   7   1    0.03    0.11 
 -17  -7  -1   -0.05    0.10 
  17   6   1    0.15    0.12 
  17   5   1    0.25    0.11 
  17   4   1   -0.05    0.09 
  17   3   1    0.03    0.10 
  17   2   1    1.06    0.19 
  17   1   1    0.07    0.10 
  17   0   1    0.05    0.11 
  17  -1   1    0.06    0.10 
  17  -2   1    0.53    0.14 
  17  -3   1    0.12    0.12 
  17  -4   1    0.06    0.11 
  17  -5   1   -0.05    0.10 
  17  -6   1   -0.10    0.10 
  17  -7   1    0.24    0.13 
  17  -8   1    0.11    0.13 
  17  -9   1   -0.01    0.12 
  17 -10   1    0.03    0.12 
  17 -11   1    0.21    0.16 
  16  13   1    0.10    0.14 
  16  12   1   -0.08    0.11 
  16  11   1   -0.02    0.12 
  16  10   1    0.18    0.13 
  16   9   1    0.39    0.14 
 -16  -9  -1    0.70    0.15 
  16   8   1    0.02    0.10 
 -16  -8  -1   -0.02    0.10 
  16   7   1    0.24    0.12 
 -16  -7  -1    0.12    0.10 
  16   6   1   -0.09    0.08 
 -16  -6  -1    0.18    0.10 
  16   5   1    0.02    0.10 
  16   4   1    0.16    0.10 
  16   3   1    0.05    0.09 
  16   2   1    0.06    0.10 
  16   1   1    0.08    0.10 
  16   0   1   -0.01    0.09 
  16  -1   1    0.11    0.11 
  16  -2   1    0.04    0.10 
  16  -3   1   -0.11    0.09 
  16  -4   1   -0.11    0.08 
  16  -5   1    0.19    0.10 
  16  -6   1    0.14    0.10 
  16  -7   1   -0.18    0.09 
  16  -8   1   -0.07    0.10 
  16  -9   1    0.62    0.15 
  16  -9   1    0.57    0.14 
  16 -10   1    0.05    0.13 
  16 -10   1    0.05    0.12 
  16 -11   1   -0.07    0.13 
  16 -11   1    0.13    0.13 
  16 -12   1   -0.01    0.13 
  16 -13   1    0.11    0.13 
  15  14   1    0.03    0.14 
  15  13   1    0.00    0.13 
  15  12   1    0.58    0.16 
  15  11   1    0.29    0.15 
  15  10   1    0.19    0.13 
 -15 -10  -1   -0.06    0.10 
  15   9   1    0.02    0.10 
 -15  -9  -1    0.17    0.10 
  15   8   1    0.08    0.10 
 -15  -8  -1    0.23    0.11 
  15   7   1    0.01    0.09 
 -15  -7  -1    0.09    0.09 
  15   6   1    0.27    0.11 
 -15  -6  -1    0.15    0.09 
  15   5   1    0.18    0.10 
 -15  -5  -1    0.37    0.11 
  15   4   1   -0.02    0.07 
  15   3   1    0.27    0.10 
  15   2   1    1.94    0.21 
  15   1   1    0.01    0.09 
  15   0   1    0.07    0.08 
  15  -1   1    0.20    0.10 
  15  -2   1    1.52    0.18 
  15  -3   1    0.26    0.11 
  15  -4   1   -0.02    0.08 
  15  -5   1    0.23    0.11 
  15  -6   1    0.18    0.11 
  15  -6   1    0.20    0.10 
  15  -7   1    0.03    0.09 
  15  -7   1    0.04    0.10 
  15  -8   1    0.31    0.12 
  15  -8   1    0.27    0.11 
  15  -9   1    0.02    0.09 
  15  -9   1   -0.04    0.09 
  15 -10   1    0.20    0.11 
  15 -10   1    0.00    0.11 
  15 -11   1    0.14    0.13 
  15 -11   1    0.23    0.12 
  15 -12   1    0.23    0.15 
  15 -12   1    0.59    0.15 
  15 -13   1    0.07    0.12 
  15 -14   1    0.06    0.13 
  14  15   1    0.16    0.15 
  14  14   1    0.14    0.13 
  14  13   1    0.33    0.15 
  14  12   1    0.32    0.14 
  14  11   1    0.26    0.14 
 -14 -11  -1    0.15    0.11 
  14  10   1    0.07    0.11 
 -14 -10  -1    0.10    0.09 
  14   9   1    0.01    0.10 
 -14  -9  -1    0.01    0.09 
  14   8   1   -0.11    0.08 
 -14  -8  -1    0.03    0.09 
  14   7   1    0.08    0.09 
 -14  -7  -1   -0.11    0.08 
  14   6   1    0.14    0.09 
 -14  -6  -1    0.04    0.08 
  14   5   1    0.19    0.10 
 -14  -5  -1    0.20    0.09 
  14   4   1    0.13    0.10 
 -14  -4  -1    0.23    0.09 
  14   3   1    0.71    0.13 
  14   2   1    0.19    0.09 
  14   1   1    0.35    0.11 
  14   0   1   -0.03    0.08 
  14  -1   1    0.69    0.13 
  14  -2   1    0.10    0.10 
  14  -3   1    0.64    0.13 
  14  -4   1    0.17    0.10 
  14  -4   1    0.09    0.05 
  14  -5   1    0.12    0.09 
  14  -5   1    0.22    0.08 
  14  -6   1   -0.01    0.09 
  14  -6   1    0.04    0.08 
  14  -7   1   -0.10    0.08 
  14  -7   1   -0.02    0.08 
  14  -8   1   -0.02    0.08 
  14  -8   1   -0.01    0.09 
  14  -9   1    0.04    0.10 
  14  -9   1    0.09    0.10 
  14 -10   1    0.17    0.10 
  14 -10   1    0.37    0.12 
  14 -11   1    0.42    0.13 
  14 -11   1    0.22    0.11 
  14 -12   1    0.03    0.11 
  14 -12   1    0.03    0.11 
  14 -13   1    0.31    0.13 
  14 -14   1    0.08    0.13 
  14 -15   1    0.35    0.14 
  13  15   1    0.00    0.12 
  13  14   1    0.05    0.13 
  13  13   1    0.10    0.14 
  13  12   1    0.13    0.12 
 -13 -12  -1    0.42    0.12 
  13  11   1   -0.01    0.11 
 -13 -11  -1    0.09    0.10 
  13  10   1   -0.02    0.09 
 -13 -10  -1    0.01    0.09 
  13   9   1    0.05    0.09 
 -13  -9  -1    0.11    0.09 
  13   8   1    0.16    0.10 
 -13  -8  -1    0.55    0.11 
  13   7   1    0.04    0.08 
 -13  -7  -1   -0.17    0.06 
  13   6   1    0.74    0.14 
 -13  -6  -1    0.78    0.12 
  13   5   1    0.06    0.08 
 -13  -5  -1    0.07    0.08 
  13   4   1    0.14    0.09 
 -13  -4  -1    0.03    0.08 
  13   3   1    0.01    0.07 
 -13  -3  -1    0.12    0.09 
  13   2   1    0.38    0.11 
  13   1   1    0.66    0.13 
  13   0   1    0.02    0.08 
  13  -1   1    0.88    0.14 
  13  -2   1    0.54    0.12 
  13  -2   1    0.41    0.07 
  13  -3   1    0.09    0.06 
  13  -3   1    0.09    0.09 
  13  -4   1    0.03    0.03 
  13  -4   1    0.13    0.09 
  13  -5   1    0.09    0.06 
  13  -5   1    0.35    0.11 
  13  -6   1    0.87    0.12 
  13  -6   1    0.91    0.14 
  13  -7   1    0.09    0.08 
  13  -7   1   -0.09    0.07 
  13  -8   1    0.13    0.09 
  13  -8   1    0.37    0.11 
  13  -9   1    0.02    0.09 
  13  -9   1    0.04    0.09 
  13 -10   1    0.09    0.10 
  13 -10   1    0.16    0.10 
  13 -11   1    0.04    0.10 
  13 -11   1    0.17    0.11 
  13 -12   1    0.40    0.12 
  13 -12   1    0.31    0.12 
  13 -13   1    0.17    0.12 
  13 -13   1   -0.04    0.10 
  13 -14   1    0.13    0.11 
  13 -15   1   -0.08    0.10 
  13 -16   1    0.61    0.15 
  12  16   1    0.18    0.16 
  12  15   1    0.04    0.12 
  12  14   1    0.00    0.12 
  12  13   1    0.11    0.12 
 -12 -13  -1   -0.07    0.08 
  12  12   1    0.01    0.10 
 -12 -12  -1    0.10    0.10 
  12  11   1    1.21    0.18 
 -12 -11  -1    0.95    0.15 
  12  10   1    0.10    0.09 
 -12 -10  -1    0.01    0.08 
  12   9   1    0.15    0.10 
 -12  -9  -1    0.35    0.10 
  12   8   1    0.10    0.08 
 -12  -8  -1    0.11    0.08 
  12   7   1    0.95    0.15 
 -12  -7  -1    1.07    0.13 
  12   6   1    0.33    0.10 
 -12  -6  -1    0.21    0.08 
  12   5   1    0.15    0.09 
 -12  -5  -1    0.22    0.08 
  12   4   1    0.51    0.11 
 -12  -4  -1    0.68    0.11 
  12   3   1    1.26    0.16 
 -12  -3  -1    1.12    0.13 
  12   2   1    0.42    0.10 
  12   1   1    2.10    0.18 
  12   0   1    0.06    0.04 
  12   0   1    0.07    0.08 
  12  -1   1    1.84    0.17 
  12  -1   1    1.82    0.11 
  12  -2   1    0.58    0.11 
  12  -2   1    0.60    0.07 
  12  -3   1    1.46    0.15 
  12  -3   1    1.34    0.11 
  12  -4   1    0.58    0.10 
  12  -4   1    0.63    0.09 
  12  -5   1    0.12    0.06 
  12  -5   1   -0.03    0.07 
  12  -6   1    0.40    0.08 
  12  -6   1    0.37    0.10 
  12  -7   1    0.76    0.13 
  12  -7   1    1.03    0.13 
  12  -8   1    0.11    0.09 
  12  -8   1    0.10    0.09 
  12  -9   1    0.04    0.08 
  12  -9   1   -0.01    0.08 
  12 -10   1    0.02    0.08 
  12 -10   1    0.11    0.10 
  12 -11   1    0.95    0.15 
  12 -11   1    0.94    0.15 
  12 -12   1    0.01    0.10 
  12 -12   1   -0.04    0.09 
  12 -13   1    0.02    0.11 
  12 -13   1    0.01    0.10 
  12 -14   1    0.22    0.13 
  12 -15   1   -0.01    0.12 
  12 -16   1    0.24    0.14 
  11  16   1    0.26    0.16 
  11  15   1    0.31    0.15 
  11  14   1    0.16    0.12 
 -11 -14  -1   -0.13    0.09 
  11  13   1   -0.01    0.11 
 -11 -13  -1    0.02    0.09 
  11  12   1    0.84    0.16 
 -11 -12  -1    0.93    0.15 
  11  11   1    0.35    0.12 
 -11 -11  -1    0.29    0.10 
  11  10   1    0.12    0.10 
 -11 -10  -1    0.13    0.09 
  11   9   1    0.08    0.09 
 -11  -9  -1    0.22    0.09 
  11   8   1    1.42    0.17 
 -11  -8  -1    1.49    0.15 
  11   7   1    0.09    0.08 
 -11  -7  -1    0.03    0.07 
  11   6   1    0.97    0.14 
 -11  -6  -1    1.41    0.14 
  11   5   1    0.16    0.08 
 -11  -5  -1    0.13    0.07 
  11   4   1    0.99    0.13 
 -11  -4  -1    0.75    0.11 
  11   3   1    1.03    0.13 
 -11  -3  -1    0.92    0.11 
  11   2   1    3.87    0.24 
 -11  -2  -1    4.57    0.25 
  11   1   1    0.04    0.07 
  11   1   1    0.17    0.04 
  11   0   1    0.08    0.07 
  11   0   1    0.01    0.04 
  11  -1   1    0.13    0.07 
  11  -1   1    0.22    0.05 
  11  -2   1    4.62    0.21 
  11  -2   1    4.26    0.25 
  11  -3   1    1.01    0.12 
  11  -4   1    1.08    0.13 
  11  -4   1    1.09    0.10 
  11  -5   1    0.12    0.06 
  11  -5   1    0.17    0.08 
  11  -6   1    0.98    0.12 
  11  -6   1    1.32    0.12 
  11  -7   1    0.06    0.07 
  11  -7   1    0.00    0.07 
  11  -8   1    1.51    0.15 
  11  -8   1    1.83    0.16 
  11  -9   1    0.11    0.09 
  11  -9   1    0.09    0.08 
  11 -10   1    0.09    0.09 
  11 -10   1    0.10    0.09 
  11 -11   1    0.46    0.12 
  11 -11   1    0.31    0.10 
  11 -12   1    1.09    0.16 
  11 -12   1    1.20    0.16 
  11 -13   1    0.01    0.10 
  11 -13   1    0.06    0.10 
  11 -14   1    0.01    0.10 
  11 -15   1    0.34    0.13 
  11 -16   1    0.37    0.14 
  11 -17   1    0.05    0.12 
  10  16   1    0.18    0.14 
  10  15   1    0.31    0.14 
 -10 -15  -1   -0.07    0.10 
  10  14   1    0.32    0.12 
 -10 -14  -1    0.07    0.10 
  10  13   1    0.01    0.10 
 -10 -13  -1   -0.07    0.09 
  10  12   1    0.49    0.14 
 -10 -12  -1    0.41    0.11 
  10  11   1    0.07    0.10 
 -10 -11  -1    0.18    0.09 
  10  10   1   -0.03    0.08 
 -10 -10  -1   -0.06    0.07 
  10   9   1    0.01    0.08 
 -10  -9  -1    0.05    0.07 
  10   8   1    0.04    0.08 
 -10  -8  -1    0.05    0.07 
  10   7   1    0.13    0.07 
 -10  -7  -1    0.09    0.07 
  10   6   1    0.18    0.08 
 -10  -6  -1    0.14    0.06 
  10   5   1    5.59    0.31 
 -10  -5  -1    6.51    0.30 
  10   4   1    0.19    0.07 
 -10  -4  -1    0.31    0.08 
  10   3   1   -0.05    0.04 
 -10  -3  -1   -0.03    0.04 
  10   2   1    0.42    0.08 
  10   2   1    0.45    0.04 
 -10  -2  -1    0.53    0.09 
  10   1   1    0.39    0.04 
  10   1   1    0.41    0.08 
  10   0   1    0.00    0.03 
  10   0   1    0.01    0.06 
  10  -1   1    0.39    0.05 
  10  -1   1    0.32    0.07 
  10  -2   1    0.48    0.09 
  10  -2   1    0.58    0.06 
  10  -3   1    0.04    0.06 
  10  -3   1    0.04    0.03 
  10  -4   1    0.28    0.08 
  10  -4   1    0.27    0.06 
  10  -5   1    6.56    0.30 
  10  -5   1    6.65    0.32 
  10  -6   1    0.13    0.07 
  10  -6   1    0.06    0.06 
  10  -7   1    0.21    0.08 
  10  -7   1    0.30    0.07 
  10  -8   1    0.02    0.07 
  10  -8   1    0.02    0.07 
  10  -9   1    0.08    0.09 
  10  -9   1    0.00    0.08 
  10 -10   1    0.06    0.09 
  10 -10   1    0.01    0.08 
  10 -11   1   -0.03    0.07 
  10 -11   1    0.04    0.09 
  10 -12   1    0.34    0.11 
  10 -12   1    0.56    0.12 
  10 -13   1    0.13    0.09 
  10 -13   1   -0.04    0.08 
  10 -14   1    0.19    0.11 
  10 -14   1    0.04    0.10 
  10 -15   1   -0.08    0.10 
  10 -16   1    0.43    0.14 
  10 -17   1    0.20    0.12 
   9  16   1    0.04    0.13 
   9  15   1    0.56    0.15 
  -9 -15  -1    0.58    0.14 
   9  14   1   -0.02    0.09 
  -9 -14  -1    0.03    0.10 
   9  13   1    0.72    0.15 
  -9 -13  -1    0.40    0.11 
   9  12   1    0.27    0.12 
  -9 -12  -1    0.23    0.10 
   9  11   1    2.48    0.21 
  -9 -11  -1    1.76    0.17 
   9  10   1    3.39    0.24 
  -9 -10  -1    3.51    0.22 
   9   9   1    5.05    0.29 
  -9  -9  -1    4.70    0.26 
   9   8   1    0.34    0.10 
  -9  -8  -1    0.35    0.08 
   9   7   1    0.93    0.12 
  -9  -7  -1    0.73    0.10 
   9   6   1    3.32    0.21 
  -9  -6  -1    3.28    0.20 
   9   5   1    0.46    0.09 
  -9  -5  -1    0.47    0.08 
   9   4   1    3.54    0.21 
  -9  -4  -1    3.41    0.19 
   9   3   1    3.33    0.19 
  -9  -3  -1    3.07    0.18 
   9   2   1   16.06    0.65 
   9   2   1   16.13    0.57 
  -9  -2  -1   15.95    0.65 
   9   1   1    0.02    0.02 
   9   1   1   -0.03    0.04 
  -9  -1  -1    0.00    0.05 
   9   0   1    0.03    0.02 
   9   0   1   -0.03    0.04 
   9  -1   1    0.08    0.03 
   9  -1   1   -0.02    0.05 
   9  -2   1   14.62    0.55 
   9  -2   1   14.62    0.60 
   9  -3   1    3.17    0.19 
   9  -3   1    3.13    0.16 
   9  -4   1    3.78    0.19 
   9  -4   1    3.52    0.20 
   9  -5   1    0.42    0.07 
   9  -5   1    0.40    0.08 
   9  -6   1    3.53    0.20 
   9  -6   1    2.86    0.18 
   9  -7   1    0.63    0.09 
   9  -7   1    0.82    0.11 
   9  -8   1    0.27    0.08 
   9  -8   1    0.27    0.09 
   9  -9   1    4.33    0.25 
   9  -9   1    4.75    0.26 
   9 -10   1    3.46    0.22 
   9 -10   1    3.40    0.23 
   9 -11   1    2.02    0.18 
   9 -11   1    1.94    0.18 
   9 -12   1    0.13    0.09 
   9 -12   1    0.18    0.09 
   9 -13   1    0.65    0.13 
   9 -13   1    0.79    0.13 
   9 -14   1    0.05    0.09 
   9 -14   1    0.06    0.10 
   9 -15   1    0.42    0.13 
   9 -16   1   -0.10    0.09 
   9 -17   1   -0.03    0.10 
   9 -18   1   -0.01    0.09 
   8  16   1    0.26    0.14 
  -8 -16  -1    0.29    0.13 
   8  15   1   -0.03    0.10 
  -8 -15  -1   -0.03    0.09 
   8  14   1    0.27    0.12 
  -8 -14  -1    0.48    0.12 
   8  13   1    0.05    0.10 
  -8 -13  -1    0.01    0.08 
   8  12   1    4.11    0.27 
  -8 -12  -1    3.66    0.25 
   8  11   1    0.37    0.12 
  -8 -11  -1    0.35    0.10 
   8  10   1    0.06    0.08 
  -8 -10  -1    0.06    0.07 
   8   9   1    2.69    0.20 
  -8  -9  -1    2.91    0.19 
   8   8   1    5.27    0.29 
  -8  -8  -1    5.25    0.27 
   8   7   1    0.04    0.05 
  -8  -7  -1   -0.03    0.05 
   8   6   1    0.02    0.05 
  -8  -6  -1    0.04    0.05 
   8   5   1    3.32    0.20 
  -8  -5  -1    3.47    0.19 
   8   4   1    6.23    0.30 
  -8  -4  -1    6.48    0.30 
   8   3   1    2.64    0.17 
  -8  -3  -1    3.28    0.17 
   8   2   1    8.94    0.39 
  -8  -2  -1    8.52    0.38 
   8   1   1   11.34    0.40 
   8   1   1   10.51    0.46 
  -8  -1  -1   10.57    0.46 
   8   0   1    0.02    0.02 
   8   0   1    0.02    0.04 
   8  -1   1   10.95    0.41 
   8  -1   1   10.84    0.46 
   8  -2   1    9.13    0.39 
   8  -3   1    3.02    0.15 
   8  -3   1    2.74    0.16 
   8  -4   1    6.57    0.28 
   8  -4   1    6.62    0.30 
   8  -5   1    3.71    0.19 
   8  -5   1    3.42    0.19 
   8  -6   1   -0.01    0.05 
   8  -6   1    0.03    0.05 
   8  -7   1    0.04    0.06 
   8  -7   1   -0.01    0.05 
   8  -8   1    5.19    0.26 
   8  -8   1    5.10    0.27 
   8  -9   1    2.98    0.20 
   8  -9   1    3.10    0.19 
   8 -10   1    0.13    0.07 
   8 -10   1    0.19    0.09 
   8 -11   1    0.50    0.10 
   8 -11   1    0.50    0.11 
   8 -12   1    4.10    0.25 
   8 -12   1    3.99    0.26 
   8 -13   1    0.13    0.10 
   8 -13   1    0.04    0.09 
   8 -14   1    0.22    0.10 
   8 -14   1    0.24    0.11 
   8 -15   1    0.14    0.11 
   8 -16   1    0.28    0.12 
   8 -17   1   -0.02    0.10 
   8 -18   1   -0.02    0.12 
  -7 -17  -1    0.16    0.13 
   7  16   1    0.00    0.12 
  -7 -16  -1   -0.10    0.09 
   7  15   1    0.26    0.12 
  -7 -15  -1    0.27    0.12 
   7  14   1    0.66    0.15 
  -7 -14  -1    0.72    0.14 
   7  13   1    1.18    0.17 
  -7 -13  -1    1.21    0.15 
   7  12   1    0.01    0.09 
  -7 -12  -1    0.01    0.08 
   7  11   1    0.39    0.11 
  -7 -11  -1    0.39    0.10 
   7  10   1    2.24    0.18 
  -7 -10  -1    2.13    0.17 
   7   9   1    2.00    0.16 
  -7  -9  -1    1.87    0.15 
   7   8   1    7.28    0.35 
  -7  -8  -1    7.26    0.34 
   7   7   1    0.15    0.06 
  -7  -7  -1    0.23    0.07 
   7   6   1    6.97    0.33 
  -7  -6  -1    6.75    0.31 
   7   5   1    1.45    0.13 
  -7  -5  -1    1.50    0.11 
   7   4   1    1.94    0.13 
  -7  -4  -1    2.02    0.13 
   7   3   1    3.53    0.19 
  -7  -3  -1    3.67    0.19 
   7   2   1   22.08    0.86 
  -7  -2  -1   22.84    0.87 
   7   1   1    0.65    0.08 
   7   1   1    0.74    0.04 
  -7  -1  -1    0.93    0.09 
   7   0   1   -0.01    0.02 
   7   0   1    0.03    0.04 
   7  -1   1    0.79    0.08 
   7  -1   1    0.75    0.06 
   7  -2   1   22.65    0.86 
   7  -3   1    3.67    0.19 
   7  -3   1    3.39    0.17 
   7  -4   1    2.15    0.14 
   7  -4   1    2.31    0.13 
   7  -5   1    1.53    0.11 
   7  -5   1    1.52    0.11 
   7  -6   1    6.82    0.30 
   7  -6   1    6.49    0.30 
   7  -7   1    0.16    0.06 
   7  -7   1    0.21    0.07 
   7  -8   1    7.28    0.33 
   7  -8   1    7.08    0.33 
   7  -9   1    2.02    0.15 
   7  -9   1    1.81    0.16 
   7 -10   1    2.02    0.15 
   7 -10   1    2.39    0.18 
   7 -11   1    0.47    0.10 
   7 -11   1    0.49    0.11 
   7 -12   1    0.02    0.08 
   7 -12   1   -0.03    0.08 
   7 -13   1    0.81    0.14 
   7 -13   1    1.48    0.16 
   7 -14   1    0.59    0.13 
   7 -14   1    0.74    0.14 
   7 -15   1    0.37    0.12 
   7 -16   1    0.10    0.12 
   7 -17   1    0.24    0.14 
   7 -18   1    0.22    0.15 
   7 -19   1    0.15    0.15 
  -6 -18  -1   -0.18    0.13 
  -6 -17  -1    0.16    0.12 
   6  16   1    0.28    0.14 
  -6 -16  -1    0.21    0.12 
   6  15   1    0.01    0.11 
  -6 -15  -1   -0.04    0.09 
   6  14   1    0.16    0.11 
  -6 -14  -1    0.28    0.10 
   6  13   1    0.23    0.11 
  -6 -13  -1    0.21    0.08 
  -6 -13  -1    0.15    0.09 
   6  12   1    2.33    0.20 
  -6 -12  -1    2.32    0.16 
  -6 -12  -1    2.38    0.20 
   6  11   1    0.23    0.08 
  -6 -11  -1    0.28    0.09 
   6  10   1    1.37    0.15 
  -6 -10  -1    1.45    0.14 
   6   9   1    0.48    0.09 
  -6  -9  -1    0.64    0.10 
   6   8   1    7.14    0.34 
  -6  -8  -1    7.01    0.33 
   6   7   1   13.39    0.57 
  -6  -7  -1   13.88    0.56 
   6   6   1    1.90    0.14 
  -6  -6  -1    2.03    0.13 
   6   5   1    1.37    0.11 
  -6  -5  -1    1.07    0.09 
   6   4   1   27.88    1.01 
  -6  -4  -1   25.08    1.01 
   6   3   1    0.05    0.04 
  -6  -3  -1    0.02    0.03 
   6   2   1    0.07    0.04 
  -6  -2  -1    0.05    0.03 
   6   1   1   11.06    0.45 
   6   1   1   11.40    0.40 
  -6  -1  -1   11.00    0.45 
   6   0   1    0.00    0.02 
   6   0   1    0.07    0.04 
  -6   0  -1    0.01    0.03 
   6  -1   1   11.62    0.43 
   6  -1   1   11.67    0.47 
   6  -2   1    0.08    0.04 
   6  -2   1    0.01    0.02 
   6  -3   1    0.06    0.04 
   6  -3   1    0.04    0.04 
   6  -4   1   28.36    1.01 
   6  -4   1   26.98    1.04 
   6  -5   1    1.34    0.10 
   6  -5   1    1.30    0.10 
   6  -6   1    1.87    0.12 
   6  -6   1    1.58    0.12 
   6  -7   1   13.84    0.56 
   6  -8   1    7.78    0.35 
   6  -8   1    7.52    0.35 
   6  -9   1    0.63    0.09 
   6  -9   1    0.44    0.09 
   6 -10   1    1.45    0.13 
   6 -10   1    1.38    0.15 
   6 -11   1    0.12    0.07 
   6 -11   1    0.24    0.09 
   6 -12   1    2.14    0.16 
   6 -12   1    1.68    0.17 
   6 -13   1    0.12    0.08 
   6 -13   1    0.05    0.08 
   6 -14   1    0.30    0.10 
   6 -14   1    0.29    0.11 
   6 -15   1    0.09    0.10 
   6 -15   1    0.07    0.11 
   6 -16   1    0.03    0.11 
   6 -17   1    0.11    0.12 
   6 -18   1    0.08    0.13 
   6 -19   1    0.05    0.13 
  -5 -19  -1    0.07    0.15 
  -5 -18  -1   -0.15    0.11 
  -5 -17  -1    0.21    0.12 
  -5 -16  -1    0.77    0.15 
   5  15   1    0.05    0.10 
  -5 -15  -1    0.11    0.08 
  -5 -15  -1   -0.03    0.08 
   5  14   1   -0.01    0.09 
  -5 -14  -1   -0.06    0.08 
  -5 -14  -1   -0.01    0.07 
   5  13   1    0.68    0.13 
  -5 -13  -1    0.63    0.12 
  -5 -13  -1    0.53    0.09 
   5  12   1    2.86    0.21 
  -5 -12  -1    3.49    0.22 
   5  11   1    0.07    0.06 
  -5 -11  -1    0.02    0.06 
   5  10   1    0.06    0.06 
  -5 -10  -1   -0.02    0.05 
   5   9   1    5.06    0.26 
  -5  -9  -1    4.74    0.25 
   5   8   1   18.64    0.72 
  -5  -8  -1   17.05    0.71 
   5   7   1    1.13    0.11 
  -5  -7  -1    1.09    0.11 
   5   6   1    0.88    0.09 
  -5  -6  -1    0.80    0.09 
   5   5   1   45.31    1.66 
  -5  -5  -1   44.77    1.68 
   5   4   1    0.35    0.06 
  -5  -4  -1    0.27    0.05 
   5   3   1    0.13    0.04 
  -5  -3  -1    0.14    0.04 
   5   2   1    6.64    0.28 
  -5  -2  -1    6.50    0.28 
   5   1   1  140.64    5.04 
   5   1   1  143.06    4.91 
  -5  -1  -1  138.17    5.12 
   5   0   1    0.05    0.02 
   5   0   1    0.03    0.03 
  -5   0  -1    0.02    0.03 
   5  -1   1  136.78    4.42 
   5  -1   1  109.87    4.28 
   5  -2   1    6.69    0.28 
   5  -2   1    6.81    0.27 
   5  -3   1    0.03    0.03 
   5  -4   1    0.36    0.06 
   5  -5   1   45.81    1.68 
   5  -6   1    0.89    0.09 
   5  -7   1    1.21    0.11 
   5  -8   1   17.91    0.71 
   5  -9   1    4.83    0.24 
   5 -10   1   -0.06    0.05 
   5 -11   1    0.09    0.06 
   5 -12   1    3.43    0.21 
   5 -12   1    3.65    0.24 
   5 -13   1    0.58    0.11 
   5 -13   1    0.46    0.12 
   5 -14   1   -0.03    0.08 
   5 -14   1   -0.03    0.08 
   5 -15   1    0.02    0.09 
   5 -15   1    0.06    0.09 
   5 -16   1    0.65    0.15 
   5 -17   1    0.07    0.13 
   5 -18   1    0.17    0.12 
   5 -19   1    0.14    0.15 
  -4 -19  -1   -0.04    0.14 
  -4 -18  -1    0.20    0.14 
  -4 -17  -1    0.07    0.10 
  -4 -16  -1    0.77    0.14 
   4  15   1    0.05    0.10 
  -4 -15  -1   -0.04    0.07 
   4  14   1    2.53    0.21 
  -4 -14  -1    2.14    0.18 
   4  13   1    1.00    0.14 
  -4 -13  -1    0.90    0.12 
   4  12   1    0.28    0.08 
   4  11   1    0.71    0.11 
   4  10   1    1.52    0.14 
   4   9   1    0.88    0.10 
   4   8   1    4.40    0.23 
  -4  -8  -1    4.46    0.23 
   4   7   1    2.85    0.16 
  -4  -7  -1    2.60    0.16 
   4   6   1    0.02    0.04 
  -4  -6  -1   -0.01    0.04 
   4   5   1    4.50    0.21 
  -4  -5  -1    4.23    0.21 
   4   4   1    4.92    0.22 
  -4  -4  -1    4.55    0.21 
   4   3   1   12.70    0.51 
  -4  -3  -1   13.55    0.51 
   4   2   1   28.60    1.07 
  -4  -2  -1   29.31    1.08 
   4   1   1    0.52    0.05 
  -4  -1  -1    0.72    0.06 
   4   0   1    0.02    0.03 
   4   0   1    0.04    0.02 
  -4   0  -1    0.08    0.03 
   4  -1   1    0.51    0.05 
   4  -2   1   28.84    1.06 
   4  -3   1   12.76    0.49 
   4  -4   1    5.07    0.22 
   4  -5   1    4.02    0.19 
   4  -6   1    0.01    0.03 
   4  -7   1    2.51    0.14 
   4  -8   1    4.20    0.21 
   4  -9   1    1.02    0.10 
   4 -10   1    1.42    0.13 
   4 -11   1    0.75    0.11 
   4 -12   1    0.25    0.08 
   4 -13   1    0.79    0.11 
   4 -13   1    0.86    0.14 
   4 -14   1    2.49    0.19 
   4 -14   1    1.89    0.20 
   4 -15   1   -0.01    0.08 
   4 -15   1    0.02    0.09 
   4 -16   1    0.64    0.15 
   4 -17   1    0.20    0.12 
   4 -18   1    0.33    0.14 
   4 -19   1   -0.01    0.14 
  -3 -18  -1    0.10    0.11 
  -3 -17  -1    0.29    0.11 
  -3 -16  -1    1.30    0.16 
  -3 -15  -1    0.04    0.09 
  -3 -15  -1    0.03    0.07 
   3  14   1    0.21    0.10 
  -3 -14  -1    0.29    0.10 
   3  13   1    0.03    0.06 
  -3 -13  -1   -0.05    0.06 
   3  12   1    4.00    0.24 
   3  11   1    1.89    0.15 
   3  10   1    0.07    0.05 
   3   9   1   15.38    0.63 
   3   8   1    5.78    0.27 
   3   7   1   11.32    0.47 
   3   6   1    1.22    0.09 
   3   5   1   43.38    1.59 
  -3  -5  -1   43.00    1.61 
   3   4   1   10.14    0.40 
  -3  -4  -1   10.14    0.41 
   3   3   1   29.10    1.06 
  -3  -3  -1   28.40    1.07 
   3   2   1   53.11    1.89 
  -3  -2  -1   51.43    1.92 
   3   1   1  175.28    6.24 
  -3  -1  -1  174.37    6.35 
   3   0   1   -0.02    0.02 
  -3   0  -1    0.00    0.02 
   3  -1   1  186.29    6.65 
   3  -2   1   51.72    1.87 
   3  -3   1   29.22    1.07 
   3  -4   1   10.32    0.41 
   3  -5   1   42.74    1.56 
   3  -6   1    1.32    0.09 
   3  -7   1   10.51    0.43 
   3  -8   1    5.71    0.26 
   3  -9   1   14.05    0.57 
   3 -10   1    0.07    0.05 
   3 -11   1    1.79    0.14 
   3 -12   1    3.96    0.23 
   3 -13   1    0.05    0.06 
   3 -14   1    0.20    0.09 
   3 -14   1    0.31    0.11 
   3 -15   1    0.00    0.08 
   3 -15   1    0.08    0.10 
   3 -16   1    0.99    0.16 
   3 -17   1    0.22    0.11 
   3 -18   1   -0.04    0.12 
   3 -19   1    0.84    0.18 
   3 -20   1    0.02    0.14 
  -2 -20  -1    0.17    0.14 
  -2 -19  -1   -0.02    0.11 
  -2 -18  -1    0.15    0.11 
  -2 -17  -1    0.09    0.10 
  -2 -16  -1    0.73    0.13 
  -2 -15  -1    0.09    0.08 
  -2 -15  -1    0.03    0.08 
  -2 -14  -1    0.07    0.08 
  -2 -14  -1    0.27    0.09 
   2  13   1    0.05    0.06 
  -2 -13  -1    0.01    0.06 
   2  12   1    0.14    0.07 
  -2 -12  -1    0.15    0.07 
   2  11   1    5.15    0.27 
   2  10   1    1.15    0.11 
   2   9   1    3.76    0.20 
   2   8   1    0.10    0.04 
   2   7   1    0.08    0.04 
   2   6   1    4.90    0.22 
   2   5   1    0.97    0.07 
   2   4   1   29.11    1.07 
   2   3   1  101.85    3.72 
  -2  -3  -1  106.04    3.79 
   2   2   1  199.75    7.14 
  -2  -2  -1  200.20    7.26 
   2   1   1   42.57    1.48 
  -2  -1  -1   39.43    1.50 
   2   0   1   -0.17    0.02 
  -2   0  -1   -0.17    0.02 
   2  -1   1   42.25    1.52 
   2  -2   1  198.14    7.07 
   2  -3   1  103.21    3.70 
   2  -4   1   29.40    1.08 
   2  -5   1    1.00    0.07 
   2  -6   1    5.12    0.23 
   2  -7   1    0.04    0.03 
   2  -8   1    0.09    0.04 
   2  -9   1    3.38    0.19 
   2 -10   1    0.89    0.10 
   2 -11   1    5.11    0.26 
   2 -13   1    0.08    0.07 
   2 -14   1    0.26    0.10 
   2 -15   1    0.08    0.09 
   2 -15   1   -0.13    0.08 
   2 -16   1    0.63    0.14 
   2 -16   1    0.73    0.14 
   2 -17   1   -0.01    0.09 
   2 -18   1   -0.03    0.12 
   2 -19   1   -0.04    0.12 
   2 -20   1    0.00    0.14 
  -1 -20  -1    0.01    0.14 
  -1 -19  -1    0.99    0.18 
  -1 -18  -1    0.00    0.10 
  -1 -17  -1    0.24    0.12 
  -1 -16  -1    0.09    0.09 
  -1 -15  -1    2.37    0.21 
  -1 -15  -1    2.82    0.21 
  -1 -14  -1    0.95    0.13 
  -1 -14  -1    0.91    0.13 
  -1 -13  -1    5.38    0.29 
  -1 -13  -1    5.17    0.29 
  -1 -12  -1    0.61    0.10 
  -1 -12  -1    0.47    0.09 
   1  10   1    0.43    0.08 
   1   9   1   12.87    0.53 
   1   8   1    0.76    0.08 
   1   7   1    0.41    0.06 
   1   6   1    0.61    0.06 
   1   5   1    7.74    0.31 
  -1  -2  -1    4.34    0.16 
  -1  -1  -1    3.74    0.15 
  -1  -1  -1    3.78    0.14 
   1   0   1    0.01    0.01 
  -1   0  -1    0.00    0.00 
  -1   0  -1    0.00    0.00 
   1  -1   1    3.82    0.15 
   1  -2   1    4.01    0.16 
   1  -3   1   41.68    1.51 
   1  -4   1    4.24    0.19 
   1  -5   1   14.00    0.54 
   1  -6   1    0.75    0.07 
   1  -7   1    0.35    0.06 
   1  -8   1    0.74    0.09 
   1  -9   1   12.54    0.52 
   1 -10   1    0.29    0.07 
   1 -11   1    8.82    0.40 
   1 -13   1    5.16    0.28 
   1 -14   1    1.02    0.14 
   1 -15   1    2.67    0.21 
   1 -16   1    0.12    0.10 
   1 -16   1    0.11    0.10 
   1 -17   1    0.17    0.11 
   1 -18   1    0.05    0.12 
   1 -19   1    1.01    0.19 
   1 -20   1    0.12    0.14 
   0 -20  -1   -0.03    0.14 
   0 -19  -1   -0.14    0.10 
   0 -18  -1    0.24    0.12 
   0 -17  -1    0.12    0.10 
   0 -16  -1   -0.02    0.08 
   0 -15  -1   -0.05    0.08 
   0 -14  -1    4.66    0.27 
   0 -14  -1    4.88    0.28 
   0 -13  -1   -0.03    0.07 
   0 -13  -1   -0.05    0.06 
   0 -12  -1    1.84    0.16 
   0 -12  -1    1.70    0.14 
   0 -11  -1    0.00    0.05 
   0 -11  -1    0.02    0.05 
   0 -10  -1    1.39    0.12 
   0  -9  -1    0.00    0.04 
   0  -8  -1    0.62    0.07 
   0   7   1   -0.01    0.02 
   0   5   1    0.01    0.01 
   0   4   1    0.14    0.02 
   0   3   1    0.13    0.02 
   0  -3  -1    0.09    0.02 
   0   2   1  108.48    3.95 
   0  -2  -1  111.16    3.83 
   0  -1  -1   -0.03    0.01 
   0   0   1   -0.12    0.00 
   0   0  -1   -0.12    0.00 
   0   0  -1   -0.12    0.00 
   0   1  -1   -0.03    0.01 
   0   1  -1   -0.04    0.01 
   0   2  -1  106.64    3.82 
   0   3  -1    0.14    0.03 
   0   4  -1    0.17    0.03 
   0   5  -1   -0.01    0.02 
   0   6  -1   45.59    1.67 
   0  -7   1   -0.04    0.02 
   0  -8   1    0.69    0.08 
   0  -9   1    0.03    0.04 
   0 -10   1    1.49    0.13 
   0 -11   1   -0.07    0.05 
   0 -12   1    1.51    0.14 
   0 -13   1    0.05    0.07 
   0 -14   1    4.62    0.28 
   0 -15   1   -0.01    0.08 
   0 -16   1    0.12    0.10 
   0 -16   1    0.06    0.10 
   0 -17   1   -0.09    0.10 
   0 -18   1    0.18    0.12 
   0 -19   1   -0.11    0.12 
   0 -20   1    0.00    0.13 
   1 -20  -1    0.18    0.16 
   1 -19  -1    0.83    0.17 
   1 -18  -1   -0.02    0.10 
   1 -17  -1    0.11    0.10 
   1 -16  -1    0.17    0.10 
   1 -15  -1    2.95    0.22 
   1 -14  -1    1.21    0.13 
   1 -14  -1    1.29    0.16 
   1 -13  -1    5.96    0.31 
   1 -13  -1    5.38    0.29 
   1 -12  -1    0.49    0.10 
   1 -12  -1    0.48    0.08 
   1 -11  -1    8.84    0.39 
   1 -11  -1    8.29    0.38 
   1 -10  -1    0.45    0.07 
   1 -10  -1    0.30    0.07 
   1  -9  -1   12.13    0.50 
   1  -9  -1   12.23    0.50 
   1  -8  -1    0.83    0.08 
   1  -7  -1    0.49    0.06 
   1  -6  -1    0.74    0.06 
   1  -5  -1   14.29    0.54 
   1  -4  -1    3.43    0.16 
   1  -4  -1    3.55    0.15 
   1  -3  -1   38.07    1.38 
   1  -3  -1   38.48    1.35 
   1  -2  -1    4.16    0.16 
   1  -2  -1    4.25    0.17 
   1  -1  -1    3.47    0.13 
   1  -1  -1    3.43    0.13 
   1   0  -1    0.00    0.00 
   1   0  -1    0.00    0.01 
  -1  -1   1    3.39    0.13 
   1   1  -1    3.42    0.13 
   1   1  -1    2.80    0.12 
   1   2  -1    4.09    0.17 
   1   3  -1   38.77    1.41 
   1   4  -1    3.45    0.16 
   1   5  -1   14.14    0.55 
   1   6  -1    0.67    0.07 
   1   7  -1    0.45    0.07 
   1   8  -1    0.73    0.09 
   1   9  -1   12.43    0.52 
   1  10  -1    0.36    0.08 
  -1 -11   1    8.43    0.39 
  -1 -12   1    0.64    0.11 
  -1 -13   1    5.35    0.30 
  -1 -14   1    1.27    0.16 
  -1 -15   1    2.53    0.22 
  -1 -16   1    0.16    0.11 
  -1 -17   1    0.07    0.10 
  -1 -18   1   -0.09    0.10 
  -1 -19   1    0.93    0.18 
  -1 -20   1    0.12    0.15 
   2 -20  -1    0.15    0.15 
   2 -19  -1    0.01    0.12 
   2 -18  -1    0.02    0.11 
   2 -17  -1    0.02    0.09 
   2 -16  -1    0.85    0.15 
   2 -15  -1   -0.03    0.09 
   2 -14  -1    0.27    0.08 
   2 -14  -1    0.38    0.12 
   2 -13  -1    0.08    0.06 
   2 -13  -1   -0.02    0.08 
   2 -12  -1    0.18    0.06 
   2 -12  -1    0.26    0.09 
   2 -11  -1    5.00    0.25 
   2 -11  -1    5.11    0.27 
   2 -10  -1    0.71    0.08 
   2 -10  -1    0.91    0.11 
   2  -9  -1    3.49    0.19 
   2  -9  -1    3.34    0.17 
   2  -8  -1    0.05    0.03 
   2  -8  -1   -0.02    0.04 
   2  -7  -1    0.04    0.04 
   2  -7  -1    0.09    0.03 
   2  -6  -1    4.74    0.21 
   2  -6  -1    4.45    0.20 
   2  -5  -1    0.87    0.07 
   2  -5  -1    0.85    0.06 
   2  -4  -1   28.91    1.05 
   2  -4  -1   28.54    1.03 
   2  -3  -1  100.06    3.53 
   2  -3  -1  101.63    3.61 
   2  -2  -1  201.67    7.10 
   2  -2  -1  206.54    7.28 
   2  -1  -1   42.96    1.52 
   2  -1  -1   43.73    1.56 
   2   0  -1   -0.19    0.02 
   2   0  -1   -0.17    0.01 
  -2  -1   1   42.55    1.58 
   2   1  -1   43.66    1.56 
  -2  -2   1  206.70    7.48 
   2   2  -1  205.02    7.35 
   2   3  -1   96.84    3.48 
   2   4  -1   28.32    1.05 
   2   5  -1    0.84    0.08 
   2   6  -1    4.98    0.24 
   2   7  -1    0.03    0.03 
   2   8  -1    0.07    0.04 
   2   9  -1    3.53    0.20 
   2  10  -1    0.80    0.11 
   2  11  -1    5.33    0.29 
   2  12  -1    0.24    0.08 
  -2 -13   1    0.01    0.08 
  -2 -14   1    0.29    0.11 
  -2 -15   1    0.10    0.10 
  -2 -16   1    0.67    0.15 
  -2 -17   1    0.08    0.10 
  -2 -18   1    0.13    0.11 
  -2 -19   1    0.25    0.14 
  -2 -20   1    0.20    0.16 
   3 -20  -1    0.16    0.15 
   3 -19  -1    0.61    0.16 
   3 -18  -1   -0.15    0.09 
   3 -17  -1    0.42    0.13 
   3 -16  -1    0.97    0.16 
   3 -15  -1    0.09    0.09 
   3 -14  -1    0.12    0.10 
   3 -14  -1    0.39    0.09 
   3 -13  -1   -0.01    0.05 
   3 -13  -1    0.14    0.09 
   3 -12  -1    4.04    0.21 
   3 -12  -1    3.42    0.23 
   3 -11  -1    1.62    0.12 
   3 -11  -1    1.23    0.14 
   3 -10  -1    0.03    0.05 
   3 -10  -1    0.09    0.06 
   3  -9  -1   14.94    0.58 
   3  -9  -1   14.36    0.59 
   3  -8  -1    5.91    0.27 
   3  -8  -1    5.70    0.26 
   3  -7  -1   10.50    0.42 
   3  -7  -1   10.42    0.43 
   3  -6  -1    1.65    0.11 
   3  -6  -1    1.81    0.10 
   3  -5  -1   43.26    1.57 
   3  -5  -1   44.69    1.60 
   3  -4  -1    9.79    0.38 
   3  -4  -1    9.74    0.38 
   3  -3  -1   31.95    1.16 
   3  -3  -1   32.97    1.18 
   3  -2  -1   59.59    2.11 
   3  -2  -1   60.58    2.16 
   3  -1  -1  189.72    6.54 
   3  -1  -1  186.30    6.71 
   3   0  -1    0.00    0.02 
   3   0  -1   -0.01    0.01 
  -3  -1   1  183.57    6.64 
   3   1  -1  180.30    6.36 
   3   1  -1  184.63    6.53 
  -3  -2   1   62.46    2.25 
   3   2  -1   61.54    2.22 
   3   2  -1   60.64    2.15 
  -3  -3   1   31.70    1.08 
   3   3  -1   30.86    1.08 
   3   3  -1   25.36    1.03 
  -3  -4   1    9.53    0.37 
   3   4  -1    9.22    0.38 
   3   5  -1   44.42    1.64 
   3   6  -1    1.94    0.13 
   3   7  -1   11.28    0.47 
   3   8  -1    5.84    0.29 
   3   9  -1   14.51    0.61 
   3  10  -1    0.09    0.06 
   3  11  -1    1.73    0.16 
   3  12  -1    4.15    0.25 
   3  13  -1    0.04    0.09 
   3  14  -1    0.31    0.13 
  -3 -15   1   -0.01    0.08 
  -3 -16   1    0.76    0.15 
  -3 -17   1    0.22    0.12 
  -3 -17   1    0.34    0.12 
  -3 -18   1   -0.11    0.10 
  -3 -19   1    0.88    0.18 
   4 -19  -1   -0.04    0.13 
   4 -18  -1    0.18    0.14 
   4 -17  -1    0.06    0.11 
   4 -16  -1    0.57    0.14 
   4 -15  -1    0.11    0.10 
   4 -14  -1    2.21    0.20 
   4 -13  -1    0.73    0.11 
   4 -13  -1    0.97    0.14 
   4 -12  -1    0.09    0.07 
   4 -12  -1    0.14    0.09 
   4 -11  -1    0.64    0.11 
   4 -11  -1    0.79    0.10 
   4 -10  -1    1.35    0.14 
   4 -10  -1    1.62    0.12 
   4  -9  -1    0.90    0.09 
   4  -9  -1    0.82    0.10 
   4  -8  -1    4.98    0.25 
   4  -8  -1    4.72    0.22 
   4  -7  -1    2.18    0.12 
   4  -7  -1    2.14    0.14 
   4  -6  -1    0.10    0.04 
   4  -6  -1    0.01    0.04 
   4  -5  -1    3.46    0.16 
   4  -5  -1    3.58    0.17 
   4  -4  -1    4.27    0.19 
   4  -4  -1    4.10    0.18 
   4  -3  -1   13.79    0.51 
   4  -3  -1   13.51    0.52 
   4  -2  -1   28.83    1.02 
   4  -2  -1   28.60    1.05 
   4  -1  -1    0.46    0.04 
   4  -1  -1    0.35    0.04 
   4   0  -1    0.06    0.03 
   4   0  -1    0.01    0.01 
  -4  -1   1    0.54    0.05 
   4   1  -1    0.50    0.04 
   4   1  -1    0.35    0.05 
  -4  -2   1   30.96    1.11 
   4   2  -1   27.95    1.11 
   4   2  -1   30.95    1.06 
  -4  -3   1   14.65    0.55 
   4   3  -1   13.91    0.56 
   4   3  -1   14.50    0.52 
  -4  -4   1    4.00    0.18 
   4   4  -1    4.17    0.20 
  -4  -5   1    3.69    0.17 
   4   5  -1    3.59    0.19 
  -4  -6   1    0.14    0.04 
   4   6  -1    0.03    0.04 
  -4  -7   1    2.46    0.14 
   4   7  -1    2.21    0.15 
   4   8  -1    4.64    0.25 
   4   9  -1    1.02    0.12 
   4  10  -1    1.83    0.16 
   4  11  -1    0.90    0.13 
   4  12  -1    0.07    0.09 
   4  13  -1    0.73    0.14 
   4  14  -1    2.36    0.22 
   4  15  -1   -0.05    0.09 
   4  16  -1    0.66    0.15 
  -4 -17   1    0.01    0.11 
  -4 -17   1    0.18    0.11 
  -4 -18   1    0.28    0.13 
   5 -19  -1    0.13    0.14 
   5 -18  -1   -0.03    0.11 
   5 -17  -1    0.03    0.11 
   5 -16  -1    0.59    0.14 
   5 -15  -1    0.07    0.10 
   5 -14  -1   -0.02    0.09 
   5 -13  -1    0.54    0.10 
   5 -13  -1    0.40    0.11 
   5 -12  -1    3.09    0.19 
   5 -12  -1    3.38    0.22 
   5 -11  -1    0.09    0.06 
   5 -11  -1    0.04    0.08 
   5 -10  -1    0.03    0.05 
   5 -10  -1   -0.03    0.07 
   5  -9  -1    5.20    0.26 
   5  -9  -1    5.09    0.25 
   5  -8  -1   18.13    0.70 
   5  -8  -1   17.70    0.70 
   5  -7  -1    0.90    0.09 
   5  -7  -1    0.94    0.10 
   5  -6  -1    1.19    0.09 
   5  -6  -1    0.87    0.09 
   5  -5  -1   47.91    1.71 
   5  -5  -1   47.82    1.75 
   5  -4  -1    0.49    0.06 
   5  -4  -1    0.55    0.06 
   5  -3  -1    0.13    0.03 
   5  -3  -1    0.09    0.03 
   5  -2  -1    6.37    0.26 
   5  -2  -1    6.59    0.27 
   5  -1  -1  143.08    4.91 
   5  -1  -1  131.00    4.77 
   5   0  -1    0.07    0.03 
   5   0  -1    0.05    0.02 
  -5  -1   1  139.82    5.24 
   5   1  -1  145.52    5.01 
   5   1  -1  146.70    5.17 
  -5  -2   1    6.33    0.26 
   5   2  -1    6.15    0.27 
   5   2  -1    6.30    0.24 
  -5  -3   1    0.11    0.03 
   5   3  -1    0.10    0.02 
   5   3  -1    0.04    0.03 
  -5  -4   1    0.48    0.05 
   5   4  -1    0.46    0.07 
  -5  -5   1   47.53    1.77 
   5   5  -1   48.16    1.77 
  -5  -6   1    1.09    0.09 
   5   6  -1    0.85    0.10 
  -5  -7   1    1.05    0.09 
   5   7  -1    0.69    0.10 
  -5  -8   1   17.10    0.71 
   5   8  -1   18.79    0.73 
  -5  -9   1    5.10    0.25 
   5   9  -1    5.04    0.27 
  -5 -10   1    0.04    0.05 
   5  10  -1   -0.05    0.05 
  -5 -11   1    0.04    0.06 
   5  11  -1   -0.10    0.05 
  -5 -12   1    3.15    0.20 
   5  12  -1    3.17    0.23 
  -5 -13   1    0.42    0.10 
   5  13  -1    0.63    0.14 
  -5 -14   1    0.11    0.09 
   5  14  -1    0.06    0.10 
  -5 -15   1    0.03    0.09 
   5  15  -1   -0.16    0.09 
  -5 -16   1    0.94    0.15 
   5  16  -1    0.95    0.18 
  -5 -17   1    0.19    0.12 
   5  17  -1   -0.02    0.13 
   6 -19  -1    0.16    0.15 
   6 -18  -1    0.01    0.12 
   6 -17  -1    0.14    0.12 
   6 -16  -1    0.10    0.10 
   6 -15  -1   -0.07    0.09 
   6 -14  -1    0.20    0.11 
   6 -13  -1   -0.03    0.07 
   6 -13  -1    0.03    0.08 
   6 -12  -1    2.30    0.16 
   6 -12  -1    1.92    0.18 
   6 -11  -1    0.32    0.08 
   6 -11  -1    0.19    0.09 
   6 -10  -1    1.20    0.14 
   6 -10  -1    1.49    0.13 
   6  -9  -1    0.53    0.09 
   6  -9  -1    0.70    0.09 
   6  -8  -1    7.75    0.34 
   6  -8  -1    7.41    0.33 
   6  -7  -1   13.80    0.54 
   6  -7  -1   13.18    0.54 
   6  -6  -1    2.05    0.13 
   6  -6  -1    2.03    0.13 
   6  -5  -1    1.17    0.09 
   6  -5  -1    1.23    0.09 
   6  -4  -1   28.19    1.03 
   6  -4  -1   28.31    1.05 
   6  -3  -1    0.07    0.03 
   6  -3  -1    0.07    0.04 
   6  -2  -1    0.03    0.03 
   6  -2  -1    0.08    0.04 
   6  -1  -1   10.66    0.43 
   6   0  -1    0.03    0.02 
   6   0  -1    0.00    0.03 
  -6  -1   1   11.31    0.45 
   6   1  -1   11.64    0.42 
   6   1  -1   11.17    0.46 
  -6  -2   1    0.03    0.03 
   6   2  -1    0.06    0.04 
   6   2  -1    0.06    0.02 
  -6  -3   1    0.08    0.04 
   6   3  -1    0.04    0.04 
   6   3  -1    0.07    0.02 
  -6  -4   1   26.81    1.03 
   6   4  -1   27.81    0.98 
   6   4  -1   27.42    1.04 
  -6  -5   1    1.16    0.09 
   6   5  -1    1.18    0.11 
  -6  -6   1    2.34    0.14 
   6   6  -1    2.11    0.15 
  -6  -7   1   13.41    0.54 
   6   7  -1   13.21    0.56 
  -6  -8   1    7.72    0.34 
   6   8  -1    7.39    0.36 
  -6  -9   1    0.67    0.09 
   6   9  -1    0.60    0.10 
  -6 -10   1    1.74    0.14 
   6  10  -1    1.57    0.16 
  -6 -11   1    0.30    0.09 
   6  11  -1    0.23    0.10 
  -6 -12   1    2.00    0.16 
   6  12  -1    2.66    0.21 
  -6 -13   1    0.08    0.08 
   6  13  -1    0.13    0.10 
  -6 -14   1    0.44    0.11 
   6  14  -1    0.24    0.12 
  -6 -15   1    0.01    0.08 
   6  15  -1    0.11    0.12 
  -6 -16   1    0.32    0.12 
   6  16  -1    0.29    0.13 
   6  17  -1    0.25    0.15 
   7 -19  -1    0.11    0.14 
   7 -18  -1   -0.02    0.13 
   7 -17  -1    0.06    0.12 
   7 -16  -1    0.01    0.11 
   7 -15  -1    0.21    0.11 
   7 -14  -1    0.57    0.13 
   7 -13  -1    1.11    0.15 
   7 -13  -1    1.20    0.13 
   7 -12  -1   -0.09    0.06 
   7 -12  -1    0.13    0.09 
   7 -11  -1    0.24    0.09 
   7 -11  -1    0.43    0.09 
   7 -10  -1    2.39    0.16 
   7 -10  -1    2.40    0.18 
   7  -9  -1    1.66    0.15 
   7  -9  -1    1.62    0.13 
   7  -8  -1    6.97    0.34 
   7  -8  -1    7.81    0.34 
   7  -7  -1    0.17    0.06 
   7  -7  -1    0.12    0.05 
   7  -6  -1    6.08    0.28 
   7  -6  -1    6.34    0.28 
   7  -5  -1    1.46    0.11 
   7  -5  -1    1.61    0.11 
   7  -4  -1    2.47    0.14 
   7  -4  -1    2.52    0.14 
   7  -3  -1    4.73    0.21 
   7  -3  -1    4.74    0.22 
   7  -2  -1   22.25    0.87 
   7  -2  -1   23.34    0.83 
   7  -1  -1    1.12    0.10 
   7   0  -1    0.05    0.03 
   7   0  -1    0.02    0.04 
   7   1  -1    0.93    0.06 
   7   1  -1    0.97    0.09 
  -7  -2   1   22.94    0.90 
   7   2  -1   23.93    0.91 
   7   2  -1   23.82    0.84 
  -7  -3   1    4.91    0.23 
   7   3  -1    5.32    0.25 
   7   3  -1    5.12    0.20 
  -7  -4   1    2.60    0.14 
   7   4  -1    2.38    0.11 
   7   4  -1    2.28    0.15 
  -7  -5   1    1.61    0.11 
   7   5  -1    1.60    0.14 
  -7  -6   1    6.14    0.28 
   7   6  -1    5.97    0.30 
  -7  -7   1    0.11    0.06 
   7   7  -1    0.16    0.06 
  -7  -8   1    7.57    0.33 
   7   8  -1    6.91    0.36 
  -7  -9   1    1.66    0.13 
   7   9  -1    1.79    0.17 
  -7 -10   1    2.11    0.16 
   7  10  -1    2.39    0.20 
  -7 -11   1    0.38    0.09 
   7  11  -1    0.39    0.11 
  -7 -12   1    0.06    0.08 
   7  12  -1    0.05    0.09 
  -7 -13   1    1.07    0.14 
   7  13  -1    1.39    0.18 
  -7 -14   1    0.60    0.12 
   7  14  -1    0.54    0.14 
  -7 -15   1    0.37    0.12 
   7  15  -1    0.36    0.13 
   7  16  -1    0.05    0.13 
   7  17  -1    0.27    0.15 
   8 -18  -1    0.00    0.12 
   8 -17  -1    0.04    0.13 
   8 -16  -1    0.25    0.12 
   8 -15  -1   -0.09    0.09 
   8 -14  -1    0.25    0.11 
   8 -13  -1    0.01    0.09 
   8 -12  -1    3.66    0.22 
   8 -12  -1    3.84    0.25 
   8 -11  -1    0.27    0.08 
   8 -11  -1    0.29    0.10 
   8 -10  -1    0.06    0.07 
   8 -10  -1    0.06    0.08 
   8  -9  -1    3.28    0.21 
   8  -9  -1    3.33    0.20 
   8  -8  -1    4.87    0.25 
   8  -8  -1    4.80    0.24 
   8  -7  -1    0.05    0.06 
   8  -7  -1    0.09    0.06 
   8  -6  -1   -0.06    0.04 
   8  -6  -1    0.00    0.05 
   8  -5  -1    2.95    0.17 
   8  -5  -1    3.09    0.17 
   8  -4  -1    6.88    0.29 
   8  -4  -1    6.32    0.30 
   8  -3  -1    3.07    0.17 
   8  -3  -1    2.81    0.15 
   8  -2  -1    8.48    0.34 
   8  -2  -1    8.70    0.37 
   8  -1  -1   11.77    0.49 
   8   0  -1   -0.04    0.02 
   8   0  -1   -0.06    0.04 
   8   1  -1   11.59    0.43 
   8   1  -1   11.81    0.49 
  -8  -2   1    8.36    0.36 
   8   2  -1    8.22    0.31 
   8   2  -1    8.14    0.37 
  -8  -3   1    3.25    0.17 
   8   3  -1    3.01    0.13 
   8   3  -1    2.88    0.18 
  -8  -4   1    6.45    0.30 
   8   4  -1    6.52    0.32 
   8   4  -1    6.94    0.26 
  -8  -5   1    3.48    0.19 
   8   5  -1    3.47    0.21 
  -8  -6   1    0.04    0.05 
   8   6  -1   -0.01    0.05 
  -8  -7   1    0.00    0.05 
   8   7  -1    0.01    0.06 
  -8  -8   1    5.03    0.25 
   8   8  -1    4.90    0.28 
  -8  -9   1    3.21    0.19 
   8   9  -1    3.03    0.21 
  -8 -10   1    0.07    0.07 
   8  10  -1   -0.04    0.08 
  -8 -11   1    0.46    0.09 
   8  11  -1    0.35    0.12 
  -8 -12   1    4.32    0.25 
   8  12  -1    3.97    0.28 
  -8 -13   1    0.08    0.09 
   8  13  -1    0.15    0.10 
  -8 -14   1    0.06    0.09 
   8  14  -1    0.44    0.13 
   8  15  -1    0.08    0.11 
   8  16  -1    0.28    0.14 
   8  17  -1    0.05    0.14 
   9 -18  -1    0.14    0.11 
   9 -17  -1    0.15    0.11 
   9 -16  -1   -0.04    0.10 
   9 -15  -1    0.66    0.15 
   9 -14  -1   -0.05    0.09 
   9 -13  -1    0.67    0.13 
   9 -12  -1    0.15    0.09 
   9 -12  -1    0.11    0.10 
   9 -11  -1    1.95    0.16 
   9 -11  -1    1.82    0.18 
   9 -10  -1    3.56    0.21 
   9 -10  -1    3.81    0.24 
   9  -9  -1    4.82    0.26 
   9  -9  -1    4.48    0.25 
   9  -8  -1    0.36    0.09 
   9  -8  -1    0.20    0.07 
   9  -7  -1    0.57    0.09 
   9  -7  -1    0.74    0.10 
   9  -6  -1    3.44    0.18 
   9  -6  -1    2.69    0.17 
   9  -5  -1    0.37    0.07 
   9  -5  -1    0.25    0.07 
   9  -4  -1    2.91    0.16 
   9  -4  -1    2.88    0.17 
   9  -3  -1    2.68    0.14 
   9  -3  -1    2.68    0.16 
   9  -2  -1   14.21    0.54 
   9  -2  -1   11.60    0.48 
   9  -1  -1    0.01    0.04 
   9  -1  -1    0.00    0.03 
   9   0  -1    0.01    0.03 
   9   0  -1    0.02    0.05 
   9   1  -1    0.01    0.02 
   9   1  -1    0.02    0.05 
  -9  -2   1   14.87    0.62 
   9   2  -1   15.24    0.56 
   9   2  -1   15.90    0.63 
  -9  -3   1    3.07    0.17 
   9   3  -1    2.86    0.18 
   9   3  -1    2.92    0.13 
  -9  -4   1    3.02    0.18 
   9   4  -1    3.09    0.14 
   9   4  -1    3.18    0.19 
  -9  -5   1    0.32    0.07 
   9   5  -1    0.24    0.07 
  -9  -6   1    3.28    0.19 
   9   6  -1    3.68    0.22 
  -9  -7   1    0.62    0.09 
   9   7  -1    0.61    0.11 
  -9  -8   1    0.29    0.08 
   9   8  -1    0.24    0.09 
  -9  -9   1    4.75    0.25 
   9   9  -1    4.78    0.29 
  -9 -10   1    3.50    0.21 
   9  10  -1    3.48    0.25 
  -9 -11   1    1.96    0.17 
   9  11  -1    2.03    0.21 
  -9 -12   1    0.08    0.08 
   9  12  -1    0.19    0.11 
  -9 -13   1    0.77    0.13 
   9  13  -1    0.55    0.14 
   9  14  -1    0.08    0.10 
   9  15  -1    0.45    0.14 
   9  16  -1   -0.12    0.12 
   9  17  -1    0.11    0.14 
  10 -17  -1    0.09    0.10 
  10 -16  -1    0.37    0.13 
  10 -15  -1    0.15    0.11 
  10 -14  -1    0.14    0.11 
  10 -13  -1   -0.07    0.09 
  10 -12  -1    0.81    0.13 
  10 -12  -1    0.41    0.12 
  10 -11  -1    0.05    0.09 
  10 -11  -1    0.01    0.08 
  10 -10  -1    0.10    0.08 
  10 -10  -1    0.08    0.09 
  10  -9  -1    0.08    0.09 
  10  -9  -1    0.07    0.07 
  10  -8  -1    0.10    0.08 
  10  -8  -1    0.09    0.07 
  10  -7  -1    0.21    0.07 
  10  -7  -1    0.14    0.08 
  10  -6  -1    0.08    0.06 
  10  -6  -1    0.11    0.06 
  10  -5  -1    6.12    0.31 
  10  -5  -1    6.42    0.29 
  10  -4  -1    0.23    0.07 
  10  -4  -1    0.27    0.06 
  10  -3  -1    0.01    0.04 
  10  -3  -1    0.00    0.05 
  10  -2  -1    0.28    0.08 
  10  -1  -1    0.16    0.07 
  10  -1  -1    0.21    0.05 
  10   0  -1    0.02    0.03 
  10   0  -1    0.01    0.05 
  10   1  -1    0.25    0.07 
  10   1  -1    0.21    0.04 
  10   2  -1    0.30    0.08 
  10   2  -1    0.35    0.04 
 -10  -3   1    0.02    0.05 
  10   3  -1    0.05    0.03 
  10   3  -1    0.03    0.06 
 -10  -4   1    0.33    0.08 
  10   4  -1    0.25    0.08 
  10   4  -1    0.27    0.04 
 -10  -5   1    7.24    0.32 
  10   5  -1    6.21    0.34 
 -10  -6   1    0.12    0.06 
  10   6  -1    0.05    0.07 
 -10  -7   1    0.17    0.07 
  10   7  -1    0.33    0.10 
 -10  -8   1    0.05    0.07 
  10   8  -1    0.29    0.10 
 -10  -9   1    0.09    0.07 
  10   9  -1    0.03    0.08 
 -10 -10   1   -0.03    0.06 
  10  10  -1    0.01    0.08 
 -10 -11   1    0.09    0.08 
  10  11  -1    0.00    0.09 
 -10 -12   1    0.44    0.11 
  10  12  -1    0.50    0.14 
  10  13  -1   -0.03    0.09 
  10  14  -1    0.09    0.12 
  10  15  -1    0.02    0.12 
  10  16  -1    0.32    0.15 
  10  17  -1    0.15    0.15 
  11 -17  -1    0.17    0.12 
  11 -16  -1    0.42    0.14 
  11 -15  -1    0.55    0.14 
  11 -14  -1    0.28    0.12 
  11 -13  -1    0.09    0.10 
  11 -12  -1    0.90    0.14 
  11 -12  -1    1.01    0.15 
  11 -11  -1    0.27    0.10 
  11 -11  -1    0.18    0.09 
  11 -10  -1    0.18    0.08 
  11 -10  -1    0.10    0.09 
  11  -9  -1    0.23    0.08 
  11  -9  -1    0.09    0.08 
  11  -8  -1    1.58    0.15 
  11  -8  -1    1.34    0.14 
  11  -7  -1    0.05    0.08 
  11  -7  -1    0.08    0.07 
  11  -6  -1    1.16    0.13 
  11  -6  -1    1.12    0.12 
  11  -5  -1    0.13    0.06 
  11  -5  -1    0.05    0.06 
  11  -4  -1    1.02    0.10 
  11  -4  -1    0.94    0.12 
  11  -3  -1    1.04    0.12 
  11  -3  -1    1.14    0.10 
  11  -2  -1    4.12    0.23 
  11  -1  -1    0.26    0.05 
  11  -1  -1    0.03    0.06 
  11   0  -1    0.01    0.06 
  11   0  -1    0.10    0.04 
  11   1  -1    0.29    0.08 
  11   1  -1    0.20    0.04 
  11   2  -1    4.00    0.24 
  11   2  -1    4.18    0.18 
 -11  -3   1    0.98    0.11 
  11   3  -1    0.99    0.14 
  11   3  -1    0.88    0.07 
 -11  -4   1    0.76    0.10 
  11   4  -1    0.79    0.12 
 -11  -5   1    0.11    0.07 
  11   5  -1    0.13    0.08 
 -11  -6   1    1.13    0.12 
  11   6  -1    0.99    0.14 
 -11  -7   1    0.12    0.07 
  11   7  -1    0.10    0.09 
 -11  -8   1    1.73    0.15 
  11   8  -1    1.74    0.19 
 -11  -9   1    0.09    0.07 
  11   9  -1    0.10    0.10 
 -11 -10   1    0.03    0.08 
  11  10  -1    0.14    0.11 
 -11 -11   1    0.10    0.08 
  11  11  -1    0.25    0.12 
  11  12  -1    1.22    0.19 
  11  13  -1   -0.03    0.11 
  11  14  -1   -0.04    0.11 
  11  15  -1    0.63    0.17 
  11  16  -1    0.36    0.16 
  11  17  -1   -0.11    0.13 
  12 -16  -1    0.20    0.12 
  12 -15  -1    0.08    0.12 
  12 -14  -1    0.12    0.11 
  12 -13  -1    0.09    0.10 
  12 -12  -1    0.07    0.09 
  12 -11  -1    0.88    0.14 
  12 -11  -1    0.86    0.14 
  12 -10  -1    0.10    0.09 
  12 -10  -1   -0.02    0.08 
  12  -9  -1    0.15    0.09 
  12  -9  -1    0.26    0.10 
  12  -8  -1    0.09    0.09 
  12  -8  -1    0.00    0.08 
  12  -7  -1    1.07    0.13 
  12  -7  -1    0.97    0.13 
  12  -6  -1    0.35    0.09 
  12  -6  -1    0.32    0.09 
  12  -5  -1    0.18    0.08 
  12  -5  -1    0.31    0.07 
  12  -4  -1    0.61    0.08 
  12  -4  -1    0.51    0.10 
  12  -3  -1    0.76    0.09 
  12  -3  -1    1.24    0.14 
  12  -2  -1    0.79    0.08 
  12  -2  -1    0.59    0.12 
  12  -1  -1    2.01    0.12 
  12  -1  -1    1.93    0.17 
  12   0  -1   -0.07    0.07 
  12   0  -1    0.04    0.04 
  12   1  -1    2.16    0.12 
  12   1  -1    1.84    0.17 
  12   2  -1    0.52    0.11 
  12   3  -1    0.79    0.13 
  12   4  -1    0.57    0.12 
 -12  -5   1    0.27    0.08 
  12   5  -1    0.32    0.10 
 -12  -6   1    0.49    0.10 
  12   6  -1    0.37    0.11 
 -12  -7   1    0.80    0.11 
  12   7  -1    1.16    0.16 
 -12  -8   1    0.03    0.07 
  12   8  -1    0.10    0.09 
 -12  -9   1    0.01    0.07 
  12   9  -1    0.26    0.10 
 -12 -10   1    0.07    0.08 
  12  10  -1    0.10    0.09 
  12  11  -1    1.18    0.19 
  12  12  -1   -0.05    0.11 
  12  13  -1   -0.01    0.11 
  12  14  -1   -0.08    0.11 
  12  15  -1   -0.11    0.12 
  12  16  -1    0.12    0.16 
  13 -16  -1    0.51    0.15 
  13 -15  -1   -0.13    0.10 
  13 -14  -1   -0.06    0.10 
  13 -13  -1    0.19    0.11 
  13 -12  -1    0.28    0.12 
  13 -11  -1   -0.14    0.09 
  13 -11  -1    0.03    0.09 
  13 -10  -1   -0.08    0.09 
  13 -10  -1   -0.02    0.09 
  13  -9  -1    0.08    0.09 
  13  -9  -1    0.13    0.09 
  13  -8  -1    0.31    0.10 
  13  -8  -1    0.27    0.10 
  13  -7  -1   -0.13    0.08 
  13  -7  -1    0.03    0.08 
  13  -6  -1    0.80    0.12 
  13  -6  -1    0.92    0.14 
  13  -5  -1    0.06    0.07 
  13  -5  -1    0.17    0.09 
  13  -4  -1    0.01    0.06 
  13  -4  -1    0.06    0.08 
  13  -3  -1    0.15    0.09 
  13  -3  -1    0.05    0.03 
  13  -2  -1    0.49    0.11 
  13  -2  -1    0.36    0.07 
  13  -1  -1    0.70    0.08 
  13  -1  -1    0.86    0.14 
  13   0  -1   -0.04    0.07 
  13   1  -1    0.79    0.13 
  13   2  -1    0.68    0.13 
  13   3  -1    0.01    0.08 
  13   4  -1   -0.02    0.07 
 -13  -5   1    0.12    0.07 
  13   5  -1    0.17    0.10 
 -13  -6   1    0.95    0.13 
  13   6  -1    0.71    0.14 
 -13  -7   1    0.05    0.07 
  13   7  -1   -0.04    0.08 
 -13  -8   1    0.38    0.09 
  13   8  -1    0.31    0.11 
 -13  -9   1    0.22    0.09 
  13   9  -1    0.06    0.09 
  13  10  -1   -0.05    0.10 
  13  11  -1   -0.04    0.10 
  13  12  -1    0.28    0.14 
  13  13  -1    0.05    0.12 
  13  14  -1    0.09    0.14 
  13  15  -1    0.00    0.13 
  14 -15  -1    0.19    0.13 
  14 -14  -1    0.06    0.12 
  14 -13  -1    0.33    0.14 
  14 -12  -1   -0.02    0.12 
  14 -11  -1    0.46    0.14 
  14 -11  -1    0.44    0.13 
  14 -10  -1    0.05    0.09 
  14 -10  -1   -0.07    0.10 
  14  -9  -1    0.00    0.09 
  14  -9  -1    0.06    0.10 
  14  -8  -1   -0.06    0.09 
  14  -8  -1   -0.06    0.09 
  14  -7  -1   -0.02    0.08 
  14  -7  -1    0.00    0.08 
  14  -6  -1   -0.04    0.08 
  14  -6  -1    0.14    0.09 
  14  -5  -1    0.22    0.09 
  14  -5  -1    0.27    0.10 
  14  -4  -1    0.16    0.10 
  14  -4  -1    0.24    0.07 
  14  -3  -1    0.68    0.09 
  14  -3  -1    0.79    0.14 
  14  -2  -1    0.16    0.10 
  14  -1  -1    0.57    0.12 
  14   0  -1   -0.14    0.06 
  14   1  -1    0.79    0.15 
  14   2  -1    0.10    0.09 
  14   3  -1    0.90    0.15 
  14   4  -1    0.12    0.10 
 -14  -5   1    0.16    0.08 
  14   5  -1    0.23    0.11 
 -14  -6   1   -0.01    0.07 
  14   6  -1    0.12    0.09 
 -14  -7   1    0.11    0.08 
  14   7  -1   -0.01    0.09 
 -14  -8   1    0.00    0.08 
  14   8  -1   -0.03    0.09 
  14   9  -1    0.17    0.12 
  14  10  -1   -0.06    0.11 
  14  11  -1    0.23    0.14 
  14  12  -1    0.03    0.12 
  14  13  -1    0.21    0.14 
  14  14  -1    0.11    0.14 
  14  15  -1    0.13    0.15 
  15 -14  -1    0.15    0.13 
  15 -13  -1    0.00    0.12 
  15 -12  -1    0.35    0.13 
  15 -11  -1    0.34    0.13 
  15 -10  -1   -0.03    0.11 
  15 -10  -1   -0.01    0.11 
  15  -9  -1    0.01    0.10 
  15  -9  -1    0.13    0.10 
  15  -8  -1    0.18    0.11 
  15  -8  -1    0.04    0.09 
  15  -7  -1   -0.06    0.08 
  15  -7  -1    0.08    0.10 
  15  -6  -1    0.12    0.09 
  15  -6  -1    0.09    0.09 
  15  -5  -1    0.30    0.11 
  15  -5  -1    0.26    0.10 
  15  -4  -1   -0.04    0.08 
  15  -3  -1    0.31    0.10 
  15  -2  -1    1.58    0.18 
  15  -1  -1    0.07    0.09 
  15   0  -1    0.05    0.09 
  15   1  -1    0.03    0.09 
  15   2  -1    1.59    0.19 
  15   3  -1    0.24    0.11 
  15   4  -1    0.03    0.09 
  15   5  -1    0.24    0.11 
 -15  -6   1    0.15    0.09 
  15   6  -1    0.14    0.11 
 -15  -7   1    0.01    0.09 
  15   7  -1    0.00    0.09 
  15   8  -1    0.24    0.11 
  15   9  -1    0.08    0.11 
  15  10  -1   -0.01    0.12 
  15  11  -1    0.19    0.13 
  15  12  -1    0.44    0.17 
  15  13  -1    0.26    0.15 
  15  14  -1    0.35    0.16 
  16 -13  -1    0.18    0.13 
  16 -12  -1    0.15    0.12 
  16 -11  -1    0.11    0.12 
  16 -10  -1    0.12    0.13 
  16 -10  -1    0.30    0.13 
  16  -9  -1    0.79    0.16 
  16  -9  -1    0.59    0.14 
  16  -8  -1   -0.13    0.10 
  16  -8  -1    0.05    0.12 
  16  -7  -1    0.05    0.10 
  16  -6  -1    0.01    0.11 
  16  -5  -1    0.23    0.11 
  16  -4  -1    0.04    0.09 
  16  -3  -1   -0.01    0.09 
  16  -2  -1    0.08    0.10 
  16  -1  -1    0.05    0.10 
  16   0  -1   -0.08    0.09 
  16   1  -1    0.18    0.10 
  16   2  -1    0.26    0.12 
  16   3  -1    0.10    0.10 
  16   4  -1    0.03    0.10 
  16   5  -1    0.12    0.11 
  16   6  -1    0.13    0.11 
  16   7  -1   -0.02    0.10 
  16   8  -1    0.02    0.10 
  16   9  -1    0.42    0.15 
  16  10  -1   -0.05    0.12 
  16  11  -1    0.01    0.12 
  16  12  -1    0.12    0.13 
  16  13  -1    0.19    0.15 
  17 -12  -1    0.03    0.13 
  17 -11  -1   -0.03    0.13 
  17 -10  -1   -0.09    0.13 
  17  -9  -1   -0.08    0.13 
  17  -8  -1    0.14    0.13 
  17  -7  -1   -0.13    0.11 
  17  -6  -1    0.10    0.12 
  17  -5  -1    0.02    0.10 
  17  -4  -1    0.05    0.11 
  17  -3  -1    0.13    0.11 
  17  -2  -1    0.91    0.16 
  17  -1  -1    0.06    0.11 
  17   0  -1   -0.11    0.10 
  17   1  -1    0.07    0.11 
  17   2  -1    0.94    0.18 
  17   3  -1    0.12    0.12 
  17   4  -1   -0.08    0.10 
  17   5  -1    0.07    0.12 
  17   6  -1    0.18    0.12 
  17   7  -1    0.00    0.11 
  17   8  -1    0.14    0.12 
  17   9  -1    0.19    0.14 
  17  10  -1    0.02    0.12 
  17  11  -1    0.18    0.15 
  17  12  -1    0.17    0.15 
  18  -9  -1    0.08    0.15 
  18  -8  -1    0.02    0.13 
  18  -7  -1   -0.03    0.13 
  18  -6  -1    0.23    0.14 
  18  -5  -1   -0.19    0.11 
  18  -4  -1    0.22    0.13 
  18  -3  -1    0.00    0.11 
  18  -2  -1   -0.06    0.10 
  18  -1  -1    0.20    0.13 
  18   0  -1   -0.01    0.11 
  18   1  -1   -0.12    0.10 
  18   2  -1    0.13    0.13 
  18   3  -1    0.09    0.13 
  18   4  -1    0.23    0.14 
  18   5  -1    0.12    0.13 
  18   6  -1    0.27    0.13 
  18   7  -1    0.01    0.11 
  18   8  -1    0.27    0.14 
  18   9  -1    0.34    0.15 
  18  10  -1    0.04    0.14 
  19  -8  -1   -0.09    0.15 
  19  -7  -1   -0.16    0.13 
  19  -6  -1   -0.05    0.14 
  19  -5  -1    0.11    0.15 
  19  -4  -1    0.07    0.14 
  19  -3  -1   -0.09    0.12 
  19  -2  -1   -0.04    0.12 
  19  -1  -1    0.28    0.14 
  19   0  -1   -0.11    0.10 
  19   1  -1    0.00    0.12 
  19   2  -1   -0.04    0.11 
  19   3  -1   -0.12    0.12 
  19   4  -1    0.24    0.16 
  19   5  -1   -0.07    0.14 
  19   6  -1    0.27    0.12 
  19   7  -1    0.28    0.13 
  19   8  -1    0.24    0.13 
  20  -6  -1    0.01    0.17 
  20  -5  -1   -0.02    0.15 
  20  -4  -1   -0.15    0.14 
  20  -3  -1    0.05    0.15 
  20  -2  -1    0.02    0.14 
  20  -1  -1    0.12    0.15 
  20   0  -1   -0.10    0.13 
  20   1  -1    0.01    0.14 
  20   2  -1    0.00    0.14 
  20   3  -1    0.04    0.15 
  20   4  -1    0.00    0.14 
  20   5  -1    0.11    0.16 
  20   6  -1    0.04    0.12 
  21  -1  -1   -0.03    0.15 
  21   0  -1   -0.04    0.14 
  21   1  -1   -0.10    0.14 
  21   1   2    0.11    0.16 
  21   0   2    0.17    0.16 
  21  -1   2    0.19    0.16 
  20   6   2    0.24    0.11 
  20   5   2    0.07    0.11 
  20   4   2    0.21    0.12 
  20   3   2    0.09    0.13 
  20   2   2   -0.01    0.12 
  20   1   2   -0.04    0.14 
  20   0   2    0.00    0.13 
  20  -1   2    0.05    0.15 
  20  -2   2   -0.06    0.15 
  20  -3   2   -0.06    0.15 
  20  -4   2    0.12    0.15 
  20  -5   2   -0.02    0.14 
  20  -6   2    0.03    0.16 
  19   8   2   -0.06    0.11 
  19   7   2    0.17    0.13 
  19   6   2    0.03    0.09 
  19   5   2    0.01    0.11 
  19   4   2    0.26    0.12 
  19   3   2    0.04    0.10 
  19   2   2   -0.03    0.13 
  19   1   2    0.07    0.15 
  19   0   2   -0.13    0.12 
  19  -1   2    0.10    0.13 
  19  -2   2    0.17    0.13 
  19  -3   2   -0.01    0.13 
  19  -4   2    0.20    0.15 
  19  -5   2   -0.01    0.13 
  19  -6   2   -0.07    0.15 
  19  -7   2    0.07    0.15 
  19  -8   2   -0.03    0.16 
  18  10   2    0.20    0.14 
  18   9   2    0.22    0.13 
  18   8   2    0.16    0.12 
 -18  -8  -2    0.01    0.13 
  18   7   2    0.17    0.12 
  18   6   2    0.07    0.11 
  18   5   2    0.10    0.11 
  18   4   2    0.24    0.12 
  18   3   2    0.07    0.10 
  18   2   2    0.08    0.12 
  18   1   2    0.01    0.11 
  18   0   2    0.08    0.11 
  18  -1   2    0.03    0.11 
  18  -2   2    0.14    0.12 
  18  -3   2    0.03    0.12 
  18  -4   2    0.34    0.14 
  18  -5   2    0.06    0.13 
  18  -6   2   -0.18    0.12 
  18  -7   2   -0.04    0.13 
  18  -8   2    0.17    0.15 
  18  -9   2   -0.21    0.13 
  18 -10   2    0.09    0.15 
  17  11   2    0.05    0.12 
  17  10   2    0.64    0.17 
  17   9   2    0.20    0.13 
 -17  -9  -2   -0.13    0.12 
  17   8   2    0.10    0.12 
 -17  -8  -2    0.06    0.12 
  17   7   2    0.22    0.12 
 -17  -7  -2    0.20    0.12 
  17   6   2    0.03    0.11 
 -17  -6  -2    0.01    0.10 
  17   5   2    0.17    0.11 
  17   4   2    0.36    0.13 
  17   3   2    0.20    0.11 
  17   2   2    0.29    0.13 
  17   1   2   -0.16    0.09 
  17   0   2   -0.05    0.09 
  17  -1   2   -0.07    0.09 
  17  -2   2    0.42    0.13 
  17  -3   2   -0.04    0.11 
  17  -4   2    0.40    0.14 
  17  -5   2    0.06    0.11 
  17  -6   2    0.13    0.12 
  17  -7   2    0.22    0.14 
  17  -8   2    0.06    0.12 
  17  -9   2    0.14    0.14 
  17 -10   2    0.35    0.16 
  17 -11   2    0.00    0.14 
  16  13   2    0.04    0.13 
  16  12   2    0.13    0.13 
  16  11   2    0.04    0.13 
  16  10   2    0.06    0.12 
 -16 -10  -2    0.03    0.12 
  16   9   2    0.23    0.14 
 -16  -9  -2    0.13    0.12 
  16   8   2    0.03    0.10 
 -16  -8  -2   -0.05    0.10 
  16   7   2    0.50    0.14 
 -16  -7  -2    0.15    0.10 
  16   6   2    0.04    0.11 
 -16  -6  -2   -0.02    0.09 
  16   5   2   -0.01    0.08 
 -16  -5  -2    0.04    0.09 
  16   4   2    0.21    0.11 
  16   3   2    0.08    0.09 
  16   2   2    0.90    0.16 
  16   1   2    0.31    0.12 
  16   0   2    0.15    0.11 
  16  -1   2    0.12    0.10 
  16  -2   2    0.74    0.15 
  16  -3   2   -0.03    0.10 
  16  -4   2    0.39    0.13 
  16  -5   2    0.07    0.10 
  16  -6   2   -0.01    0.10 
  16  -7   2    0.24    0.12 
  16  -8   2    0.12    0.12 
  16  -9   2   -0.12    0.11 
  16 -10   2   -0.04    0.12 
  16 -10   2    0.15    0.13 
  16 -11   2    0.27    0.13 
  16 -11   2   -0.10    0.12 
  16 -12   2    0.02    0.14 
  16 -12   2    0.26    0.14 
  16 -13   2    0.27    0.15 
  15  14   2    0.16    0.15 
  15  13   2    0.15    0.14 
  15  12   2    0.07    0.12 
  15  11   2    0.04    0.12 
 -15 -11  -2    0.08    0.11 
  15  10   2    0.74    0.17 
 -15 -10  -2    0.39    0.13 
  15   9   2    0.04    0.10 
 -15  -9  -2    0.13    0.10 
  15   8   2    0.13    0.10 
 -15  -8  -2   -0.01    0.09 
  15   7   2    0.02    0.09 
 -15  -7  -2    0.03    0.09 
  15   6   2    0.03    0.09 
 -15  -6  -2    0.00    0.08 
  15   5   2    0.08    0.09 
 -15  -5  -2    0.14    0.10 
  15   4   2    0.05    0.08 
 -15  -4  -2    0.01    0.10 
  15   3   2   -0.03    0.08 
  15   2   2    0.05    0.08 
  15   1   2    0.59    0.13 
  15   0   2    1.78    0.20 
  15  -1   2    0.63    0.13 
  15  -2   2    0.07    0.09 
  15  -3   2   -0.01    0.09 
  15  -4   2    0.02    0.08 
  15  -5   2    0.24    0.11 
  15  -6   2    0.02    0.09 
  15  -7   2    0.09    0.10 
  15  -7   2    0.12    0.10 
  15  -8   2    0.30    0.12 
  15  -8   2    0.15    0.10 
  15  -9   2    0.12    0.10 
  15  -9   2   -0.01    0.10 
  15 -10   2    0.67    0.16 
  15 -10   2    0.92    0.16 
  15 -11   2    0.14    0.12 
  15 -11   2   -0.07    0.11 
  15 -12   2   -0.29    0.11 
  15 -12   2   -0.07    0.11 
  15 -13   2    0.14    0.13 
  15 -13   2   -0.06    0.13 
  15 -14   2   -0.06    0.13 
  14  15   2    0.01    0.15 
  14  14   2    0.02    0.13 
  14  13   2    0.19    0.13 
  14  12   2    0.07    0.12 
 -14 -12  -2    0.02    0.11 
  14  11   2    0.33    0.13 
 -14 -11  -2    0.05    0.10 
  14  10   2    0.00    0.10 
 -14 -10  -2   -0.05    0.08 
  14   9   2    0.23    0.11 
 -14  -9  -2    0.17    0.10 
  14   8   2   -0.10    0.08 
 -14  -8  -2    0.15    0.10 
  14   7   2    0.38    0.11 
 -14  -7  -2    0.42    0.12 
  14   6   2    0.06    0.08 
 -14  -6  -2    0.08    0.09 
  14   5   2    0.03    0.08 
 -14  -5  -2    0.14    0.09 
  14   4   2   -0.06    0.07 
 -14  -4  -2   -0.11    0.08 
  14   3   2    0.32    0.11 
  14   2   2   -0.12    0.07 
  14   1   2    0.62    0.13 
  14   0   2    0.13    0.10 
  14  -1   2    0.85    0.14 
  14  -2   2   -0.04    0.09 
  14  -3   2    0.52    0.12 
  14  -4   2   -0.09    0.08 
  14  -5   2   -0.08    0.08 
  14  -5   2   -0.03    0.05 
  14  -6   2    0.02    0.08 
  14  -6   2   -0.10    0.07 
  14  -7   2    0.24    0.10 
  14  -7   2    0.20    0.11 
  14  -8   2   -0.07    0.08 
  14  -8   2   -0.03    0.09 
  14  -9   2    0.05    0.10 
  14  -9   2   -0.04    0.10 
  14 -10   2   -0.05    0.09 
  14 -10   2   -0.03    0.09 
  14 -11   2    0.45    0.13 
  14 -11   2    0.21    0.11 
  14 -12   2    0.19    0.12 
  14 -12   2    0.04    0.12 
  14 -13   2    0.14    0.13 
  14 -13   2   -0.02    0.12 
  14 -14   2    0.13    0.12 
  14 -15   2    0.23    0.13 
  13  15   2    0.01    0.15 
  13  14   2    0.23    0.14 
  13  13   2    0.21    0.13 
 -13 -13  -2   -0.03    0.10 
  13  12   2    0.15    0.12 
 -13 -12  -2    0.03    0.10 
  13  11   2    0.00    0.10 
 -13 -11  -2    0.05    0.10 
  13  10   2    0.07    0.10 
 -13 -10  -2   -0.01    0.08 
  13   9   2    0.04    0.10 
 -13  -9  -2    0.12    0.09 
  13   8   2    0.04    0.09 
 -13  -8  -2    0.05    0.08 
  13   7   2    0.06    0.08 
 -13  -7  -2    0.06    0.09 
  13   6   2    0.03    0.08 
 -13  -6  -2    0.01    0.08 
  13   5   2    0.31    0.11 
 -13  -5  -2    0.58    0.12 
  13   4   2    6.82    0.37 
 -13  -4  -2    6.46    0.35 
  13   3   2    0.19    0.10 
 -13  -3  -2    0.12    0.09 
  13   2   2    1.71    0.18 
  13   1   2    1.42    0.17 
  13   0   2   18.25    0.78 
  13  -1   2    1.42    0.16 
  13  -2   2    1.35    0.16 
  13  -3   2    0.43    0.11 
  13  -3   2    0.24    0.07 
  13  -4   2    6.70    0.36 
  13  -5   2    0.47    0.12 
  13  -5   2    0.50    0.09 
  13  -6   2   -0.10    0.08 
  13  -6   2    0.05    0.08 
  13  -7   2   -0.03    0.08 
  13  -7   2   -0.08    0.07 
  13  -8   2   -0.08    0.09 
  13  -8   2   -0.08    0.08 
  13  -9   2   -0.04    0.09 
  13  -9   2    0.22    0.10 
  13 -10   2   -0.12    0.09 
  13 -10   2    0.03    0.09 
  13 -11   2   -0.02    0.10 
  13 -11   2    0.06    0.10 
  13 -12   2   -0.11    0.10 
  13 -12   2    0.03    0.10 
  13 -13   2    0.20    0.12 
  13 -13   2   -0.03    0.12 
  13 -14   2   -0.04    0.12 
  13 -15   2    0.07    0.13 
  12  15   2    0.06    0.14 
  12  14   2    0.05    0.12 
 -12 -14  -2    0.05    0.11 
  12  13   2    0.13    0.12 
 -12 -13  -2    0.04    0.10 
  12  12   2    0.01    0.11 
 -12 -12  -2   -0.06    0.08 
  12  11   2    0.21    0.12 
 -12 -11  -2    0.08    0.09 
  12  10   2    0.77    0.15 
 -12 -10  -2    0.60    0.12 
  12   9   2    0.07    0.09 
 -12  -9  -2    0.12    0.09 
  12   8   2    0.05    0.08 
 -12  -8  -2    0.04    0.08 
  12   7   2    0.83    0.15 
 -12  -7  -2    0.73    0.12 
  12   6   2   -0.08    0.07 
 -12  -6  -2    0.05    0.07 
  12   5   2    0.08    0.08 
 -12  -5  -2    0.17    0.08 
  12   4   2    0.89    0.14 
 -12  -4  -2    1.05    0.13 
  12   3   2    2.31    0.18 
 -12  -3  -2    2.45    0.18 
  12   2   2    1.63    0.16 
 -12  -2  -2    1.39    0.15 
  12   1   2    0.70    0.12 
  12   0   2    0.86    0.13 
  12  -1   2    0.50    0.10 
  12  -1   2    0.67    0.07 
  12  -2   2    1.59    0.11 
  12  -2   2    1.68    0.16 
  12  -3   2    2.23    0.14 
  12  -3   2    2.40    0.18 
  12  -4   2    1.06    0.14 
  12  -4   2    0.47    0.07 
  12  -5   2    0.23    0.10 
  12  -5   2    0.17    0.07 
  12  -6   2    0.01    0.07 
  12  -6   2    0.05    0.06 
  12  -7   2    0.83    0.13 
  12  -7   2    0.76    0.12 
  12  -8   2   -0.04    0.07 
  12  -8   2   -0.03    0.08 
  12  -9   2   -0.12    0.07 
  12  -9   2   -0.01    0.09 
  12 -10   2    0.62    0.13 
  12 -10   2    0.80    0.13 
  12 -11   2    0.10    0.09 
  12 -11   2    0.13    0.10 
  12 -12   2   -0.03    0.09 
  12 -12   2    0.15    0.11 
  12 -13   2   -0.03    0.10 
  12 -13   2    0.08    0.11 
  12 -14   2    0.11    0.12 
  12 -14   2    0.01    0.11 
  12 -15   2   -0.01    0.11 
  12 -16   2   -0.16    0.10 
  11  15   2   -0.08    0.11 
 -11 -15  -2    0.22    0.13 
  11  14   2    0.20    0.13 
 -11 -14  -2   -0.11    0.09 
  11  13   2    0.53    0.15 
 -11 -13  -2    0.50    0.13 
  11  12   2    0.05    0.10 
 -11 -12  -2    0.15    0.10 
  11  11   2    0.74    0.15 
 -11 -11  -2    0.75    0.13 
  11  10   2    0.42    0.12 
 -11 -10  -2    0.33    0.10 
  11   9   2    0.01    0.08 
 -11  -9  -2   -0.09    0.07 
  11   8   2    4.20    0.27 
 -11  -8  -2    3.82    0.24 
  11   7   2    0.22    0.09 
 -11  -7  -2    0.41    0.10 
  11   6   2    0.09    0.08 
 -11  -6  -2    0.14    0.08 
  11   5   2   -0.03    0.06 
 -11  -5  -2    0.07    0.06 
  11   4   2    2.71    0.20 
 -11  -4  -2    2.70    0.19 
  11   3   2    0.10    0.07 
 -11  -3  -2    0.18    0.07 
  11   2   2    0.46    0.10 
 -11  -2  -2    0.51    0.09 
  11   1   2    4.16    0.24 
  11   0   2   10.87    0.51 
  11   0   2   12.24    0.44 
  11  -1   2    4.91    0.20 
  11  -1   2    3.67    0.24 
  11  -2   2    0.56    0.07 
  11  -2   2    0.61    0.11 
  11  -3   2    0.16    0.05 
  11  -3   2    0.12    0.07 
  11  -4   2    2.53    0.15 
  11  -4   2    2.55    0.18 
  11  -5   2    0.04    0.06 
  11  -5   2    0.04    0.06 
  11  -6   2    0.18    0.07 
  11  -6   2    0.09    0.07 
  11  -7   2    0.38    0.09 
  11  -7   2    0.24    0.08 
  11  -8   2    4.10    0.25 
  11  -8   2    3.65    0.23 
  11  -9   2   -0.02    0.07 
  11  -9   2    0.08    0.08 
  11 -10   2    0.44    0.11 
  11 -10   2    0.57    0.12 
  11 -11   2    0.98    0.15 
  11 -11   2    0.90    0.14 
  11 -12   2    0.09    0.10 
  11 -12   2   -0.02    0.09 
  11 -13   2    0.45    0.13 
  11 -13   2    0.46    0.13 
  11 -14   2   -0.12    0.10 
  11 -14   2    0.04    0.10 
  11 -15   2   -0.13    0.10 
  11 -16   2    0.18    0.12 
  11 -17   2    0.18    0.12 
 -10 -16  -2   -0.04    0.12 
  10  15   2   -0.08    0.10 
 -10 -15  -2   -0.08    0.10 
  10  14   2    0.05    0.10 
 -10 -14  -2   -0.05    0.09 
  10  13   2    0.01    0.10 
 -10 -13  -2    0.05    0.09 
  10  12   2    0.19    0.11 
 -10 -12  -2    0.00    0.09 
  10  11   2    1.43    0.18 
 -10 -11  -2    1.61    0.16 
  10  10   2    0.14    0.10 
 -10 -10  -2    0.11    0.09 
  10   9   2    0.00    0.08 
 -10  -9  -2   -0.08    0.08 
  10   8   2    0.21    0.09 
 -10  -8  -2    0.24    0.09 
  10   7   2    1.42    0.15 
 -10  -7  -2    1.12    0.13 
  10   6   2    0.10    0.07 
 -10  -6  -2    0.09    0.06 
  10   5   2    0.34    0.08 
 -10  -5  -2    0.56    0.09 
  10   4   2    2.04    0.15 
 -10  -4  -2    1.90    0.14 
  10   3   2    0.35    0.08 
 -10  -3  -2    0.47    0.09 
  10   2   2    1.73    0.14 
 -10  -2  -2    2.04    0.15 
  10   1   2   -0.05    0.05 
  10   1   2    0.01    0.02 
 -10  -1  -2    0.03    0.05 
  10   0   2    0.79    0.10 
  10   0   2    0.71    0.06 
  10  -1   2    0.03    0.03 
  10  -1   2    0.06    0.05 
  10  -2   2    1.95    0.14 
  10  -2   2    1.96    0.11 
  10  -3   2    0.37    0.08 
  10  -4   2    1.86    0.12 
  10  -4   2    1.99    0.14 
  10  -5   2    0.44    0.08 
  10  -5   2    0.43    0.09 
  10  -6   2   -0.04    0.05 
  10  -6   2   -0.01    0.06 
  10  -7   2    1.46    0.13 
  10  -7   2    1.16    0.14 
  10  -8   2    0.21    0.08 
  10  -8   2    0.30    0.09 
  10  -9   2    0.24    0.09 
  10  -9   2    0.04    0.09 
  10 -10   2    0.06    0.09 
  10 -10   2    0.21    0.10 
  10 -11   2    1.82    0.18 
  10 -11   2    1.66    0.17 
  10 -12   2    0.16    0.09 
  10 -12   2    0.08    0.10 
  10 -13   2    0.08    0.10 
  10 -13   2    0.01    0.09 
  10 -14   2    0.04    0.10 
  10 -14   2   -0.03    0.09 
  10 -15   2   -0.09    0.10 
  10 -16   2    0.04    0.11 
  10 -17   2    0.15    0.11 
  -9 -16  -2    0.10    0.12 
   9  15   2    0.47    0.15 
  -9 -15  -2    0.67    0.15 
   9  14   2    0.37    0.13 
  -9 -14  -2    0.16    0.11 
   9  13   2    0.66    0.15 
  -9 -13  -2    0.56    0.13 
   9  12   2    0.03    0.09 
  -9 -12  -2    0.02    0.08 
   9  11   2    0.06    0.10 
  -9 -11  -2    0.12    0.09 
   9  10   2    5.05    0.30 
  -9 -10  -2    4.56    0.28 
   9   9   2    1.70    0.17 
  -9  -9  -2    1.62    0.16 
   9   8   2    5.10    0.29 
  -9  -8  -2    5.35    0.28 
   9   7   2    0.91    0.12 
  -9  -7  -2    0.59    0.09 
   9   6   2    2.03    0.16 
  -9  -6  -2    1.98    0.15 
   9   5   2    0.35    0.08 
  -9  -5  -2    0.32    0.08 
   9   4   2    2.05    0.15 
  -9  -4  -2    1.76    0.13 
   9   3   2    0.59    0.09 
  -9  -3  -2    0.82    0.10 
   9   2   2    6.74    0.32 
  -9  -2  -2    6.99    0.32 
   9   1   2    6.60    0.32 
   9   1   2    6.62    0.25 
  -9  -1  -2    6.83    0.32 
   9   0   2    1.92    0.09 
   9   0   2    1.90    0.14 
   9  -1   2    6.56    0.32 
   9  -1   2    7.00    0.27 
   9  -2   2    7.31    0.34 
   9  -2   2    7.20    0.29 
   9  -3   2    0.73    0.09 
   9  -3   2    0.42    0.06 
   9  -4   2    1.72    0.13 
   9  -4   2    1.77    0.12 
   9  -5   2    0.48    0.08 
   9  -5   2    0.44    0.09 
   9  -6   2    2.23    0.16 
   9  -6   2    1.94    0.14 
   9  -7   2    0.68    0.10 
   9  -7   2    0.65    0.10 
   9  -8   2    5.50    0.29 
   9  -8   2    5.54    0.29 
   9  -9   2    1.34    0.15 
   9  -9   2    1.72    0.16 
   9 -10   2    5.18    0.28 
   9 -10   2    4.77    0.28 
   9 -11   2   -0.05    0.08 
   9 -11   2   -0.04    0.08 
   9 -12   2    0.19    0.10 
   9 -12   2    0.00    0.08 
   9 -13   2    0.65    0.13 
   9 -13   2    0.54    0.13 
   9 -14   2    0.36    0.13 
   9 -14   2    0.10    0.10 
   9 -15   2    0.55    0.13 
   9 -15   2    0.40    0.13 
   9 -16   2   -0.08    0.09 
   9 -17   2    0.27    0.12 
   9 -18   2    0.30    0.14 
  -8 -17  -2    0.32    0.15 
  -8 -16  -2    0.01    0.10 
   8  15   2    0.23    0.12 
  -8 -15  -2    0.18    0.11 
   8  14   2    0.08    0.11 
  -8 -14  -2    0.10    0.09 
   8  13   2    0.19    0.10 
  -8 -13  -2    0.11    0.10 
   8  12   2    0.29    0.11 
  -8 -12  -2    0.29    0.11 
   8  11   2    4.17    0.27 
  -8 -11  -2    4.69    0.27 
   8  10   2    0.70    0.13 
  -8 -10  -2    0.68    0.12 
   8   9   2    1.13    0.14 
  -8  -9  -2    1.12    0.13 
   8   8   2    1.34    0.14 
  -8  -8  -2    1.02    0.12 
   8   7   2    0.16    0.06 
  -8  -7  -2    0.14    0.06 
  -8  -7  -2    0.15    0.03 
   8   6   2    2.88    0.18 
  -8  -6  -2    2.84    0.18 
   8   5   2    1.60    0.12 
  -8  -5  -2    1.37    0.12 
   8   4   2    0.23    0.06 
  -8  -4  -2    0.27    0.07 
   8   3   2    0.49    0.08 
  -8  -3  -2    0.67    0.08 
   8   2   2    3.27    0.19 
  -8  -2  -2    3.53    0.19 
   8   1   2    5.61    0.21 
   8   1   2    5.34    0.26 
  -8  -1  -2    5.62    0.27 
   8   0   2    2.55    0.16 
   8   0   2    2.91    0.12 
  -8   0  -2    2.86    0.17 
   8  -1   2    5.23    0.25 
   8  -1   2    5.29    0.22 
   8  -2   2    3.49    0.18 
   8  -2   2    3.00    0.15 
   8  -3   2    0.63    0.07 
   8  -3   2    0.51    0.08 
   8  -4   2    0.31    0.07 
   8  -4   2    0.25    0.05 
   8  -5   2    1.25    0.12 
   8  -5   2    1.50    0.11 
   8  -6   2    3.04    0.17 
   8  -6   2    2.94    0.18 
   8  -7   2    0.16    0.07 
   8  -7   2    0.10    0.06 
   8  -8   2    0.95    0.11 
   8  -8   2    1.06    0.12 
   8  -9   2    0.94    0.12 
   8  -9   2    0.83    0.12 
   8 -10   2    0.65    0.12 
   8 -10   2    0.78    0.12 
   8 -11   2    4.89    0.28 
   8 -11   2    5.21    0.29 
   8 -12   2    0.35    0.11 
   8 -12   2    0.16    0.10 
   8 -13   2    0.22    0.10 
   8 -13   2    0.17    0.10 
   8 -14   2    0.10    0.10 
   8 -14   2   -0.02    0.09 
   8 -15   2    0.12    0.11 
   8 -15   2    0.21    0.11 
   8 -16   2    0.08    0.10 
   8 -17   2    0.09    0.11 
   8 -18   2    0.18    0.12 
  -7 -18  -2    0.23    0.15 
  -7 -17  -2    0.03    0.13 
  -7 -16  -2    0.07    0.11 
   7  15   2    1.45    0.19 
  -7 -15  -2    1.30    0.18 
   7  14   2    0.85    0.15 
  -7 -14  -2    0.92    0.15 
   7  13   2    0.18    0.10 
  -7 -13  -2    0.43    0.12 
   7  12   2    0.19    0.10 
  -7 -12  -2    0.24    0.10 
   7  11   2    0.78    0.13 
  -7 -11  -2    0.62    0.12 
   7  10   2    1.02    0.13 
  -7 -10  -2    1.21    0.13 
  -7 -10  -2    0.97    0.09 
   7   9   2    0.08    0.06 
  -7  -9  -2    0.09    0.07 
  -7  -9  -2    0.09    0.04 
   7   8   2    1.87    0.15 
  -7  -8  -2    2.09    0.15 
  -7  -8  -2    1.94    0.11 
   7   7   2   16.48    0.67 
  -7  -7  -2   17.04    0.60 
  -7  -7  -2   15.67    0.67 
   7   6   2    5.24    0.27 
  -7  -6  -2    5.57    0.21 
  -7  -6  -2    5.70    0.27 
   7   5   2    4.11    0.22 
  -7  -5  -2    4.29    0.22 
   7   4   2    0.15    0.05 
  -7  -4  -2    0.06    0.05 
   7   3   2   16.01    0.63 
  -7  -3  -2   15.71    0.63 
   7   2   2    0.62    0.08 
  -7  -2  -2    0.80    0.08 
   7   1   2    2.02    0.13 
   7   1   2    2.01    0.08 
  -7  -1  -2    2.03    0.13 
   7   0   2    1.70    0.08 
   7   0   2    1.44    0.11 
  -7   0  -2    1.63    0.12 
   7  -1   2    2.09    0.13 
   7  -1   2    2.06    0.10 
   7  -2   2    0.68    0.08 
   7  -3   2   16.41    0.65 
   7  -3   2   16.62    0.62 
   7  -4   2    0.01    0.04 
   7  -5   2    3.91    0.21 
   7  -6   2    5.58    0.27 
   7  -7   2   15.45    0.63 
   7  -8   2    1.98    0.15 
   7  -9   2   -0.02    0.05 
   7 -10   2    1.18    0.13 
   7 -11   2    0.47    0.11 
   7 -11   2    0.44    0.11 
   7 -12   2    0.28    0.10 
   7 -12   2    0.19    0.09 
   7 -13   2    0.21    0.10 
   7 -13   2    0.28    0.11 
   7 -14   2    0.87    0.15 
   7 -14   2    0.84    0.14 
   7 -15   2    1.28    0.17 
   7 -15   2    1.26    0.18 
   7 -16   2    0.06    0.10 
   7 -17   2    0.22    0.14 
   7 -18   2    0.31    0.16 
   7 -19   2   -0.06    0.13 
  -6 -19  -2   -0.03    0.15 
  -6 -18  -2   -0.18    0.13 
  -6 -17  -2    0.19    0.13 
  -6 -16  -2    0.03    0.11 
   6  15   2    0.13    0.11 
  -6 -15  -2   -0.01    0.09 
   6  14   2    0.32    0.11 
  -6 -14  -2    0.21    0.11 
   6  13   2    0.09    0.08 
  -6 -13  -2    0.20    0.09 
  -6 -13  -2    0.06    0.06 
   6  12   2    0.68    0.13 
  -6 -12  -2    0.55    0.12 
  -6 -12  -2    0.66    0.09 
   6  11   2    1.62    0.16 
  -6 -11  -2    1.44    0.12 
  -6 -11  -2    1.74    0.16 
   6  10   2    0.06    0.07 
  -6 -10  -2    0.00    0.06 
  -6 -10  -2    0.04    0.05 
   6   9   2    5.54    0.29 
  -6  -9  -2    5.45    0.25 
  -6  -9  -2    5.88    0.29 
   6   8   2    2.31    0.16 
  -6  -8  -2    2.41    0.16 
  -6  -8  -2    2.46    0.13 
   6   7   2    1.69    0.13 
  -6  -7  -2    1.57    0.13 
  -6  -7  -2    1.79    0.10 
   6   6   2    0.10    0.05 
  -6  -6  -2    0.11    0.03 
  -6  -6  -2    0.11    0.06 
   6   5   2    5.68    0.27 
  -6  -5  -2    5.68    0.21 
  -6  -5  -2    5.66    0.27 
   6   4   2    0.89    0.09 
  -6  -4  -2    0.73    0.08 
   6   3   2   19.54    0.74 
  -6  -3  -2   18.47    0.74 
   6   2   2   14.89    0.60 
  -6  -2  -2   16.03    0.61 
   6   1   2    7.08    0.25 
   6   1   2    7.24    0.30 
  -6  -1  -2    6.71    0.30 
   6   0   2    8.12    0.30 
   6   0   2    7.61    0.33 
  -6   0  -2    8.29    0.35 
   6  -1   2    7.28    0.31 
   6  -1   2    7.08    0.28 
   6  -2   2   16.62    0.64 
   6  -3   2   19.01    0.73 
   6  -4   2    0.88    0.09 
   6  -5   2    5.91    0.27 
   6  -6   2    0.19    0.06 
   6  -7   2    1.80    0.13 
   6  -8   2    2.50    0.16 
   6  -9   2    5.66    0.28 
   6 -10   2    0.07    0.06 
   6 -11   2    1.54    0.15 
   6 -12   2    0.50    0.11 
   6 -13   2    0.04    0.08 
   6 -13   2   -0.07    0.08 
   6 -14   2    0.13    0.10 
   6 -14   2    0.23    0.10 
   6 -15   2    0.04    0.10 
   6 -15   2   -0.03    0.09 
   6 -16   2    0.05    0.11 
   6 -17   2    0.00    0.12 
   6 -18   2   -0.04    0.12 
   6 -19   2    0.13    0.14 
  -5 -19  -2   -0.02    0.13 
  -5 -18  -2    0.29    0.14 
  -5 -17  -2    0.21    0.12 
  -5 -16  -2    0.07    0.10 
   5  15   2    1.01    0.16 
  -5 -15  -2    0.87    0.16 
  -5 -15  -2    0.99    0.13 
   5  14   2    0.12    0.10 
  -5 -14  -2    0.37    0.11 
  -5 -14  -2    0.21    0.09 
   5  13   2    2.85    0.21 
  -5 -13  -2    2.81    0.18 
  -5 -13  -2    3.13    0.22 
   5  12   2    0.20    0.07 
  -5 -12  -2    0.05    0.07 
  -5 -12  -2    0.10    0.06 
   5  11   2    6.12    0.32 
  -5 -11  -2    6.14    0.32 
  -5 -11  -2    6.01    0.28 
   5  10   2    1.93    0.16 
  -5 -10  -2    1.78    0.14 
  -5 -10  -2    1.91    0.12 
   5   9   2    0.08    0.05 
  -5  -9  -2    0.02    0.06 
  -5  -9  -2    0.02    0.04 
   5   8   2    3.32    0.19 
  -5  -8  -2    3.20    0.20 
  -5  -8  -2    3.23    0.16 
   5   7   2   15.92    0.64 
  -5  -7  -2   15.76    0.59 
  -5  -7  -2   15.83    0.64 
   5   6   2   54.57    2.03 
  -5  -6  -2   55.10    1.94 
  -5  -6  -2   56.13    2.06 
   5   5   2    0.27    0.06 
  -5  -5  -2    0.25    0.03 
  -5  -5  -2    0.30    0.06 
   5   4   2    0.30    0.05 
  -5  -4  -2    0.20    0.02 
  -5  -4  -2    0.22    0.05 
   5   3   2    0.46    0.06 
  -5  -3  -2    0.39    0.05 
   5   2   2    0.86    0.07 
  -5  -2  -2    0.89    0.08 
   5   1   2   11.39    0.45 
  -5  -1  -2   11.46    0.46 
   5   0   2    4.89    0.22 
  -5   0  -2    5.27    0.23 
   5  -1   2   11.75    0.46 
   5  -2   2    0.98    0.08 
   5  -3   2    0.43    0.06 
   5  -4   2    0.23    0.05 
   5  -5   2    0.28    0.06 
   5  -6   2   53.57    1.97 
   5  -7   2   15.89    0.63 
   5  -8   2    3.16    0.18 
   5  -9   2    0.03    0.06 
   5 -10   2    1.97    0.15 
   5 -11   2    5.80    0.30 
   5 -12   2    0.13    0.08 
   5 -13   2    3.07    0.21 
   5 -14   2    0.22    0.11 
   5 -14   2    0.31    0.10 
   5 -15   2    1.02    0.15 
   5 -15   2    0.82    0.15 
   5 -16   2    0.04    0.10 
   5 -16   2    0.02    0.10 
   5 -17   2    0.17    0.13 
   5 -18   2    0.06    0.14 
   5 -19   2    0.07    0.14 
  -4 -19  -2    0.26    0.15 
  -4 -18  -2   -0.08    0.12 
  -4 -17  -2    0.30    0.13 
  -4 -16  -2    0.05    0.09 
  -4 -15  -2    0.37    0.10 
   4  14   2    0.17    0.10 
  -4 -14  -2   -0.02    0.08 
   4  13   2    1.22    0.14 
  -4 -13  -2    0.79    0.11 
   4  12   2    0.11    0.06 
  -4 -12  -2    0.12    0.06 
   4  11   2    0.14    0.07 
  -4 -11  -2    0.29    0.07 
   4  10   2    1.07    0.12 
  -4 -10  -2    1.15    0.10 
   4   9   2    0.47    0.08 
  -4  -9  -2    0.42    0.07 
  -4  -9  -2    0.54    0.09 
   4   8   2    0.04    0.04 
  -4  -8  -2    0.01    0.06 
  -4  -8  -2    0.06    0.04 
   4   7   2   10.76    0.45 
  -4  -7  -2   11.35    0.47 
  -4  -7  -2   10.60    0.42 
   4   6   2   27.27    1.03 
  -4  -6  -2   26.65    1.04 
  -4  -6  -2   27.67    0.98 
   4   5   2    8.82    0.37 
  -4  -5  -2    8.87    0.38 
  -4  -5  -2    9.35    0.34 
   4   4   2    2.72    0.15 
  -4  -4  -2    2.73    0.15 
  -4  -4  -2    3.05    0.12 
   4   3   2   16.67    0.63 
  -4  -3  -2   17.15    0.59 
  -4  -3  -2   15.69    0.64 
   4   2   2    0.12    0.03 
  -4  -2  -2    0.18    0.04 
   4   1   2   14.51    0.56 
  -4  -1  -2   15.04    0.57 
   4   0   2  140.76    5.05 
  -4   0  -2  141.63    5.14 
   4  -1   2   14.57    0.55 
   4  -2   2    0.09    0.03 
   4  -3   2   16.62    0.63 
   4  -4   2    2.63    0.14 
   4  -5   2    8.67    0.36 
   4  -6   2   26.79    1.01 
   4  -7   2   10.59    0.44 
   4  -8   2    0.01    0.05 
   4  -9   2    0.41    0.08 
   4 -10   2    0.92    0.11 
   4 -11   2    0.20    0.08 
   4 -12   2    0.08    0.07 
   4 -13   2    1.10    0.14 
   4 -14   2   -0.01    0.09 
   4 -15   2    0.25    0.12 
   4 -15   2    0.41    0.12 
   4 -16   2   -0.11    0.09 
   4 -16   2    0.03    0.10 
   4 -17   2    0.04    0.11 
   4 -18   2   -0.11    0.10 
   4 -19   2   -0.06    0.13 
  -3 -18  -2    0.18    0.12 
  -3 -17  -2   -0.03    0.09 
  -3 -16  -2    0.08    0.09 
  -3 -15  -2    0.36    0.10 
   3  14   2    0.01    0.06 
  -3 -14  -2   -0.05    0.07 
   3  13   2    6.86    0.34 
  -3 -13  -2    6.46    0.32 
   3  12   2    0.26    0.08 
  -3 -12  -2    0.39    0.08 
   3  11   2   21.36    0.84 
  -3 -11  -2   20.43    0.80 
   3  10   2    6.61    0.31 
  -3 -10  -2    6.46    0.29 
   3   9   2    7.14    0.32 
  -3  -9  -2    6.61    0.30 
   3   8   2    3.62    0.19 
  -3  -8  -2    3.68    0.18 
   3   7   2   11.88    0.49 
  -3  -7  -2   12.14    0.46 
   3   6   2    0.28    0.05 
  -3  -6  -2    0.18    0.04 
   3   5   2    0.47    0.06 
  -3  -5  -2    0.42    0.06 
  -3  -5  -2    0.48    0.04 
   3   4   2   50.49    1.84 
  -3  -4  -2   51.44    1.77 
  -3  -4  -2   49.77    1.87 
   3   3   2   48.87    1.75 
  -3  -3  -2   45.99    1.78 
  -3  -3  -2   49.58    1.69 
   3   2   2    0.38    0.04 
  -3  -2  -2    0.49    0.05 
  -3  -2  -2    0.34    0.02 
   3   1   2    1.86    0.09 
  -3  -1  -2    1.93    0.10 
  -3  -1  -2    1.78    0.07 
   3   0   2  356.67   12.45 
  -3   0  -2  342.06   12.66 
   3  -1   2    1.64    0.09 
   3  -2   2    0.40    0.05 
   3  -3   2   48.90    1.78 
   3  -4   2   51.67    1.88 
   3  -5   2    0.42    0.06 
   3  -6   2    0.19    0.05 
   3  -7   2   11.81    0.48 
   3  -8   2    3.76    0.20 
   3  -9   2    6.30    0.30 
   3 -10   2    7.28    0.34 
   3 -11   2   21.05    0.84 
   3 -12   2    0.45    0.09 
   3 -13   2    6.96    0.35 
   3 -14   2    0.09    0.09 
   3 -15   2    0.25    0.10 
   3 -16   2    0.04    0.09 
   3 -16   2    0.01    0.10 
   3 -17   2    0.27    0.12 
   3 -18   2    0.13    0.13 
   3 -19   2    0.03    0.13 
   3 -20   2    0.14    0.16 
  -2 -19  -2    0.01    0.13 
  -2 -18  -2   -0.06    0.10 
  -2 -17  -2    0.01    0.09 
  -2 -16  -2    0.04    0.08 
  -2 -15  -2    0.56    0.11 
  -2 -14  -2    1.77    0.16 
  -2 -14  -2    1.80    0.16 
   2  13   2    0.63    0.10 
  -2 -13  -2    1.47    0.14 
   2  12   2   -0.03    0.04 
  -2 -12  -2   -0.01    0.06 
   2  11   2    0.12    0.05 
  -2 -11  -2    0.13    0.06 
   2  10   2    1.97    0.13 
   2   9   2    0.57    0.07 
  -2  -9  -2    1.24    0.10 
  -2  -8  -2    0.30    0.06 
  -2  -7  -2    5.28    0.23 
  -2  -6  -2   24.30    0.88 
  -2  -5  -2    1.57    0.09 
  -2  -4  -2    4.03    0.16 
  -2  -3  -2    6.66    0.27 
  -2  -3  -2    6.41    0.24 
   2   2   2   20.43    0.76 
  -2  -2  -2   21.77    0.73 
  -2  -2  -2   19.82    0.78 
   2   1   2   36.30    1.28 
  -2  -1  -2   33.79    1.30 
  -2  -1  -2   35.67    1.24 
   2   0   2    2.12    0.10 
  -2   0  -2    2.35    0.09 
  -2   0  -2    2.54    0.11 
   2  -1   2   37.03    1.34 
   2  -2   2   21.23    0.78 
   2  -3   2    6.30    0.26 
   2  -4   2    3.31    0.16 
   2  -5   2    1.49    0.10 
   2  -6   2   23.21    0.88 
   2  -7   2    5.03    0.24 
   2  -8   2    0.23    0.06 
   2  -9   2    1.21    0.11 
   2 -10   2    3.79    0.21 
   2 -11   2    0.24    0.07 
   2 -12   2    0.02    0.05 
   2 -13   2    1.48    0.15 
   2 -14   2    1.79    0.18 
   2 -15   2    0.34    0.11 
   2 -16   2    0.13    0.10 
   2 -17   2    0.20    0.12 
   2 -18   2    0.04    0.12 
   2 -19   2    0.06    0.13 
   2 -20   2   -0.03    0.15 
  -1 -20  -2    0.14    0.15 
  -1 -19  -2   -0.03    0.12 
  -1 -18  -2   -0.04    0.10 
  -1 -17  -2    1.24    0.17 
  -1 -16  -2    0.09    0.09 
  -1 -15  -2    0.61    0.13 
  -1 -14  -2    0.14    0.07 
  -1 -14  -2    0.07    0.09 
  -1 -13  -2    0.82    0.11 
  -1 -13  -2    0.96    0.12 
  -1 -12  -2    0.39    0.08 
  -1 -12  -2    0.45    0.09 
  -1 -11  -2    0.31    0.07 
   1  10   2    0.07    0.04 
  -1 -10  -2    0.17    0.06 
   1   9   2    0.01    0.03 
  -1  -9  -2    0.01    0.04 
   1   8   2    2.22    0.14 
  -1  -8  -2    3.24    0.15 
   1   7   2    3.43    0.17 
  -1  -7  -2    3.96    0.18 
   1   6   2    1.40    0.09 
  -1  -6  -2    1.54    0.09 
   1   5   2   80.48    2.85 
  -1  -5  -2   78.02    2.78 
   1   4   2   13.10    0.48 
  -1  -4  -2   12.47    0.47 
   1   3   2  242.18    8.54 
  -1  -3  -2  236.26    8.31 
   1   2   2   83.17    3.02 
  -1  -2  -2   85.58    2.94 
  -1  -1  -2   22.77    0.85 
  -1  -1  -2   23.16    0.81 
   1   0   2   10.14    0.38 
  -1   0  -2   10.38    0.38 
  -1   0  -2    9.96    0.36 
   1  -1   2   22.82    0.83 
  -1   1  -2   23.02    0.81 
   1  -2   2   84.07    3.02 
   1  -3   2  234.50    8.37 
   1  -4   2   12.55    0.49 
   1  -5   2   78.58    2.84 
   1  -6   2    1.41    0.10 
   1  -7   2    4.10    0.21 
   1  -8   2    3.42    0.19 
   1  -9   2    0.03    0.04 
   1 -10   2    0.22    0.07 
   1 -11   2    0.21    0.07 
   1 -12   2    0.36    0.09 
   1 -13   2    0.97    0.14 
   1 -14   2    0.01    0.08 
   1 -15   2    0.78    0.14 
   1 -16   2    0.12    0.09 
   1 -17   2    1.48    0.19 
   1 -17   2    1.56    0.19 
   1 -18   2   -0.14    0.10 
   1 -19   2    0.03    0.13 
   1 -20   2    0.15    0.15 
   0 -20  -2    0.07    0.15 
   0 -19  -2    0.03    0.12 
   0 -18  -2    0.32    0.12 
   0 -17  -2   -0.05    0.10 
   0 -16  -2    0.05    0.09 
   0 -15  -2    0.03    0.08 
   0 -14  -2    4.54    0.25 
   0 -14  -2    4.89    0.28 
   0 -13  -2   -0.07    0.07 
   0 -13  -2   -0.03    0.05 
   0 -12  -2    0.18    0.08 
   0 -12  -2    0.33    0.07 
   0 -11  -2    0.01    0.05 
   0 -11  -2   -0.04    0.04 
   0 -10  -2    2.15    0.14 
   0 -10  -2    2.14    0.15 
   0  -9  -2    0.00    0.03 
   0  -9  -2    0.04    0.05 
   0  -8  -2    5.44    0.24 
   0  -8  -2    5.48    0.25 
   0   7   2    0.01    0.02 
   0  -7  -2    0.06    0.04 
   0   6   2    0.47    0.05 
   0  -6  -2    0.40    0.06 
   0   5   2    0.01    0.02 
   0  -5  -2    0.11    0.03 
   0   4   2   28.36    1.02 
   0  -4  -2   27.60    1.00 
   0   3   2   -0.15    0.02 
   0   3   2   -0.15    0.02 
   0  -3  -2   -0.12    0.02 
   0   2   2   36.28    1.30 
   0  -2  -2   34.74    1.25 
   0   1   2   -0.01    0.01 
   0  -1  -2   -0.01    0.01 
   0   0  -2   79.48    2.83 
   0  -1   2   -0.03    0.01 
   0   1  -2   -0.02    0.01 
   0   2  -2   33.03    1.21 
   0   2  -2   33.62    1.18 
   0   3  -2   -0.17    0.03 
   0   4  -2   26.68    0.99 
   0   5  -2    0.05    0.03 
   0  -6   2    0.62    0.07 
   0  -7   2    0.05    0.04 
   0  -8   2    5.42    0.27 
   0  -9   2   -0.03    0.04 
   0 -10   2    2.17    0.15 
   0 -11   2   -0.05    0.04 
   0 -12   2    0.11    0.07 
   0 -13   2    0.00    0.08 
   0 -14   2    4.75    0.29 
   0 -15   2    0.13    0.09 
   0 -16   2    0.02    0.10 
   0 -17   2   -0.02    0.11 
   0 -18   2    0.52    0.14 
   0 -19   2    0.14    0.12 
   0 -20   2    0.05    0.15 
   1 -20  -2    0.20    0.15 
   1 -19  -2    0.13    0.13 
   1 -18  -2   -0.10    0.10 
   1 -17  -2    1.43    0.18 
   1 -16  -2    0.00    0.09 
   1 -15  -2    0.79    0.13 
   1 -14  -2    0.08    0.08 
   1 -13  -2    0.77    0.10 
   1 -13  -2    0.84    0.13 
   1 -12  -2    0.48    0.10 
   1 -12  -2    0.40    0.08 
   1 -11  -2    0.16    0.06 
   1 -11  -2    0.12    0.07 
   1 -10  -2    0.19    0.05 
   1 -10  -2    0.11    0.06 
   1  -9  -2    0.07    0.05 
   1  -9  -2    0.03    0.04 
   1  -8  -2    3.61    0.17 
   1  -8  -2    3.42    0.18 
   1  -7  -2    4.12    0.19 
   1  -7  -2    4.06    0.20 
   1  -6  -2    1.60    0.09 
   1  -6  -2    1.47    0.10 
   1  -5  -2   75.55    2.69 
   1  -5  -2   77.35    2.75 
   1  -4  -2   12.54    0.47 
   1  -4  -2   12.58    0.47 
   1  -3  -2  227.96    7.97 
   1  -3  -2  230.88    8.21 
   1  -2  -2   87.71    3.21 
   1  -2  -2   88.58    3.08 
   1  -1  -2   22.85    0.82 
   1  -1  -2   23.44    0.84 
   1   0  -2    9.34    0.34 
   1   0  -2    8.71    0.33 
   1   1  -2   23.44    0.84 
   1   1  -2   22.66    0.82 
   1   2  -2   87.72    2.99 
   1   2  -2   83.27    3.07 
   1   3  -2  229.74    8.20 
   1   4  -2   12.20    0.48 
   1   5  -2   74.44    2.70 
   1   6  -2    1.30    0.10 
   1   7  -2    4.13    0.21 
   1   8  -2    3.50    0.20 
   1   9  -2   -0.01    0.04 
   1  10  -2    0.16    0.07 
  -1 -11   2    0.26    0.07 
  -1 -12   2    0.36    0.09 
  -1 -13   2    0.96    0.14 
  -1 -14   2    0.06    0.09 
  -1 -15   2    0.64    0.14 
  -1 -16   2    0.10    0.11 
  -1 -17   2    1.36    0.19 
  -1 -18   2    0.09    0.11 
  -1 -19   2    0.11    0.13 
  -1 -20   2   -0.10    0.14 
   2 -20  -2    0.14    0.14 
   2 -19  -2    0.21    0.13 
   2 -18  -2    0.05    0.11 
   2 -17  -2    0.12    0.10 
   2 -16  -2    0.01    0.09 
   2 -15  -2    0.61    0.13 
   2 -14  -2    1.45    0.16 
   2 -13  -2    1.41    0.13 
   2 -13  -2    1.38    0.15 
   2 -12  -2    0.05    0.07 
   2 -12  -2    0.02    0.06 
   2 -11  -2    0.30    0.07 
   2 -11  -2    0.22    0.08 
   2 -10  -2    3.60    0.18 
   2 -10  -2    3.57    0.21 
   2  -9  -2    1.21    0.11 
   2  -9  -2    1.03    0.08 
   2  -8  -2    0.32    0.05 
   2  -8  -2    0.23    0.06 
   2  -7  -2    5.84    0.25 
   2  -7  -2    6.05    0.27 
   2  -6  -2   23.48    0.86 
   2  -6  -2   22.95    0.86 
   2  -5  -2    1.67    0.08 
   2  -5  -2    1.60    0.10 
   2  -4  -2    5.21    0.22 
   2  -4  -2    5.06    0.20 
   2  -3  -2    5.26    0.20 
   2  -3  -2    4.85    0.21 
   2  -2  -2   20.50    0.72 
   2  -2  -2   19.24    0.71 
   2  -1  -2   37.19    1.32 
   2  -1  -2   37.76    1.35 
   2   0  -2    2.06    0.09 
   2   0  -2    2.10    0.10 
   2   1  -2   36.38    1.30 
   2   1  -2   37.44    1.34 
  -2  -2   2   18.86    0.69 
   2   2  -2   19.08    0.70 
   2   2  -2   18.30    0.67 
   2   3  -2    4.93    0.22 
   2   3  -2    5.05    0.20 
   2   4  -2    4.78    0.22 
   2   5  -2    1.74    0.11 
   2   6  -2   22.57    0.87 
   2   7  -2    6.11    0.29 
   2   8  -2    0.27    0.06 
   2   9  -2    1.28    0.13 
   2  10  -2    3.66    0.22 
   2  11  -2    0.17    0.07 
   2  12  -2    0.15    0.07 
  -2 -13   2    1.04    0.15 
  -2 -14   2    2.21    0.21 
  -2 -15   2    0.67    0.14 
  -2 -16   2    0.05    0.09 
  -2 -17   2    0.13    0.12 
  -2 -18   2    0.05    0.11 
  -2 -19   2    0.01    0.12 
  -2 -20   2   -0.09    0.13 
   3 -20  -2   -0.05    0.13 
   3 -19  -2    0.08    0.13 
   3 -18  -2    0.29    0.14 
   3 -17  -2    0.08    0.10 
   3 -16  -2    0.03    0.09 
   3 -15  -2    0.29    0.11 
   3 -14  -2    0.12    0.09 
   3 -13  -2    7.00    0.35 
   3 -13  -2    6.89    0.33 
   3 -12  -2    0.50    0.08 
   3 -12  -2    0.24    0.09 
   3 -11  -2   19.22    0.77 
   3 -11  -2   20.87    0.80 
   3 -10  -2    6.48    0.31 
   3 -10  -2    6.13    0.28 
   3  -9  -2    6.32    0.28 
   3  -9  -2    6.37    0.30 
   3  -8  -2    3.30    0.16 
   3  -8  -2    3.39    0.18 
   3  -7  -2   11.40    0.46 
   3  -7  -2   11.71    0.45 
   3  -6  -2    0.34    0.06 
   3  -6  -2    0.31    0.04 
   3  -5  -2    0.26    0.04 
   3  -5  -2    0.24    0.05 
   3  -4  -2   53.63    1.92 
   3  -4  -2   52.71    1.88 
   3  -3  -2   49.74    1.81 
   3  -3  -2   53.09    1.85 
   3  -2  -2    0.41    0.04 
   3  -2  -2    0.29    0.04 
   3  -1  -2    2.00    0.09 
   3  -1  -2    1.94    0.09 
   3   0  -2  343.42   12.00 
   3   0  -2  347.68   12.31 
   3   1  -2    1.50    0.08 
   3   1  -2    2.01    0.10 
   3   2  -2    0.32    0.05 
   3   2  -2    0.24    0.03 
  -3  -3   2   48.96    1.71 
   3   3  -2   42.59    1.64 
   3   3  -2   48.31    1.71 
  -3  -4   2   53.82    1.93 
   3   4  -2   51.61    1.86 
   3   4  -2   52.19    1.92 
   3   5  -2    0.21    0.05 
   3   6  -2    0.20    0.06 
   3   7  -2   12.00    0.50 
   3   8  -2    3.67    0.21 
   3   9  -2    6.55    0.32 
   3  10  -2    6.56    0.33 
   3  11  -2   20.97    0.86 
   3  12  -2    0.54    0.12 
   3  13  -2    7.14    0.39 
   3  14  -2   -0.01    0.09 
  -3 -15   2    0.41    0.12 
  -3 -16   2   -0.09    0.09 
  -3 -17   2    0.09    0.12 
  -3 -18   2    0.10    0.12 
  -3 -19   2   -0.13    0.12 
  -3 -20   2   -0.02    0.14 
   4 -19  -2    0.09    0.14 
   4 -18  -2   -0.03    0.12 
   4 -17  -2    0.01    0.10 
   4 -16  -2   -0.03    0.09 
   4 -15  -2    0.19    0.10 
   4 -14  -2    0.04    0.09 
   4 -13  -2    1.51    0.13 
   4 -13  -2    1.05    0.15 
   4 -12  -2    0.01    0.05 
   4 -12  -2    0.16    0.08 
   4 -11  -2    0.13    0.08 
   4 -11  -2    0.06    0.06 
   4 -10  -2    0.67    0.10 
   4 -10  -2    0.75    0.08 
   4  -9  -2    0.33    0.06 
   4  -9  -2    0.21    0.07 
   4  -8  -2    0.05    0.06 
   4  -8  -2    0.03    0.04 
   4  -7  -2    9.49    0.41 
   4  -7  -2   10.64    0.41 
   4  -6  -2   26.80    0.99 
   4  -6  -2   27.00    0.99 
   4  -5  -2    8.63    0.34 
   4  -5  -2    8.68    0.35 
   4  -4  -2    2.78    0.14 
   4  -4  -2    2.92    0.13 
   4  -3  -2   18.36    0.69 
   4  -3  -2   18.66    0.68 
   4  -2  -2    0.24    0.04 
   4  -2  -2    0.17    0.03 
   4  -1  -2   14.41    0.54 
   4  -1  -2   14.38    0.53 
   4   0  -2  135.48    4.73 
   4   0  -2  135.98    4.86 
   4   1  -2   13.13    0.51 
  -4  -2   2    0.24    0.03 
   4   2  -2    0.24    0.05 
   4   2  -2    0.11    0.02 
  -4  -3   2   19.24    0.71 
   4   3  -2   18.57    0.72 
  -4  -4   2    2.91    0.13 
   4   4  -2    2.85    0.16 
  -4  -5   2    8.65    0.34 
   4   5  -2    8.11    0.36 
  -4  -6   2   26.19    0.99 
   4   6  -2   25.92    1.00 
  -4  -7   2   10.11    0.42 
   4   7  -2   10.41    0.45 
   4   8  -2    0.10    0.06 
   4   9  -2    0.31    0.08 
   4  10  -2    0.86    0.12 
   4  11  -2    0.06    0.07 
   4  12  -2    0.04    0.08 
   4  13  -2    1.30    0.17 
   4  14  -2    0.16    0.10 
   4  15  -2    0.27    0.12 
  -4 -16   2   -0.13    0.09 
  -4 -17   2   -0.08    0.12 
  -4 -18   2   -0.16    0.10 
  -4 -18   2    0.14    0.13 
   5 -19  -2    0.06    0.14 
   5 -18  -2    0.07    0.13 
   5 -17  -2    0.17    0.12 
   5 -16  -2    0.02    0.09 
   5 -15  -2    0.99    0.15 
   5 -14  -2    0.11    0.10 
   5 -13  -2    2.95    0.22 
   5 -12  -2    0.08    0.06 
   5 -12  -2   -0.02    0.07 
   5 -11  -2    6.54    0.32 
   5 -11  -2    6.38    0.30 
   5 -10  -2    1.86    0.16 
   5 -10  -2    1.82    0.13 
   5  -9  -2    0.03    0.05 
   5  -9  -2    0.02    0.05 
   5  -8  -2    2.88    0.18 
   5  -8  -2    3.26    0.17 
   5  -7  -2   15.75    0.62 
   5  -7  -2   16.08    0.61 
   5  -6  -2   56.90    2.02 
   5  -6  -2   56.04    2.05 
   5  -5  -2    0.19    0.05 
   5  -5  -2    0.14    0.04 
   5  -4  -2    0.11    0.04 
   5  -4  -2    0.21    0.04 
   5  -3  -2    0.71    0.06 
   5  -3  -2    0.74    0.06 
   5  -2  -2    0.66    0.06 
   5  -2  -2    0.67    0.06 
   5  -1  -2   10.73    0.41 
   5  -1  -2   11.06    0.43 
   5   0  -2    3.16    0.13 
   5   1  -2    4.86    0.19 
  -5  -2   2    0.80    0.06 
   5   2  -2    0.68    0.08 
   5   2  -2    0.72    0.05 
  -5  -3   2    0.66    0.05 
   5   3  -2    0.66    0.05 
   5   3  -2    0.45    0.07 
  -5  -4   2    0.31    0.04 
   5   4  -2    0.26    0.05 
   5   4  -2    0.36    0.04 
  -5  -5   2    0.15    0.04 
   5   5  -2    0.13    0.05 
  -5  -6   2   54.30    2.04 
   5   6  -2   56.21    2.05 
  -5  -7   2   15.93    0.63 
   5   7  -2   16.07    0.66 
  -5  -8   2    3.14    0.17 
   5   8  -2    3.14    0.20 
  -5  -9   2   -0.03    0.04 
   5   9  -2   -0.02    0.05 
  -5 -10   2    1.79    0.14 
   5  10  -2    2.23    0.17 
  -5 -11   2    5.76    0.30 
   5  11  -2    6.62    0.34 
  -5 -12   2    0.00    0.07 
   5  12  -2    0.03    0.08 
  -5 -13   2    2.75    0.20 
   5  13  -2    3.15    0.24 
  -5 -14   2    0.25    0.10 
   5  14  -2    0.14    0.11 
  -5 -15   2    1.13    0.15 
   5  15  -2    1.05    0.18 
   5  16  -2    0.01    0.10 
   5  17  -2    0.15    0.13 
  -5 -18   2    0.08    0.14 
   6 -19  -2   -0.05    0.13 
   6 -18  -2   -0.08    0.11 
   6 -17  -2    0.09    0.12 
   6 -16  -2   -0.09    0.09 
   6 -15  -2   -0.01    0.09 
   6 -14  -2    0.12    0.10 
   6 -13  -2    0.04    0.08 
   6 -12  -2    0.79    0.13 
   6 -12  -2    0.75    0.10 
   6 -11  -2    0.92    0.13 
   6 -11  -2    1.09    0.11 
   6 -10  -2    0.05    0.06 
   6 -10  -2    0.02    0.07 
   6  -9  -2    5.48    0.25 
   6  -9  -2    4.70    0.26 
   6  -8  -2    2.31    0.14 
   6  -8  -2    2.27    0.15 
   6  -7  -2    1.42    0.12 
   6  -7  -2    1.31    0.10 
   6  -6  -2    0.05    0.05 
   6  -6  -2    0.08    0.04 
   6  -5  -2    4.29    0.20 
   6  -5  -2    4.42    0.21 
   6  -4  -2    0.61    0.07 
   6  -4  -2    0.60    0.07 
   6  -3  -2   17.27    0.68 
   6  -3  -2   18.32    0.66 
   6  -2  -2   17.22    0.62 
   6  -2  -2   16.41    0.64 
   6  -1  -2    6.07    0.27 
   6  -1  -2    6.47    0.25 
   6   0  -2    7.63    0.32 
   6   1  -2    6.43    0.25 
   6   1  -2    6.60    0.29 
  -6  -2   2   16.52    0.63 
   6   2  -2   16.51    0.60 
   6   2  -2   16.23    0.65 
  -6  -3   2   17.60    0.69 
   6   3  -2   18.03    0.71 
   6   3  -2   18.81    0.66 
  -6  -4   2    0.59    0.06 
   6   4  -2    0.54    0.08 
   6   4  -2    0.59    0.05 
  -6  -5   2    4.19    0.19 
   6   5  -2    4.15    0.18 
   6   5  -2    3.95    0.22 
  -6  -6   2    0.05    0.04 
   6   6  -2    0.08    0.05 
  -6  -7   2    1.21    0.10 
   6   7  -2    1.59    0.14 
  -6  -8   2    2.12    0.14 
   6   8  -2    1.97    0.16 
  -6  -9   2    5.74    0.28 
   6   9  -2    5.59    0.31 
  -6 -10   2    0.00    0.05 
   6  10  -2    0.01    0.08 
  -6 -11   2    1.05    0.12 
   6  11  -2    1.29    0.16 
  -6 -12   2    0.75    0.11 
   6  12  -2    0.64    0.13 
  -6 -13   2    0.10    0.08 
   6  13  -2   -0.06    0.08 
  -6 -14   2    0.28    0.10 
   6  14  -2    0.13    0.11 
  -6 -15   2   -0.03    0.09 
   6  15  -2    0.18    0.11 
   6  16  -2    0.06    0.12 
   6  17  -2    0.00    0.13 
   6  18  -2    0.07    0.16 
   7 -19  -2   -0.14    0.13 
   7 -18  -2    0.31    0.15 
   7 -17  -2    0.33    0.14 
   7 -16  -2    0.04    0.11 
   7 -15  -2    1.30    0.18 
   7 -14  -2    0.80    0.15 
   7 -13  -2    0.18    0.10 
   7 -12  -2    0.11    0.08 
   7 -12  -2    0.21    0.07 
   7 -11  -2    0.53    0.11 
   7 -11  -2    0.62    0.10 
   7 -10  -2    1.18    0.11 
   7 -10  -2    1.13    0.14 
   7  -9  -2    0.04    0.05 
   7  -9  -2    0.05    0.07 
   7  -8  -2    1.37    0.13 
   7  -8  -2    1.60    0.12 
   7  -7  -2   16.86    0.66 
   7  -7  -2   16.63    0.66 
   7  -6  -2    5.64    0.27 
   7  -6  -2    5.87    0.26 
   7  -5  -2    3.85    0.19 
   7  -5  -2    3.88    0.19 
   7  -4  -2    0.01    0.04 
   7  -4  -2    0.15    0.04 
   7  -3  -2   15.38    0.60 
   7  -3  -2   15.58    0.58 
   7  -2  -2    0.52    0.07 
   7  -2  -2    0.48    0.06 
   7  -1  -2    1.66    0.09 
   7  -1  -2    1.60    0.11 
   7   0  -2    2.09    0.13 
   7   1  -2    1.77    0.12 
   7   1  -2    1.64    0.09 
  -7  -2   2    0.51    0.06 
   7   2  -2    0.43    0.07 
   7   2  -2    0.50    0.04 
  -7  -3   2   16.15    0.63 
   7   3  -2   16.40    0.66 
   7   3  -2   16.15    0.59 
  -7  -4   2    0.07    0.04 
   7   4  -2    0.06    0.03 
   7   4  -2    0.05    0.04 
  -7  -5   2    4.25    0.20 
   7   5  -2    3.86    0.22 
   7   5  -2    4.25    0.18 
  -7  -6   2    5.74    0.26 
   7   6  -2    5.69    0.29 
  -7  -7   2   15.77    0.64 
   7   7  -2   16.66    0.68 
  -7  -8   2    1.63    0.12 
   7   8  -2    1.98    0.17 
  -7  -9   2    0.06    0.06 
   7   9  -2   -0.01    0.07 
  -7 -10   2    1.35    0.12 
   7  10  -2    1.10    0.15 
  -7 -11   2    0.81    0.10 
   7  11  -2    0.51    0.12 
  -7 -12   2    0.24    0.08 
   7  12  -2    0.13    0.10 
  -7 -13   2    0.30    0.10 
   7  13  -2    0.24    0.11 
  -7 -14   2    0.93    0.13 
   7  14  -2    1.00    0.17 
   7  15  -2    1.20    0.19 
   7  16  -2    0.15    0.12 
   7  17  -2    0.42    0.16 
   7  18  -2    0.42    0.19 
   8 -18  -2    0.05    0.13 
   8 -17  -2    0.08    0.13 
   8 -16  -2    0.03    0.11 
   8 -15  -2    0.07    0.11 
   8 -14  -2   -0.04    0.09 
   8 -13  -2    0.37    0.12 
   8 -12  -2    0.11    0.09 
   8 -12  -2    0.26    0.08 
   8 -11  -2    4.78    0.27 
   8 -11  -2    4.19    0.24 
   8 -10  -2    0.57    0.09 
   8 -10  -2    0.46    0.11 
   8  -9  -2    1.12    0.11 
   8  -9  -2    0.96    0.12 
   8  -8  -2    1.18    0.11 
   8  -8  -2    0.96    0.12 
   8  -7  -2    0.29    0.07 
   8  -7  -2    0.20    0.06 
   8  -6  -2    3.24    0.18 
   8  -6  -2    3.17    0.18 
   8  -5  -2    1.45    0.12 
   8  -5  -2    1.53    0.11 
   8  -4  -2    0.35    0.06 
   8  -4  -2    0.30    0.06 
   8  -3  -2    0.54    0.08 
   8  -3  -2    0.62    0.07 
   8  -2  -2    3.11    0.15 
   8  -2  -2    3.04    0.17 
   8  -1  -2    3.18    0.15 
   8   0  -2    2.64    0.16 
   8   0  -2    2.37    0.12 
   8   1  -2    5.08    0.21 
   8   1  -2    4.93    0.25 
   8   2  -2    3.30    0.15 
   8   2  -2    3.29    0.19 
  -8  -3   2    0.83    0.08 
   8   3  -2    0.70    0.06 
   8   3  -2    0.69    0.10 
  -8  -4   2    0.34    0.06 
   8   4  -2    0.33    0.04 
   8   4  -2    0.31    0.07 
  -8  -5   2    1.37    0.11 
   8   5  -2    1.66    0.13 
   8   5  -2    1.60    0.09 
  -8  -6   2    3.00    0.17 
   8   6  -2    3.55    0.21 
  -8  -7   2    0.21    0.06 
   8   7  -2    0.16    0.07 
  -8  -8   2    1.20    0.11 
   8   8  -2    0.89    0.13 
  -8  -9   2    1.17    0.11 
   8   9  -2    0.76    0.13 
  -8 -10   2    0.60    0.10 
   8  10  -2    0.60    0.13 
  -8 -11   2    4.28    0.24 
   8  11  -2    4.10    0.28 
  -8 -12   2    0.30    0.09 
   8  12  -2    0.26    0.12 
  -8 -13   2    0.32    0.10 
   8  13  -2    0.25    0.11 
   8  14  -2   -0.01    0.10 
   8  15  -2    0.04    0.11 
   8  16  -2    0.20    0.15 
   8  17  -2    0.07    0.14 
   8  18  -2    0.09    0.15 
   9 -18  -2    0.42    0.14 
   9 -17  -2    0.40    0.14 
   9 -16  -2   -0.13    0.09 
   9 -15  -2    0.45    0.12 
   9 -14  -2    0.19    0.10 
   9 -13  -2    0.70    0.13 
   9 -12  -2    0.05    0.09 
   9 -11  -2    0.07    0.09 
   9 -11  -2   -0.05    0.06 
   9 -10  -2    5.48    0.29 
   9 -10  -2    5.05    0.27 
   9  -9  -2    1.70    0.14 
   9  -9  -2    1.40    0.15 
   9  -8  -2    5.28    0.27 
   9  -8  -2    5.64    0.28 
   9  -7  -2    0.76    0.10 
   9  -7  -2    0.55    0.09 
   9  -6  -2    2.13    0.15 
   9  -6  -2    2.00    0.14 
   9  -5  -2    0.17    0.06 
   9  -5  -2    0.21    0.06 
   9  -4  -2    1.60    0.12 
   9  -4  -2    1.54    0.11 
   9  -3  -2    0.67    0.09 
   9  -3  -2    0.70    0.08 
   9  -2  -2    7.41    0.31 
   9  -2  -2    7.38    0.34 
   9  -1  -2    7.07    0.33 
   9   0  -2    2.12    0.14 
   9   0  -2    1.96    0.11 
   9   1  -2    7.00    0.27 
   9   1  -2    6.59    0.32 
   9   2  -2    6.68    0.27 
   9   2  -2    6.69    0.32 
  -9  -3   2    0.86    0.09 
   9   3  -2    0.78    0.06 
   9   3  -2    0.61    0.10 
  -9  -4   2    1.54    0.12 
   9   4  -2    1.61    0.15 
   9   4  -2    1.77    0.10 
  -9  -5   2    0.15    0.05 
   9   5  -2    0.22    0.04 
   9   5  -2    0.11    0.06 
  -9  -6   2    1.83    0.13 
   9   6  -2    2.05    0.17 
  -9  -7   2    0.69    0.09 
   9   7  -2    0.76    0.13 
  -9  -8   2    5.22    0.26 
   9   8  -2    5.17    0.30 
  -9  -9   2    2.00    0.15 
   9   9  -2    1.69    0.18 
  -9 -10   2    5.05    0.27 
   9  10  -2    5.32    0.32 
  -9 -11   2    0.02    0.06 
   9  11  -2    0.00    0.10 
  -9 -12   2   -0.02    0.07 
   9  12  -2    0.04    0.10 
   9  13  -2    0.81    0.16 
   9  14  -2    0.26    0.12 
   9  15  -2    0.43    0.16 
   9  16  -2    0.02    0.13 
   9  17  -2    0.44    0.17 
   9  18  -2    0.26    0.17 
  10 -17  -2    0.35    0.12 
  10 -16  -2    0.06    0.11 
  10 -15  -2   -0.06    0.09 
  10 -14  -2   -0.11    0.08 
  10 -13  -2   -0.13    0.09 
  10 -12  -2   -0.14    0.08 
  10 -11  -2    1.72    0.16 
  10 -11  -2    1.40    0.16 
  10 -10  -2   -0.01    0.06 
  10 -10  -2    0.00    0.08 
  10  -9  -2    0.00    0.07 
  10  -9  -2    0.13    0.09 
  10  -8  -2    0.35    0.09 
  10  -8  -2    0.36    0.10 
  10  -7  -2    1.07    0.12 
  10  -6  -2   -0.01    0.06 
  10  -6  -2   -0.03    0.05 
  10  -5  -2    0.56    0.09 
  10  -5  -2    0.65    0.09 
  10  -4  -2    2.01    0.15 
  10  -4  -2    2.04    0.13 
  10  -3  -2    0.36    0.06 
  10  -3  -2    0.31    0.08 
  10  -2  -2    1.87    0.11 
  10  -2  -2    1.78    0.14 
  10  -1  -2    0.03    0.03 
  10  -1  -2   -0.03    0.05 
  10   0  -2    0.44    0.09 
  10   0  -2    0.39    0.05 
  10   1  -2    0.08    0.03 
  10   1  -2    0.05    0.06 
  10   2  -2    1.88    0.15 
  10   2  -2    1.78    0.10 
  10   3  -2    0.28    0.08 
  10   3  -2    0.41    0.05 
 -10  -4   2    1.98    0.14 
  10   4  -2    1.92    0.17 
  10   4  -2    2.05    0.11 
 -10  -5   2    0.56    0.08 
  10   5  -2    0.57    0.06 
  10   5  -2    0.62    0.12 
 -10  -6   2   -0.02    0.05 
  10   6  -2   -0.06    0.06 
 -10  -7   2    1.18    0.11 
  10   7  -2    1.07    0.15 
 -10  -8   2    0.34    0.08 
  10   8  -2    0.25    0.11 
 -10  -9   2    0.12    0.07 
  10   9  -2   -0.02    0.08 
 -10 -10   2    0.10    0.06 
  10  10  -2    0.12    0.09 
 -10 -11   2    1.32    0.14 
  10  11  -2    1.47    0.19 
  10  12  -2    0.03    0.10 
  10  13  -2    0.10    0.11 
  10  14  -2    0.07    0.11 
  10  15  -2    0.07    0.12 
  10  16  -2    0.11    0.14 
  10  17  -2    0.06    0.14 
  11 -17  -2    0.01    0.10 
  11 -16  -2    0.20    0.12 
  11 -15  -2   -0.03    0.10 
  11 -14  -2    0.14    0.11 
  11 -13  -2    0.51    0.13 
  11 -12  -2    0.00    0.09 
  11 -11  -2    1.08    0.14 
  11 -11  -2    0.77    0.13 
  11 -10  -2    0.74    0.12 
  11 -10  -2    0.60    0.12 
  11  -9  -2   -0.03    0.07 
  11  -9  -2    0.04    0.08 
  11  -8  -2    3.76    0.23 
  11  -8  -2    3.49    0.22 
  11  -7  -2    0.23    0.08 
  11  -7  -2    0.28    0.08 
  11  -6  -2    0.18    0.07 
  11  -6  -2    0.25    0.08 
  11  -5  -2    0.08    0.07 
  11  -5  -2    0.11    0.05 
  11  -4  -2    2.67    0.19 
  11  -4  -2    3.24    0.18 
  11  -3  -2    0.19    0.06 
  11  -3  -2    0.28    0.08 
  11  -2  -2    0.50    0.09 
  11  -2  -2    0.29    0.06 
  11  -1  -2    4.94    0.22 
  11  -1  -2    4.39    0.25 
  11   0  -2   11.80    0.51 
  11   0  -2   11.58    0.45 
  11   1  -2    4.57    0.20 
  11   1  -2    4.62    0.26 
  11   2  -2    0.47    0.10 
  11   2  -2    0.41    0.05 
  11   3  -2    0.25    0.04 
  11   3  -2    0.13    0.08 
 -11  -4   2    2.98    0.18 
  11   4  -2    3.08    0.22 
 -11  -5   2    0.11    0.06 
  11   5  -2    0.08    0.08 
 -11  -6   2    0.10    0.07 
  11   6  -2    0.39    0.11 
 -11  -7   2    0.44    0.09 
  11   7  -2    0.24    0.10 
 -11  -8   2    3.98    0.23 
  11   8  -2    4.27    0.28 
 -11  -9   2    0.08    0.06 
  11   9  -2    0.11    0.10 
 -11 -10   2    0.62    0.11 
  11  10  -2    0.37    0.12 
  11  11  -2    0.90    0.17 
  11  12  -2    0.12    0.11 
  11  13  -2    0.50    0.15 
  11  14  -2    0.01    0.12 
  11  15  -2    0.00    0.13 
  11  16  -2    0.22    0.15 
  11  17  -2    0.02    0.15 
  12 -16  -2    0.07    0.11 
  12 -15  -2    0.17    0.11 
  12 -14  -2    0.13    0.11 
  12 -13  -2    0.24    0.11 
  12 -12  -2    0.06    0.10 
  12 -11  -2    0.10    0.09 
  12 -11  -2    0.12    0.10 
  12 -10  -2    0.74    0.13 
  12 -10  -2    0.72    0.13 
  12  -9  -2   -0.01    0.09 
  12  -9  -2    0.01    0.08 
  12  -8  -2    0.02    0.07 
  12  -8  -2   -0.06    0.07 
  12  -7  -2    0.68    0.11 
  12  -7  -2    0.68    0.12 
  12  -6  -2   -0.01    0.08 
  12  -6  -2    0.00    0.07 
  12  -5  -2    0.14    0.06 
  12  -5  -2    0.09    0.08 
  12  -4  -2    1.14    0.14 
  12  -4  -2    1.19    0.11 
  12  -3  -2    1.80    0.13 
  12  -3  -2    2.25    0.17 
  12  -2  -2    1.93    0.17 
  12  -1  -2    0.49    0.07 
  12  -1  -2    0.45    0.11 
  12   0  -2    1.08    0.09 
  12   0  -2    0.93    0.13 
  12   1  -2    0.33    0.06 
  12   1  -2    0.51    0.11 
  12   2  -2    1.95    0.18 
  12   3  -2    1.43    0.16 
  12   4  -2    0.91    0.15 
 -12  -5   2    0.21    0.07 
  12   5  -2    0.03    0.08 
 -12  -6   2    0.00    0.06 
  12   6  -2   -0.04    0.07 
 -12  -7   2    0.71    0.11 
  12   7  -2    0.91    0.15 
 -12  -8   2   -0.01    0.06 
  12   8  -2    0.04    0.09 
 -12  -9   2    0.06    0.07 
  12   9  -2    0.13    0.09 
  12  10  -2    0.86    0.16 
  12  11  -2    0.24    0.12 
  12  12  -2    0.10    0.11 
  12  13  -2    0.11    0.12 
  12  14  -2    0.05    0.13 
  12  15  -2   -0.07    0.11 
  12  16  -2   -0.01    0.12 
  13 -15  -2    0.04    0.11 
  13 -14  -2    0.11    0.11 
  13 -13  -2    0.07    0.11 
  13 -12  -2    0.01    0.09 
  13 -11  -2   -0.13    0.08 
  13 -10  -2   -0.01    0.09 
  13 -10  -2   -0.06    0.09 
  13  -9  -2    0.01    0.08 
  13  -9  -2   -0.05    0.08 
  13  -8  -2    0.14    0.09 
  13  -8  -2   -0.04    0.08 
  13  -7  -2   -0.06    0.07 
  13  -7  -2   -0.03    0.07 
  13  -6  -2    0.13    0.09 
  13  -6  -2   -0.09    0.07 
  13  -5  -2    0.48    0.10 
  13  -5  -2    0.46    0.11 
  13  -4  -2    6.93    0.32 
  13  -4  -2    6.95    0.36 
  13  -3  -2    0.33    0.10 
  13  -3  -2    0.26    0.07 
  13  -2  -2    1.39    0.11 
  13  -2  -2    1.54    0.16 
  13  -1  -2    1.39    0.11 
  13  -1  -2    1.15    0.15 
  13   0  -2   18.29    0.70 
  13   0  -2   19.31    0.79 
  13   1  -2    1.42    0.17 
  13   2  -2    1.51    0.17 
  13   3  -2    0.30    0.11 
  13   4  -2    7.10    0.39 
 -13  -5   2    0.51    0.10 
  13   5  -2    0.54    0.13 
 -13  -6   2    0.08    0.07 
  13   6  -2   -0.12    0.07 
 -13  -7   2    0.08    0.08 
  13   7  -2   -0.02    0.09 
 -13  -8   2   -0.05    0.07 
  13   8  -2   -0.04    0.08 
  13   9  -2    0.03    0.09 
  13  10  -2    0.00    0.10 
  13  11  -2   -0.07    0.10 
  13  12  -2    0.05    0.12 
  13  13  -2   -0.02    0.11 
  13  14  -2   -0.04    0.11 
  13  15  -2   -0.05    0.12 
  14 -15  -2   -0.04    0.12 
  14 -14  -2    0.08    0.12 
  14 -13  -2    0.04    0.11 
  14 -12  -2    0.00    0.11 
  14 -11  -2   -0.01    0.10 
  14 -10  -2    0.06    0.10 
  14 -10  -2   -0.04    0.10 
  14  -9  -2    0.21    0.10 
  14  -9  -2    0.09    0.10 
  14  -8  -2    0.13    0.10 
  14  -8  -2    0.06    0.09 
  14  -7  -2    0.01    0.09 
  14  -7  -2    0.17    0.10 
  14  -6  -2    0.09    0.09 
  14  -6  -2   -0.03    0.08 
  14  -5  -2   -0.07    0.08 
  14  -5  -2    0.00    0.08 
  14  -4  -2   -0.03    0.06 
  14  -4  -2    0.03    0.08 
  14  -3  -2    0.29    0.10 
  14  -3  -2    0.12    0.04 
  14  -2  -2    0.04    0.08 
  14  -2  -2    0.00    0.06 
  14  -1  -2    0.77    0.14 
  14   0  -2    0.31    0.11 
  14   1  -2    0.89    0.15 
  14   2  -2    0.04    0.09 
  14   3  -2    0.25    0.11 
  14   4  -2   -0.09    0.08 
  14   5  -2   -0.09    0.08 
 -14  -6   2   -0.01    0.07 
  14   6  -2   -0.05    0.08 
 -14  -7   2    0.39    0.10 
  14   7  -2    0.20    0.11 
  14   8  -2    0.05    0.10 
  14   9  -2    0.03    0.10 
  14  10  -2    0.07    0.11 
  14  11  -2    0.12    0.12 
  14  12  -2   -0.09    0.12 
  14  13  -2    0.17    0.14 
  14  14  -2    0.23    0.15 
  14  15  -2   -0.18    0.11 
  15 -14  -2   -0.11    0.11 
  15 -13  -2   -0.12    0.11 
  15 -12  -2    0.01    0.11 
  15 -11  -2    0.00    0.10 
  15 -10  -2    0.50    0.14 
  15 -10  -2    0.52    0.15 
  15  -9  -2    0.20    0.11 
  15  -9  -2   -0.04    0.10 
  15  -8  -2    0.24    0.10 
  15  -8  -2    0.25    0.11 
  15  -7  -2    0.10    0.10 
  15  -7  -2    0.01    0.09 
  15  -6  -2    0.05    0.09 
  15  -6  -2    0.15    0.10 
  15  -5  -2    0.28    0.11 
  15  -5  -2    0.15    0.09 
  15  -4  -2    0.14    0.09 
  15  -4  -2    0.13    0.09 
  15  -3  -2   -0.01    0.08 
  15  -2  -2    0.06    0.09 
  15  -1  -2    0.67    0.14 
  15   0  -2    2.06    0.21 
  15   1  -2    0.57    0.13 
  15   2  -2    0.18    0.11 
  15   3  -2   -0.06    0.09 
  15   4  -2   -0.04    0.09 
  15   5  -2    0.39    0.13 
  15   6  -2   -0.09    0.07 
  15   7  -2    0.03    0.10 
  15   8  -2    0.04    0.10 
  15   9  -2    0.13    0.12 
  15  10  -2    0.47    0.15 
  15  11  -2   -0.07    0.11 
  15  12  -2    0.03    0.13 
  15  13  -2    0.06    0.13 
  15  14  -2    0.13    0.14 
  16 -13  -2   -0.01    0.13 
  16 -12  -2    0.14    0.13 
  16 -11  -2    0.19    0.13 
  16 -10  -2    0.04    0.12 
  16  -9  -2    0.04    0.12 
  16  -9  -2    0.11    0.12 
  16  -8  -2    0.02    0.11 
  16  -8  -2   -0.01    0.11 
  16  -7  -2    0.04    0.11 
  16  -7  -2    0.04    0.10 
  16  -6  -2    0.03    0.10 
  16  -5  -2    0.04    0.09 
  16  -4  -2    0.56    0.13 
  16  -3  -2    0.13    0.10 
  16  -2  -2    0.62    0.14 
  16  -1  -2    0.23    0.11 
  16   0  -2    0.07    0.10 
  16   1  -2    0.20    0.11 
  16   2  -2    0.73    0.15 
  16   3  -2    0.12    0.10 
  16   4  -2    0.42    0.14 
  16   5  -2    0.12    0.12 
  16   6  -2    0.00    0.10 
  16   7  -2    0.07    0.11 
  16   8  -2    0.05    0.11 
  16   9  -2    0.01    0.12 
  16  10  -2    0.25    0.14 
  16  11  -2    0.39    0.16 
  16  12  -2   -0.07    0.12 
  16  13  -2    0.06    0.13 
  17 -11  -2    0.21    0.15 
  17 -10  -2    0.41    0.16 
  17  -9  -2   -0.06    0.13 
  17  -8  -2   -0.03    0.12 
  17  -7  -2    0.13    0.12 
  17  -6  -2    0.40    0.13 
  17  -5  -2   -0.14    0.10 
  17  -4  -2    0.66    0.15 
  17  -3  -2   -0.05    0.10 
  17  -2  -2    0.63    0.15 
  17  -1  -2   -0.01    0.10 
  17   0  -2    0.09    0.11 
  17   1  -2    0.10    0.10 
  17   2  -2    0.14    0.12 
  17   3  -2    0.06    0.12 
  17   4  -2    0.41    0.14 
  17   5  -2   -0.05    0.11 
  17   6  -2   -0.10    0.09 
  17   7  -2    0.32    0.14 
  17   8  -2   -0.07    0.12 
  17   9  -2    0.13    0.13 
  17  10  -2    0.29    0.14 
  17  11  -2    0.13    0.13 
  18  -8  -2   -0.19    0.12 
  18  -7  -2    0.15    0.14 
  18  -6  -2    0.09    0.13 
  18  -5  -2   -0.02    0.12 
  18  -4  -2    0.33    0.15 
  18  -3  -2    0.05    0.12 
  18  -2  -2   -0.06    0.11 
  18  -1  -2    0.05    0.11 
  18   0  -2    0.18    0.12 
  18   1  -2   -0.07    0.10 
  18   2  -2   -0.12    0.11 
  18   3  -2   -0.02    0.13 
  18   4  -2    0.41    0.16 
  18   5  -2    0.02    0.13 
  18   6  -2   -0.09    0.11 
  18   7  -2    0.09    0.13 
  18   8  -2    0.12    0.11 
  18   9  -2    0.00    0.12 
  18  10  -2    0.09    0.13 
  19  -8  -2   -0.03    0.15 
  19  -7  -2    0.10    0.15 
  19  -6  -2    0.04    0.13 
  19  -5  -2   -0.01    0.13 
  19  -4  -2    0.49    0.17 
  19  -3  -2   -0.04    0.13 
  19  -2  -2   -0.05    0.12 
  19  -1  -2   -0.02    0.12 
  19   0  -2   -0.01    0.12 
  19   1  -2    0.00    0.12 
  19   2  -2    0.11    0.14 
  19   3  -2    0.11    0.14 
  19   4  -2    0.25    0.16 
  19   5  -2   -0.03    0.14 
  19   6  -2    0.09    0.15 
  19   7  -2    0.03    0.11 
  19   8  -2    0.13    0.12 
  20  -6  -2   -0.06    0.15 
  20  -5  -2    0.07    0.16 
  20  -4  -2    0.13    0.16 
  20  -3  -2   -0.01    0.14 
  20  -2  -2   -0.09    0.14 
  20  -1  -2    0.11    0.14 
  20   0  -2   -0.26    0.12 
  20   1  -2   -0.10    0.14 
  20   2  -2    0.10    0.16 
  20   3  -2   -0.01    0.14 
  20   4  -2   -0.08    0.15 
  20   5  -2   -0.08    0.13 
  20   6  -2   -0.05    0.15 
  21  -1  -2    0.07    0.15 
  21   0  -2    0.03    0.16 
  21   1  -2    0.19    0.16 
  20   6   3    0.31    0.13 
  20   5   3    0.25    0.12 
  20   4   3    0.23    0.12 
  20   3   3    0.04    0.09 
  20   2   3    0.01    0.14 
  20   1   3   -0.05    0.15 
  20   0   3   -0.11    0.13 
  20  -1   3    0.16    0.16 
  20  -2   3   -0.14    0.12 
  20  -3   3   -0.12    0.14 
  20  -4   3    0.12    0.16 
  20  -5   3    0.02    0.16 
  20  -6   3   -0.06    0.16 
  19   8   3    0.08    0.11 
 -19  -8  -3   -0.11    0.14 
  19   7   3    0.21    0.12 
  19   6   3    0.14    0.12 
  19   5   3    0.31    0.13 
  19   4   3    0.02    0.09 
  19   3   3    0.41    0.13 
  19   2   3   -0.06    0.11 
  19   1   3    0.10    0.14 
  19   0   3   -0.03    0.13 
  19  -1   3    0.06    0.14 
  19  -2   3    0.04    0.12 
  19  -3   3    0.09    0.14 
  19  -4   3    0.10    0.15 
  19  -5   3   -0.08    0.14 
  19  -6   3   -0.16    0.13 
  19  -7   3    0.10    0.16 
  19  -8   3   -0.08    0.15 
  18  10   3    0.07    0.12 
  18   9   3    0.15    0.12 
 -18  -9  -3   -0.10    0.14 
  18   8   3    0.11    0.11 
 -18  -8  -3   -0.11    0.13 
  18   7   3   -0.10    0.10 
 -18  -7  -3   -0.12    0.11 
  18   6   3    0.03    0.11 
  18   5   3    0.61    0.15 
  18   4   3   -0.06    0.09 
  18   3   3    0.08    0.11 
  18   2   3    0.11    0.10 
  18   1   3    0.16    0.13 
  18   0   3   -0.07    0.11 
  18  -1   3    0.26    0.14 
  18  -2   3    0.02    0.12 
  18  -3   3    0.17    0.13 
  18  -4   3    0.12    0.13 
  18  -5   3    0.34    0.15 
  18  -6   3   -0.04    0.12 
  18  -7   3   -0.01    0.14 
  18  -8   3   -0.13    0.13 
  18  -9   3    0.11    0.15 
  18 -10   3    0.17    0.17 
  17  11   3    0.27    0.15 
  17  10   3    0.11    0.12 
 -17 -10  -3    0.07    0.13 
  17   9   3    0.14    0.13 
 -17  -9  -3   -0.11    0.12 
  17   8   3    0.14    0.12 
 -17  -8  -3    0.08    0.12 
  17   7   3    0.07    0.12 
 -17  -7  -3    0.09    0.12 
  17   6   3    0.14    0.12 
 -17  -6  -3   -0.06    0.10 
  17   5   3    0.03    0.10 
  17   4   3    0.18    0.11 
  17   3   3    0.09    0.10 
  17   2   3    0.84    0.16 
  17   1   3   -0.09    0.10 
  17   0   3   -0.04    0.11 
  17  -1   3    0.08    0.11 
  17  -2   3    0.75    0.16 
  17  -3   3    0.17    0.12 
  17  -4   3    0.02    0.11 
  17  -5   3    0.15    0.11 
  17  -6   3   -0.03    0.11 
  17  -7   3   -0.04    0.11 
  17  -8   3    0.02    0.13 
  17  -9   3    0.00    0.14 
  17 -10   3   -0.01    0.14 
  17 -11   3    0.09    0.16 
  16  13   3    0.37    0.16 
  16  12   3   -0.09    0.13 
  16  11   3    0.16    0.13 
 -16 -11  -3   -0.06    0.13 
  16  10   3    0.08    0.13 
 -16 -10  -3    0.14    0.13 
  16   9   3    0.36    0.14 
 -16  -9  -3    0.22    0.12 
  16   8   3    0.06    0.11 
 -16  -8  -3    0.23    0.13 
  16   7   3    0.11    0.11 
 -16  -7  -3   -0.02    0.09 
  16   6   3    0.10    0.10 
 -16  -6  -3    0.22    0.12 
  16   5   3    0.85    0.16 
 -16  -5  -3    0.76    0.14 
  16   4   3    0.06    0.09 
  16   3   3   -0.01    0.08 
  16   2   3    0.04    0.08 
  16   1   3    0.36    0.12 
  16   0   3   -0.13    0.07 
  16  -1   3    0.32    0.12 
  16  -2   3    0.11    0.11 
  16  -3   3    0.27    0.12 
  16  -4   3    0.08    0.10 
  16  -5   3    0.68    0.15 
  16  -6   3    0.22    0.11 
  16  -7   3    0.16    0.12 
  16  -8   3    0.14    0.12 
  16  -9   3    0.49    0.15 
  16 -10   3    0.06    0.13 
  16 -11   3    0.21    0.13 
  16 -11   3   -0.20    0.12 
  16 -12   3   -0.13    0.13 
  16 -12   3    0.17    0.15 
  16 -13   3    0.43    0.15 
  15  14   3    0.06    0.14 
  15  13   3    0.09    0.14 
  15  12   3   -0.13    0.12 
 -15 -12  -3    0.05    0.13 
  15  11   3    0.16    0.13 
 -15 -11  -3    0.26    0.13 
  15  10   3    0.08    0.11 
 -15 -10  -3   -0.11    0.09 
  15   9   3    0.36    0.14 
 -15  -9  -3    0.51    0.13 
  15   8   3    0.14    0.11 
 -15  -8  -3    0.25    0.12 
  15   7   3    0.09    0.10 
 -15  -7  -3   -0.02    0.09 
  15   6   3    0.07    0.09 
 -15  -6  -3   -0.03    0.08 
  15   5   3    0.45    0.12 
 -15  -5  -3    0.40    0.12 
  15   4   3    0.28    0.11 
 -15  -4  -3    0.24    0.11 
  15   3   3    0.92    0.16 
  15   2   3    0.31    0.11 
  15   1   3    0.07    0.08 
  15   0   3    0.13    0.10 
  15  -1   3   -0.04    0.09 
  15  -2   3    0.41    0.11 
  15  -3   3    0.67    0.14 
  15  -4   3    0.10    0.10 
  15  -5   3    0.53    0.14 
  15  -6   3   -0.02    0.09 
  15  -7   3    0.02    0.10 
  15  -8   3    0.16    0.11 
  15  -8   3    0.04    0.10 
  15  -9   3    0.21    0.12 
  15  -9   3    0.52    0.13 
  15 -10   3    0.08    0.11 
  15 -10   3    0.05    0.11 
  15 -11   3    0.17    0.13 
  15 -11   3    0.10    0.11 
  15 -12   3    0.05    0.12 
  15 -12   3    0.03    0.12 
  15 -13   3    0.08    0.15 
  15 -13   3   -0.10    0.11 
  15 -14   3    0.12    0.13 
  14  14   3    0.28    0.16 
  14  13   3   -0.11    0.12 
 -14 -13  -3    0.02    0.12 
  14  12   3    0.01    0.12 
 -14 -12  -3   -0.10    0.10 
  14  11   3    0.16    0.12 
 -14 -11  -3    0.06    0.09 
  14  10   3    0.15    0.12 
 -14 -10  -3    0.13    0.10 
  14   9   3    0.49    0.14 
 -14  -9  -3    0.40    0.12 
  14   8   3   -0.03    0.09 
 -14  -8  -3   -0.08    0.07 
  14   7   3    0.32    0.11 
 -14  -7  -3    0.42    0.12 
  14   6   3    0.06    0.09 
 -14  -6  -3   -0.08    0.08 
  14   5   3    0.99    0.15 
 -14  -5  -3    1.13    0.15 
  14   4   3    0.12    0.09 
 -14  -4  -3    0.18    0.10 
  14   3   3    1.94    0.20 
 -14  -3  -3    1.81    0.19 
  14   2   3    0.07    0.08 
  14   1   3    1.51    0.17 
  14   0   3   -0.07    0.08 
  14  -1   3    2.20    0.21 
  14  -2   3    0.10    0.10 
  14  -3   3    1.97    0.20 
  14  -4   3    0.14    0.10 
  14  -5   3    1.18    0.16 
  14  -6   3   -0.07    0.09 
  14  -6   3    0.13    0.09 
  14  -7   3    0.32    0.11 
  14  -7   3    0.31    0.11 
  14  -8   3   -0.03    0.09 
  14  -8   3    0.09    0.10 
  14  -9   3    0.37    0.12 
  14  -9   3    0.43    0.12 
  14 -10   3   -0.05    0.10 
  14 -10   3    0.04    0.11 
  14 -11   3    0.26    0.12 
  14 -11   3    0.04    0.10 
  14 -12   3   -0.08    0.11 
  14 -12   3   -0.08    0.10 
  14 -13   3    0.20    0.14 
  14 -13   3   -0.17    0.12 
  14 -14   3    0.08    0.13 
  14 -14   3   -0.07    0.13 
  14 -15   3    0.37    0.15 
  13  15   3    0.01    0.15 
  13  14   3    0.08    0.13 
 -13 -14  -3    0.01    0.12 
  13  13   3    0.10    0.13 
 -13 -13  -3   -0.09    0.10 
  13  12   3    0.08    0.12 
 -13 -12  -3    0.16    0.11 
  13  11   3    0.05    0.12 
 -13 -11  -3    0.08    0.09 
  13  10   3    0.09    0.10 
 -13 -10  -3   -0.04    0.08 
  13   9   3    0.08    0.09 
 -13  -9  -3    0.28    0.10 
  13   8   3    0.08    0.09 
 -13  -8  -3    0.01    0.08 
  13   7   3    0.05    0.09 
 -13  -7  -3   -0.04    0.08 
  13   6   3    0.02    0.09 
 -13  -6  -3   -0.07    0.07 
  13   5   3    0.68    0.13 
 -13  -5  -3    0.80    0.13 
  13   4   3   -0.02    0.08 
 -13  -4  -3    0.17    0.09 
  13   3   3    1.25    0.16 
 -13  -3  -3    1.39    0.16 
  13   2   3   -0.04    0.08 
 -13  -2  -3    0.03    0.08 
  13   1   3    1.95    0.18 
  13   0   3    0.15    0.10 
  13  -1   3    1.95    0.19 
  13  -2   3   -0.05    0.08 
  13  -3   3    1.39    0.17 
  13  -3   3    1.43    0.12 
  13  -4   3   -0.04    0.05 
  13  -4   3    0.18    0.10 
  13  -5   3    0.82    0.10 
  13  -5   3    0.98    0.15 
  13  -6   3   -0.05    0.08 
  13  -6   3    0.05    0.09 
  13  -7   3    0.08    0.09 
  13  -7   3   -0.02    0.08 
  13  -8   3   -0.10    0.09 
  13  -8   3    0.08    0.09 
  13  -9   3    0.01    0.09 
  13  -9   3    0.26    0.11 
  13 -10   3    0.13    0.11 
  13 -10   3    0.04    0.09 
  13 -11   3   -0.08    0.09 
  13 -11   3   -0.13    0.09 
  13 -12   3    0.14    0.12 
  13 -12   3    0.07    0.11 
  13 -13   3   -0.20    0.10 
  13 -13   3   -0.08    0.11 
  13 -14   3    0.03    0.12 
  13 -14   3   -0.12    0.11 
  13 -15   3   -0.05    0.12 
  12  15   3    0.27    0.16 
 -12 -15  -3    0.01    0.13 
  12  14   3    0.05    0.13 
 -12 -14  -3   -0.06    0.10 
  12  13   3    0.19    0.14 
 -12 -13  -3   -0.01    0.10 
  12  12   3    0.08    0.11 
 -12 -12  -3   -0.05    0.08 
  12  11   3    0.20    0.12 
 -12 -11  -3    0.24    0.10 
  12  10   3    0.18    0.11 
 -12 -10  -3   -0.01    0.09 
  12   9   3    3.20    0.24 
 -12  -9  -3    3.10    0.23 
  12   8   3    0.52    0.13 
 -12  -8  -3    0.77    0.13 
  12   7   3    0.93    0.15 
 -12  -7  -3    0.63    0.12 
  12   6   3    0.26    0.10 
 -12  -6  -3    0.62    0.11 
  12   5   3    0.16    0.09 
 -12  -5  -3    0.22    0.09 
  12   4   3    0.24    0.09 
 -12  -4  -3    0.27    0.10 
  12   3   3    3.06    0.21 
 -12  -3  -3    3.25    0.22 
  12   2   3    1.89    0.18 
 -12  -2  -3    2.39    0.18 
  12   1   3    7.04    0.36 
  12   0   3   -0.01    0.07 
  12  -1   3    6.88    0.35 
  12  -2   3    2.39    0.19 
  12  -2   3    2.23    0.13 
  12  -3   3    3.06    0.22 
  12  -3   3    2.95    0.16 
  12  -4   3    0.12    0.09 
  12  -4   3    0.04    0.03 
  12  -5   3    0.28    0.09 
  12  -5   3    0.10    0.06 
  12  -6   3    0.41    0.08 
  12  -6   3    0.30    0.10 
  12  -7   3    0.71    0.12 
  12  -7   3    0.67    0.11 
  12  -8   3    0.49    0.12 
  12  -8   3    0.62    0.12 
  12  -9   3    3.22    0.23 
  12  -9   3    3.42    0.24 
  12 -10   3    0.10    0.09 
  12 -10   3    0.12    0.10 
  12 -11   3    0.13    0.10 
  12 -11   3    0.42    0.13 
  12 -12   3    0.06    0.10 
  12 -12   3    0.00    0.11 
  12 -13   3   -0.12    0.10 
  12 -13   3    0.09    0.10 
  12 -14   3    0.09    0.11 
  12 -14   3    0.14    0.12 
  12 -15   3    0.09    0.12 
  12 -16   3    0.12    0.12 
 -11 -16  -3    0.11    0.14 
  11  15   3    0.27    0.15 
 -11 -15  -3    0.48    0.14 
  11  14   3   -0.05    0.11 
 -11 -14  -3   -0.10    0.10 
  11  13   3   -0.01    0.11 
 -11 -13  -3    0.00    0.09 
  11  12   3    0.06    0.10 
 -11 -12  -3   -0.03    0.09 
  11  11   3    0.46    0.12 
 -11 -11  -3    0.34    0.11 
  11  10   3    0.19    0.10 
 -11 -10  -3    0.06    0.09 
  11   9   3    0.77    0.14 
 -11  -9  -3    0.71    0.13 
  11   8   3    0.70    0.13 
 -11  -8  -3    0.74    0.12 
  11   7   3    0.85    0.13 
 -11  -7  -3    0.84    0.13 
  11   6   3    0.40    0.10 
 -11  -6  -3    0.34    0.10 
  11   5   3    0.01    0.07 
 -11  -5  -3    0.02    0.07 
  11   4   3    0.00    0.07 
 -11  -4  -3    0.08    0.07 
  11   3   3    0.88    0.13 
 -11  -3  -3    1.03    0.12 
  11   2   3    0.50    0.10 
 -11  -2  -3    0.36    0.09 
  11   1   3    2.27    0.17 
 -11  -1  -3    2.04    0.17 
  11   0   3    0.04    0.04 
  11   0   3    0.00    0.06 
  11  -1   3    2.23    0.12 
  11  -1   3    2.18    0.16 
  11  -2   3    0.41    0.06 
  11  -2   3    0.27    0.08 
  11  -3   3    1.15    0.10 
  11  -3   3    0.97    0.13 
  11  -4   3    0.05    0.07 
  11  -4   3    0.01    0.05 
  11  -5   3   -0.05    0.05 
  11  -5   3    0.11    0.07 
  11  -6   3    0.33    0.09 
  11  -6   3    0.39    0.08 
  11  -7   3    0.94    0.13 
  11  -7   3    0.91    0.13 
  11  -8   3    0.50    0.11 
  11  -8   3    0.62    0.12 
  11  -9   3    0.93    0.14 
  11  -9   3    0.85    0.14 
  11 -10   3    0.20    0.10 
  11 -10   3    0.01    0.10 
  11 -11   3    0.39    0.11 
  11 -11   3    0.54    0.12 
  11 -12   3    0.06    0.10 
  11 -12   3    0.06    0.10 
  11 -13   3    0.06    0.10 
  11 -13   3    0.04    0.10 
  11 -14   3    0.14    0.11 
  11 -14   3    0.16    0.12 
  11 -15   3    0.46    0.14 
  11 -15   3    0.40    0.14 
  11 -16   3    0.10    0.11 
  11 -17   3    0.29    0.13 
 -10 -17  -3   -0.05    0.14 
 -10 -16  -3    0.00    0.13 
  10  15   3   -0.15    0.12 
 -10 -15  -3   -0.09    0.10 
  10  14   3    0.20    0.12 
 -10 -14  -3    0.06    0.10 
  10  13   3    0.91    0.17 
 -10 -13  -3    0.92    0.15 
  10  12   3    0.80    0.15 
 -10 -12  -3    0.65    0.13 
  10  11   3    0.20    0.11 
 -10 -11  -3    0.12    0.10 
  10  10   3    0.50    0.12 
 -10 -10  -3    0.46    0.12 
  10   9   3    0.64    0.12 
 -10  -9  -3    0.47    0.12 
  10   8   3    0.05    0.07 
 -10  -8  -3   -0.05    0.07 
  10   7   3   -0.02    0.06 
 -10  -7  -3    0.01    0.07 
  10   6   3    2.73    0.20 
 -10  -6  -3    2.88    0.19 
  10   5   3    3.48    0.21 
 -10  -5  -3    3.50    0.21 
  10   4   3    0.22    0.07 
 -10  -4  -3    0.19    0.07 
  10   3   3    5.98    0.30 
 -10  -3  -3    5.67    0.29 
  10   2   3    2.26    0.16 
 -10  -2  -3    2.22    0.16 
  10   1   3    0.87    0.05 
  10   1   3    0.72    0.10 
 -10  -1  -3    0.88    0.11 
  10   0   3    0.00    0.03 
  10   0   3   -0.01    0.05 
  10  -1   3    0.85    0.07 
  10  -1   3    0.82    0.11 
  10  -2   3    2.44    0.13 
  10  -2   3    1.98    0.15 
  10  -3   3    5.20    0.27 
  10  -4   3    0.22    0.08 
  10  -4   3    0.15    0.06 
  10  -5   3    3.86    0.20 
  10  -5   3    3.27    0.21 
  10  -6   3    2.63    0.19 
  10  -6   3    2.86    0.17 
  10  -7   3   -0.02    0.07 
  10  -7   3   -0.03    0.06 
  10  -8   3    0.07    0.08 
  10  -8   3    0.06    0.07 
  10  -9   3    0.52    0.11 
  10  -9   3    0.78    0.13 
  10 -10   3    0.66    0.12 
  10 -10   3    0.72    0.14 
  10 -11   3    0.09    0.09 
  10 -11   3    0.17    0.10 
  10 -12   3    0.66    0.13 
  10 -12   3    0.63    0.14 
  10 -13   3    0.85    0.16 
  10 -13   3    1.10    0.15 
  10 -14   3    0.00    0.10 
  10 -14   3    0.21    0.12 
  10 -15   3   -0.01    0.11 
  10 -15   3   -0.15    0.09 
  10 -16   3    0.14    0.11 
  10 -17   3   -0.06    0.10 
  -9 -17  -3    0.13    0.13 
  -9 -16  -3    0.10    0.13 
  -9 -15  -3    0.85    0.16 
   9  14   3    0.05    0.11 
  -9 -14  -3    0.02    0.10 
   9  13   3    0.09    0.11 
  -9 -13  -3    0.11    0.09 
   9  12   3    0.08    0.10 
  -9 -12  -3    0.06    0.10 
   9  11   3    2.73    0.22 
  -9 -11  -3    2.71    0.22 
   9  10   3    2.85    0.22 
  -9 -10  -3    2.56    0.20 
   9   9   3    1.32    0.15 
  -9  -9  -3    1.37    0.15 
   9   8   3    0.46    0.10 
  -9  -8  -3    0.43    0.10 
   9   7   3    0.06    0.06 
  -9  -7  -3   -0.08    0.05 
   9   6   3    0.08    0.05 
  -9  -6  -3    0.17    0.07 
   9   5   3    0.66    0.10 
  -9  -5  -3    0.52    0.09 
   9   4   3    0.03    0.05 
  -9  -4  -3    0.02    0.05 
   9   3   3    6.74    0.33 
  -9  -3  -3    7.12    0.33 
   9   2   3    0.26    0.07 
  -9  -2  -3    0.40    0.08 
   9   1   3    0.31    0.07 
   9   1   3    0.34    0.03 
  -9  -1  -3    0.42    0.08 
   9   0   3    0.04    0.03 
   9   0   3   -0.02    0.05 
  -9   0  -3    0.06    0.05 
   9  -1   3    0.35    0.07 
   9  -1   3    0.40    0.05 
   9  -2   3    0.29    0.05 
   9  -2   3    0.35    0.07 
   9  -3   3    6.71    0.32 
   9  -4   3    0.02    0.04 
   9  -4   3   -0.01    0.05 
   9  -5   3    0.64    0.10 
   9  -5   3    0.61    0.08 
   9  -6   3    0.18    0.07 
   9  -6   3    0.07    0.06 
   9  -7   3    0.09    0.06 
   9  -7   3    0.08    0.07 
   9  -8   3    0.58    0.11 
   9  -8   3    0.60    0.11 
   9  -9   3    1.12    0.14 
   9  -9   3    1.07    0.13 
   9 -10   3    2.68    0.20 
   9 -10   3    2.59    0.19 
   9 -11   3    2.78    0.21 
   9 -11   3    2.86    0.22 
   9 -12   3    0.08    0.09 
   9 -12   3   -0.02    0.09 
   9 -13   3    0.10    0.10 
   9 -13   3    0.00    0.08 
   9 -14   3   -0.03    0.09 
   9 -14   3    0.04    0.10 
   9 -15   3    0.80    0.16 
   9 -15   3    0.84    0.17 
   9 -16   3    0.20    0.12 
   9 -17   3   -0.01    0.11 
   9 -18   3   -0.02    0.11 
  -8 -18  -3   -0.01    0.13 
  -8 -17  -3   -0.04    0.12 
  -8 -16  -3    0.65    0.15 
  -8 -15  -3    0.09    0.10 
   8  14   3   -0.04    0.09 
  -8 -14  -3    0.13    0.10 
   8  13   3    0.79    0.14 
  -8 -13  -3    0.65    0.14 
   8  12   3    2.26    0.21 
  -8 -12  -3    2.22    0.20 
   8  11   3    0.73    0.13 
  -8 -11  -3    0.85    0.13 
   8  10   3    1.63    0.17 
  -8 -10  -3    1.71    0.17 
   8   9   3    1.35    0.14 
  -8  -9  -3    0.91    0.13 
   8   8   3    1.46    0.14 
  -8  -8  -3    1.60    0.15 
   8   7   3    0.34    0.08 
  -8  -7  -3    0.23    0.07 
   8   6   3    2.74    0.17 
  -8  -6  -3    2.54    0.17 
   8   5   3   14.30    0.59 
  -8  -5  -3   13.95    0.59 
   8   4   3    0.52    0.08 
  -8  -4  -3    0.46    0.08 
   8   3   3    1.73    0.12 
  -8  -3  -3    1.56    0.12 
   8   2   3    0.09    0.05 
  -8  -2  -3    0.13    0.05 
   8   1   3   15.41    0.65 
   8   1   3   17.08    0.58 
  -8  -1  -3   16.24    0.66 
   8   0   3    0.01    0.02 
   8   0   3    0.03    0.04 
  -8   0  -3   -0.04    0.04 
   8  -1   3   17.04    0.67 
   8  -1   3   16.81    0.62 
   8  -2   3    0.04    0.03 
   8  -2   3    0.06    0.05 
   8  -3   3    1.54    0.12 
   8  -4   3    0.61    0.09 
   8  -5   3   14.36    0.59 
   8  -6   3    2.34    0.16 
   8  -7   3    0.39    0.08 
   8  -8   3    1.41    0.14 
   8  -9   3    1.28    0.14 
   8 -10   3    1.66    0.16 
   8 -11   3    0.70    0.12 
   8 -12   3    2.10    0.20 
   8 -12   3    2.16    0.19 
   8 -13   3    0.59    0.13 
   8 -13   3    0.56    0.12 
   8 -14   3   -0.07    0.08 
   8 -14   3    0.03    0.09 
   8 -15   3   -0.09    0.09 
   8 -15   3   -0.02    0.10 
   8 -16   3    0.48    0.14 
   8 -16   3    0.45    0.14 
   8 -17   3    0.15    0.12 
   8 -18   3   -0.04    0.10 
  -7 -18  -3   -0.02    0.14 
  -7 -17  -3   -0.08    0.12 
  -7 -16  -3   -0.04    0.11 
  -7 -15  -3    0.23    0.11 
   7  14   3    0.45    0.12 
  -7 -14  -3    0.44    0.13 
   7  13   3   -0.04    0.09 
  -7 -13  -3    0.17    0.10 
   7  12   3    1.92    0.19 
  -7 -12  -3    1.78    0.18 
   7  11   3    0.05    0.07 
  -7 -11  -3    0.05    0.08 
   7  10   3    4.48    0.25 
  -7 -10  -3    3.96    0.25 
   7   9   3    1.83    0.16 
  -7  -9  -3    1.60    0.10 
  -7  -9  -3    1.55    0.15 
   7   8   3    0.08    0.05 
  -7  -8  -3    0.09    0.06 
  -7  -8  -3    0.00    0.03 
   7   7   3    0.19    0.06 
  -7  -7  -3    0.10    0.03 
  -7  -7  -3    0.04    0.06 
   7   6   3    1.57    0.12 
  -7  -6  -3    1.53    0.13 
  -7  -6  -3    1.59    0.08 
   7   5   3    0.17    0.05 
  -7  -5  -3    0.24    0.06 
   7   4   3   -0.05    0.03 
  -7  -4  -3    0.02    0.04 
   7   3   3    0.01    0.03 
  -7  -3  -3    0.02    0.04 
   7   2   3    5.12    0.24 
  -7  -2  -3    5.05    0.24 
   7   1   3    8.66    0.37 
   7   1   3    9.10    0.32 
  -7  -1  -3    8.43    0.38 
   7   0   3    0.00    0.02 
   7   0   3   -0.01    0.03 
  -7   0  -3    0.06    0.04 
   7  -1   3    8.25    0.35 
   7  -2   3    5.38    0.26 
   7  -3   3    0.04    0.04 
   7  -4   3   -0.01    0.04 
   7  -5   3    0.16    0.05 
   7  -6   3    1.56    0.12 
   7  -7   3    0.07    0.05 
   7  -8   3   -0.02    0.05 
   7  -9   3    1.64    0.15 
   7 -10   3    4.34    0.25 
   7 -11   3    0.05    0.08 
   7 -12   3    1.78    0.17 
   7 -13   3    0.24    0.10 
   7 -14   3    0.28    0.11 
   7 -14   3    0.37    0.12 
   7 -15   3    0.21    0.11 
   7 -15   3    0.02    0.10 
   7 -16   3    0.06    0.11 
   7 -16   3    0.01    0.09 
   7 -17   3    0.26    0.14 
   7 -18   3    0.09    0.14 
   7 -19   3    0.05    0.14 
  -6 -19  -3    0.20    0.17 
  -6 -18  -3   -0.04    0.14 
  -6 -17  -3    0.07    0.14 
  -6 -16  -3    0.48    0.15 
  -6 -15  -3    0.46    0.13 
   6  14   3    0.31    0.11 
  -6 -14  -3    0.26    0.11 
   6  13   3   -0.12    0.08 
  -6 -13  -3   -0.13    0.08 
   6  12   3    1.23    0.14 
  -6 -12  -3    1.65    0.17 
  -6 -12  -3    1.17    0.11 
   6  11   3    4.58    0.26 
  -6 -11  -3    4.88    0.28 
  -6 -11  -3    4.74    0.23 
   6  10   3    1.92    0.15 
  -6 -10  -3    1.89    0.12 
  -6 -10  -3    1.61    0.16 
   6   9   3    2.72    0.18 
  -6  -9  -3    2.69    0.14 
  -6  -9  -3    2.66    0.18 
   6   8   3    4.81    0.25 
  -6  -8  -3    5.09    0.26 
  -6  -8  -3    5.06    0.21 
   6   7   3    0.04    0.04 
  -6  -7  -3    0.00    0.05 
  -6  -7  -3    0.04    0.03 
   6   6   3    0.54    0.08 
  -6  -6  -3    0.56    0.08 
  -6  -6  -3    0.55    0.04 
   6   5   3    4.20    0.22 
  -6  -5  -3    4.42    0.22 
  -6  -5  -3    4.53    0.17 
   6   4   3    4.99    0.23 
  -6  -4  -3    4.83    0.24 
   6   3   3   15.55    0.60 
  -6  -3  -3   15.00    0.61 
   6   2   3   31.44    1.20 
  -6  -2  -3   33.02    1.22 
   6   1   3    2.62    0.15 
  -6  -1  -3    2.96    0.16 
   6   0   3   -0.02    0.03 
  -6   0  -3    0.01    0.03 
   6  -1   3    2.98    0.16 
   6  -2   3   32.58    1.21 
   6  -3   3   15.92    0.63 
   6  -4   3    4.63    0.23 
   6  -5   3    4.13    0.21 
   6  -6   3    0.56    0.08 
   6  -7   3   -0.02    0.04 
   6  -8   3    5.16    0.26 
   6  -9   3    2.56    0.17 
   6 -10   3    1.74    0.15 
   6 -11   3    5.13    0.28 
   6 -12   3    1.22    0.14 
   6 -13   3   -0.04    0.08 
   6 -14   3    0.28    0.11 
   6 -15   3    0.39    0.13 
   6 -15   3    0.36    0.12 
   6 -16   3    0.21    0.12 
   6 -16   3   -0.02    0.11 
   6 -17   3    0.38    0.15 
   6 -18   3    0.24    0.15 
   6 -19   3    0.08    0.15 
  -5 -19  -3    0.00    0.13 
  -5 -18  -3   -0.16    0.12 
  -5 -17  -3    0.00    0.11 
  -5 -16  -3   -0.02    0.10 
  -5 -15  -3    0.44    0.13 
   5  14   3    0.06    0.10 
  -5 -14  -3    0.13    0.10 
  -5 -14  -3    0.20    0.08 
   5  13   3    0.06    0.06 
  -5 -13  -3   -0.03    0.05 
  -5 -13  -3    0.06    0.08 
   5  12   3    0.02    0.05 
  -5 -12  -3   -0.04    0.08 
  -5 -12  -3    0.12    0.06 
   5  11   3    1.38    0.14 
  -5 -11  -3    1.63    0.16 
  -5 -11  -3    1.59    0.12 
   5  10   3    0.00    0.05 
  -5 -10  -3    0.00    0.05 
  -5 -10  -3   -0.01    0.06 
   5   9   3    0.41    0.08 
  -5  -9  -3    0.34    0.08 
  -5  -9  -3    0.32    0.06 
   5   8   3    8.20    0.37 
  -5  -8  -3    8.56    0.39 
  -5  -8  -3    8.55    0.34 
   5   7   3    1.49    0.11 
  -5  -7  -3    1.35    0.09 
  -5  -7  -3    1.26    0.12 
   5   6   3   12.10    0.50 
  -5  -6  -3   12.19    0.45 
  -5  -6  -3   12.78    0.52 
   5   5   3    0.24    0.05 
  -5  -5  -3    0.31    0.03 
  -5  -5  -3    0.28    0.06 
   5   4   3    0.49    0.06 
  -5  -4  -3    0.42    0.03 
  -5  -4  -3    0.52    0.07 
   5   3   3    0.40    0.05 
  -5  -3  -3    0.38    0.06 
   5   2   3    0.98    0.08 
  -5  -2  -3    1.25    0.09 
   5   1   3    9.02    0.36 
  -5  -1  -3    8.46    0.36 
   5   0   3    0.03    0.03 
  -5   0  -3    0.03    0.03 
   5  -1   3    8.71    0.35 
  -5   1  -3    8.05    0.35 
   5  -2   3    1.28    0.09 
   5  -3   3    0.40    0.06 
   5  -4   3    0.46    0.07 
   5  -5   3    0.32    0.06 
   5  -6   3   12.61    0.52 
   5  -7   3    1.53    0.13 
   5  -8   3    8.70    0.39 
   5  -9   3    0.36    0.08 
   5 -10   3    0.09    0.06 
   5 -11   3    1.61    0.15 
   5 -12   3   -0.04    0.07 
   5 -13   3   -0.07    0.07 
   5 -14   3    0.14    0.09 
   5 -15   3    0.21    0.12 
   5 -16   3   -0.10    0.10 
   5 -16   3   -0.02    0.10 
   5 -17   3   -0.03    0.12 
   5 -18   3   -0.13    0.11 
   5 -19   3   -0.06    0.13 
  -4 -19  -3    0.17    0.16 
  -4 -18  -3    0.25    0.15 
  -4 -17  -3    0.10    0.12 
  -4 -16  -3    0.44    0.12 
  -4 -16  -3    0.70    0.15 
  -4 -15  -3    1.24    0.14 
   4  14   3    0.20    0.08 
  -4 -14  -3    0.60    0.10 
   4  13   3    1.39    0.14 
  -4 -13  -3    1.38    0.13 
   4  12   3    1.44    0.14 
  -4 -12  -3    1.23    0.12 
   4  11   3    2.92    0.19 
  -4 -11  -3    2.92    0.17 
   4  10   3    0.11    0.06 
  -4 -10  -3    0.28    0.08 
  -4 -10  -3    0.20    0.06 
   4   9   3   11.96    0.51 
  -4  -9  -3   12.58    0.54 
  -4  -9  -3   12.21    0.48 
   4   8   3   22.43    0.88 
  -4  -8  -3   22.49    0.90 
  -4  -8  -3   23.08    0.84 
   4   7   3   16.99    0.68 
  -4  -7  -3   17.27    0.70 
  -4  -7  -3   17.56    0.64 
   4   6   3    3.70    0.19 
  -4  -6  -3    3.74    0.16 
  -4  -6  -3    3.62    0.19 
   4   5   3    2.09    0.12 
  -4  -5  -3    1.90    0.13 
  -4  -5  -3    2.13    0.10 
   4   4   3   13.47    0.54 
  -4  -4  -3   14.58    0.50 
  -4  -4  -3   13.64    0.55 
   4   3   3   28.48    1.07 
  -4  -3  -3   29.65    1.02 
  -4  -3  -3   28.45    1.09 
   4   2   3   46.25    1.67 
  -4  -2  -3   46.37    1.70 
  -4  -2  -3   45.07    1.61 
   4   1   3    4.33    0.19 
  -4  -1  -3    4.59    0.20 
   4   0   3    0.07    0.03 
  -4   0  -3   -0.01    0.02 
   4  -1   3    4.38    0.19 
  -4   1  -3    4.32    0.20 
   4  -2   3   45.95    1.68 
   4  -3   3   29.07    1.08 
   4  -4   3   14.31    0.56 
   4  -5   3    2.22    0.13 
   4  -6   3    4.27    0.21 
   4  -7   3   17.84    0.70 
   4  -8   3   23.55    0.91 
   4  -9   3   12.57    0.53 
   4 -10   3    0.27    0.07 
   4 -11   3    2.55    0.18 
   4 -12   3    1.33    0.15 
   4 -13   3    1.57    0.17 
   4 -14   3    0.48    0.12 
   4 -15   3    1.11    0.16 
   4 -16   3    0.76    0.14 
   4 -17   3    0.24    0.13 
   4 -17   3    0.20    0.12 
   4 -18   3    0.08    0.13 
   4 -19   3   -0.01    0.14 
  -3 -17  -3    0.05    0.09 
  -3 -16  -3    0.10    0.09 
  -3 -15  -3    0.80    0.12 
  -3 -14  -3   -0.09    0.07 
   3  13   3    0.25    0.07 
  -3 -13  -3    0.61    0.10 
  -3 -12  -3    0.54    0.09 
  -3 -11  -3    0.49    0.08 
  -3 -10  -3    0.65    0.08 
  -3  -8  -3    3.63    0.18 
  -3  -7  -3    7.58    0.31 
  -3  -6  -3   27.49    0.98 
  -3  -6  -3   27.22    1.05 
  -3  -5  -3    2.98    0.13 
  -3  -5  -3    2.90    0.16 
   3   4   3    0.11    0.03 
  -3  -4  -3    0.17    0.03 
  -3  -4  -3    0.17    0.04 
   3   3   3   68.33    2.43 
  -3  -3  -3   64.47    2.48 
  -3  -3  -3   69.66    2.36 
   3   2   3   21.71    0.81 
  -3  -2  -3   22.11    0.83 
  -3  -2  -3   22.00    0.77 
   3   1   3   67.67    2.40 
  -3  -1  -3   64.07    2.44 
  -3  -1  -3   68.09    2.33 
   3   0   3    0.08    0.03 
  -3   0  -3    0.00    0.01 
  -3   0  -3    0.00    0.02 
   3  -1   3   67.86    2.40 
  -3   1  -3   65.31    2.44 
   3  -2   3   22.74    0.85 
   3  -3   3   67.85    2.45 
   3  -4   3    0.19    0.04 
   3  -5   3    3.01    0.16 
   3  -6   3   26.13    0.99 
   3  -7   3    7.54    0.33 
   3  -8   3    3.26    0.18 
   3  -9   3    2.09    0.15 
   3 -10   3    0.76    0.10 
   3 -11   3    0.59    0.10 
   3 -12   3    0.71    0.12 
   3 -13   3    0.83    0.13 
   3 -14   3   -0.11    0.07 
   3 -15   3    0.80    0.15 
   3 -16   3    0.23    0.11 
   3 -17   3   -0.02    0.11 
   3 -18   3    0.03    0.12 
   3 -19   3    0.13    0.14 
  -2 -19  -3    0.29    0.14 
  -2 -18  -3    0.21    0.11 
  -2 -17  -3    0.37    0.12 
  -2 -16  -3    2.40    0.20 
  -2 -15  -3    0.45    0.11 
  -2 -14  -3    0.83    0.12 
   2  13   3    0.49    0.09 
  -2 -13  -3    0.65    0.11 
   2  12   3    6.38    0.31 
  -2 -12  -3    6.00    0.30 
   2  11   3    0.01    0.04 
  -2 -11  -3    0.00    0.05 
   2  10   3    0.69    0.09 
  -2 -10  -3    0.63    0.08 
   2   9   3    0.05    0.04 
  -2  -9  -3    0.05    0.04 
   2   8   3    7.87    0.34 
  -2  -8  -3    7.79    0.33 
   2   7   3    0.04    0.03 
  -2  -7  -3    0.06    0.04 
   2   6   3   23.51    0.87 
  -2  -6  -3   23.25    0.85 
   2   5   3   10.91    0.42 
  -2  -5  -3   10.96    0.41 
   2   4   3    3.48    0.16 
  -2  -4  -3    3.76    0.15 
  -2  -3  -3   46.59    1.60 
  -2  -3  -3   44.70    1.69 
  -2  -2  -3  101.43    3.47 
  -2  -2  -3   97.38    3.63 
   2   1   3    1.14    0.06 
  -2  -1  -3    1.08    0.05 
  -2  -1  -3    1.00    0.06 
   2   0   3    0.02    0.02 
  -2   0  -3    0.00    0.02 
  -2   0  -3    0.01    0.01 
   2  -1   3    1.15    0.07 
  -2   1  -3    1.03    0.06 
  -2   1  -3    0.96    0.06 
   2  -2   3   99.61    3.57 
   2  -3   3   43.07    1.57 
   2  -4   3    3.79    0.18 
   2  -5   3   10.48    0.42 
   2  -6   3   21.24    0.82 
   2  -7   3    0.05    0.04 
   2  -8   3    7.06    0.33 
   2  -9   3    0.10    0.05 
   2 -10   3    0.74    0.10 
   2 -11   3   -0.08    0.04 
   2 -12   3    5.02    0.28 
   2 -13   3    0.62    0.12 
   2 -14   3    0.99    0.15 
   2 -15   3    0.75    0.15 
   2 -16   3    2.31    0.22 
   2 -17   3    0.37    0.14 
   2 -18   3    0.35    0.14 
   2 -19   3    0.14    0.14 
   2 -20   3    0.47    0.18 
  -1 -20  -3    0.03    0.14 
  -1 -19  -3   -0.01    0.11 
  -1 -18  -3    0.24    0.12 
  -1 -17  -3    0.07    0.10 
  -1 -16  -3   -0.03    0.08 
  -1 -15  -3    0.01    0.08 
  -1 -14  -3    0.02    0.08 
  -1 -13  -3    0.80    0.12 
  -1 -13  -3    0.84    0.11 
  -1 -12  -3    0.27    0.08 
  -1 -12  -3    0.19    0.07 
  -1 -11  -3    2.45    0.16 
   1  10   3    0.00    0.04 
  -1 -10  -3    0.00    0.04 
   1   9   3    0.42    0.06 
  -1  -9  -3    0.39    0.07 
   1   8   3    1.01    0.08 
  -1  -8  -3    0.99    0.09 
   1   7   3    2.28    0.12 
  -1  -7  -3    2.41    0.13 
   1   6   3    4.99    0.22 
  -1  -6  -3    5.31    0.22 
   1   5   3    7.51    0.29 
  -1  -5  -3    6.87    0.28 
   1   4   3    0.97    0.06 
  -1  -4  -3    0.82    0.06 
   1   3   3    2.88    0.12 
  -1  -3  -3    2.89    0.12 
   1   2   3   21.42    0.78 
  -1  -2  -3   21.85    0.77 
  -1  -2  -3   21.68    0.81 
  -1  -1  -3   34.71    1.27 
  -1  -1  -3   34.40    1.21 
   1   0   3    0.02    0.01 
  -1   0  -3    0.02    0.01 
  -1   0  -3    0.02    0.01 
   1  -1   3   32.58    1.14 
  -1   1  -3   34.13    1.12 
  -1   1  -3   27.81    1.15 
   1  -2   3   21.16    0.79 
  -1   2  -3   21.73    0.77 
   1  -3   3    2.76    0.14 
   1  -4   3    0.88    0.07 
   1  -5   3    6.81    0.30 
   1  -6   3    5.07    0.24 
   1  -7   3    2.27    0.14 
   1  -8   3    1.22    0.12 
   1  -9   3    0.36    0.08 
   1 -10   3    0.04    0.05 
   1 -11   3    2.76    0.18 
   1 -12   3    0.17    0.08 
   1 -13   3    0.62    0.12 
   1 -14   3    0.14    0.09 
   1 -15   3   -0.07    0.08 
   1 -16   3    0.09    0.10 
   1 -17   3    0.10    0.11 
   1 -19   3    0.27    0.15 
   1 -20   3   -0.01    0.14 
   0 -20  -3    0.67    0.18 
   0 -19  -3   -0.09    0.11 
   0 -18  -3    0.26    0.13 
   0 -17  -3    0.11    0.10 
   0 -16  -3    3.07    0.23 
   0 -15  -3    0.01    0.08 
   0 -14  -3    0.35    0.10 
   0 -13  -3    0.02    0.05 
   0 -13  -3   -0.12    0.06 
   0 -12  -3    7.36    0.35 
   0 -12  -3    8.09    0.37 
   0 -11  -3   -0.02    0.05 
   0 -11  -3    0.01    0.04 
   0 -10  -3    8.15    0.36 
   0 -10  -3    8.08    0.35 
   0  -9  -3    0.01    0.03 
   0  -9  -3    0.06    0.04 
   0  -8  -3    5.57    0.25 
   0  -8  -3    5.58    0.24 
   0   7   3    0.00    0.02 
   0  -7  -3    0.02    0.03 
   0   6   3   16.23    0.60 
   0  -6  -3   15.89    0.60 
   0   5   3    0.02    0.02 
   0  -5  -3    0.05    0.03 
   0   4   3    0.62    0.04 
   0  -4  -3    0.77    0.06 
   0   3   3    0.07    0.01 
   0  -3  -3    0.07    0.02 
   0  -2  -3    5.04    0.20 
   0   1   3    0.01    0.01 
   0  -1  -3    0.00    0.01 
   0   0   3   -0.17    0.01 
   0   0  -3   -0.16    0.00 
   0   0  -3   -0.15    0.01 
   0  -1   3   -0.01    0.01 
   0   1  -3    0.01    0.01 
   0   1  -3   -0.01    0.01 
   0  -2   3    5.04    0.21 
   0   2  -3    4.72    0.20 
   0  -3   3    0.08    0.03 
   0   3  -3    0.01    0.02 
   0  -4   3    0.71    0.07 
   0  -5   3    0.03    0.03 
   0  -6   3   15.32    0.61 
   0  -7   3    0.01    0.04 
   0  -8   3    5.65    0.28 
   0  -9   3    0.05    0.05 
   0 -10   3    8.41    0.39 
   0 -11   3    0.14    0.07 
   0 -12   3    6.85    0.35 
   0 -13   3   -0.01    0.08 
   0 -14   3    0.37    0.11 
   0 -15   3   -0.08    0.08 
   0 -16   3    2.86    0.24 
   0 -17   3   -0.02    0.10 
   0 -19   3   -0.12    0.12 
   0 -20   3    0.69    0.18 
   1 -20  -3    0.00    0.13 
   1 -19  -3    0.20    0.14 
   1 -18  -3    0.13    0.11 
   1 -17  -3    0.10    0.10 
   1 -16  -3   -0.06    0.09 
   1 -15  -3    0.00    0.08 
   1 -14  -3   -0.04    0.07 
   1 -13  -3    0.60    0.11 
   1 -12  -3    0.11    0.07 
   1 -12  -3    0.16    0.06 
   1 -11  -3    2.60    0.15 
   1 -11  -3    2.43    0.17 
   1 -10  -3    0.03    0.04 
   1 -10  -3    0.07    0.05 
   1  -9  -3    0.33    0.07 
   1  -9  -3    0.39    0.05 
   1  -8  -3    0.89    0.09 
   1  -8  -3    0.78    0.07 
   1  -7  -3    2.17    0.13 
   1  -7  -3    2.43    0.12 
   1  -6  -3    5.05    0.20 
   1  -6  -3    4.70    0.22 
   1  -5  -3    8.11    0.33 
   1  -5  -3    8.34    0.31 
   1  -4  -3    0.85    0.06 
   1  -4  -3    0.78    0.04 
   1  -3  -3    2.40    0.11 
   1  -2  -3   21.99    0.79 
   1  -1  -3   36.03    1.28 
   1  -1  -3   34.64    1.25 
   1   0  -3    0.03    0.01 
   1   0  -3    0.01    0.01 
   1   1  -3   35.91    1.30 
   1   1  -3   35.53    1.26 
   1   2  -3   20.31    0.73 
   1   2  -3   20.44    0.76 
   1   3  -3    2.13    0.12 
   1   3  -3    2.18    0.11 
   1   4  -3    0.75    0.07 
   1   5  -3    8.35    0.35 
   1   6  -3    4.42    0.22 
   1   7  -3    2.16    0.14 
   1   8  -3    0.74    0.10 
   1   9  -3    0.42    0.08 
  -1 -10   3    0.02    0.05 
  -1 -11   3    2.62    0.18 
  -1 -12   3    0.10    0.08 
  -1 -13   3    0.94    0.14 
  -1 -14   3    0.15    0.09 
  -1 -15   3    0.02    0.09 
  -1 -16   3    0.08    0.11 
  -1 -17   3    0.13    0.12 
  -1 -18   3    0.19    0.13 
  -1 -19   3    0.05    0.13 
  -1 -20   3    0.05    0.15 
   2 -20  -3    0.25    0.15 
   2 -19  -3    0.38    0.15 
   2 -18  -3    0.25    0.13 
   2 -17  -3    0.18    0.11 
   2 -16  -3    2.26    0.21 
   2 -15  -3    0.35    0.11 
   2 -14  -3    0.86    0.14 
   2 -13  -3    0.70    0.12 
   2 -12  -3    6.34    0.31 
   2 -12  -3    5.76    0.28 
   2 -11  -3   -0.09    0.06 
   2 -11  -3   -0.04    0.04 
   2 -10  -3    0.69    0.09 
   2 -10  -3    0.70    0.07 
   2  -9  -3    0.09    0.04 
   2  -9  -3    0.06    0.05 
   2  -8  -3    7.84    0.32 
   2  -8  -3    8.34    0.35 
   2  -7  -3    0.09    0.04 
   2  -7  -3    0.03    0.03 
   2  -6  -3   24.25    0.89 
   2  -6  -3   24.59    0.90 
   2  -5  -3   10.24    0.40 
   2  -5  -3   10.17    0.38 
   2  -4  -3    3.22    0.15 
   2  -4  -3    3.44    0.13 
   2  -3  -3   42.90    1.54 
   2  -3  -3   43.99    1.56 
   2  -2  -3  102.13    3.60 
   2  -2  -3  103.85    3.69 
   2  -1  -3    0.87    0.05 
   2  -1  -3    0.78    0.05 
   2   0  -3    0.01    0.02 
   2   0  -3    0.01    0.01 
   2   1  -3    0.82    0.06 
   2   1  -3    0.77    0.05 
   2   2  -3  102.67    3.56 
   2   2  -3  101.36    3.67 
   2   3  -3   42.74    1.57 
   2   3  -3   42.68    1.51 
   2   4  -3    3.50    0.18 
   2   4  -3    3.46    0.16 
   2   5  -3    9.54    0.40 
   2   6  -3   24.51    0.94 
   2   7  -3    0.02    0.04 
   2   8  -3    8.28    0.38 
   2   9  -3   -0.01    0.04 
   2  10  -3    0.52    0.09 
   2  11  -3   -0.03    0.05 
   2  12  -3    6.13    0.34 
  -2 -13   3    0.53    0.12 
  -2 -14   3    0.83    0.15 
  -2 -15   3    0.64    0.14 
  -2 -16   3    2.13    0.22 
  -2 -17   3    0.24    0.13 
  -2 -18   3    0.26    0.14 
  -2 -20   3    0.64    0.18 
   3 -19  -3   -0.02    0.13 
   3 -18  -3   -0.02    0.10 
   3 -17  -3   -0.11    0.09 
   3 -16  -3    0.27    0.11 
   3 -15  -3    0.64    0.13 
   3 -14  -3   -0.05    0.07 
   3 -13  -3    0.74    0.12 
   3 -12  -3    0.45    0.10 
   3 -12  -3    0.67    0.09 
   3 -11  -3    0.54    0.08 
   3 -11  -3    0.42    0.10 
   3 -10  -3    0.80    0.08 
   3 -10  -3    0.62    0.10 
   3  -9  -3    1.75    0.14 
   3  -9  -3    1.79    0.11 
   3  -8  -3    3.20    0.15 
   3  -8  -3    2.95    0.17 
   3  -7  -3    6.95    0.31 
   3  -7  -3    7.06    0.28 
   3  -6  -3   27.94    1.02 
   3  -6  -3   27.87    1.02 
   3  -5  -3    2.59    0.14 
   3  -5  -3    2.67    0.12 
   3  -4  -3    0.12    0.04 
   3  -4  -3    0.09    0.02 
   3  -3  -3   64.80    2.35 
   3  -3  -3   68.64    2.40 
   3  -2  -3   22.81    0.83 
   3  -2  -3   23.31    0.84 
   3  -1  -3   69.91    2.49 
   3  -1  -3   72.03    2.55 
   3   0  -3    0.01    0.02 
   3   0  -3    0.01    0.02 
   3   1  -3   70.46    2.52 
   3   1  -3   69.29    2.45 
  -3  -2   3   21.33    0.80 
   3   2  -3   21.89    0.78 
   3   2  -3   22.04    0.82 
  -3  -3   3   67.51    2.41 
   3   3  -3   66.19    2.32 
   3   3  -3   64.10    2.39 
  -3  -4   3    0.23    0.03 
   3   4  -3    0.12    0.04 
   3   4  -3    0.07    0.03 
   3   5  -3    2.51    0.15 
   3   6  -3   27.67    1.06 
   3   7  -3    6.79    0.32 
   3   8  -3    3.27    0.20 
   3   9  -3    1.95    0.16 
   3  10  -3    0.69    0.11 
   3  11  -3    0.74    0.12 
   3  12  -3    0.81    0.14 
   3  13  -3    0.69    0.14 
   3  14  -3    0.09    0.09 
  -3 -15   3    0.70    0.15 
  -3 -16   3    0.30    0.13 
  -3 -17   3    0.01    0.11 
  -3 -18   3   -0.08    0.12 
   4 -19  -3    0.02    0.13 
   4 -18  -3    0.04    0.12 
   4 -17  -3    0.32    0.13 
   4 -16  -3    0.72    0.15 
   4 -15  -3    1.08    0.16 
   4 -14  -3    0.63    0.13 
   4 -13  -3    1.71    0.17 
   4 -12  -3    0.98    0.13 
   4 -12  -3    1.22    0.11 
   4 -11  -3    2.73    0.19 
   4 -11  -3    2.52    0.15 
   4 -10  -3    0.23    0.06 
   4 -10  -3    0.22    0.08 
   4  -9  -3   11.60    0.49 
   4  -9  -3   11.62    0.46 
   4  -8  -3   21.92    0.83 
   4  -8  -3   21.72    0.82 
   4  -7  -3   16.62    0.63 
   4  -7  -3   16.52    0.64 
   4  -6  -3    4.36    0.19 
   4  -6  -3    4.19    0.21 
   4  -5  -3    2.66    0.14 
   4  -5  -3    2.56    0.12 
   4  -4  -3   12.35    0.47 
   4  -4  -3   12.38    0.47 
   4  -3  -3   27.05    0.98 
   4  -3  -3   27.44    1.00 
   4  -2  -3   46.05    1.65 
   4  -2  -3   47.16    1.69 
   4  -1  -3    3.61    0.16 
   4  -1  -3    3.84    0.16 
   4   0  -3    0.03    0.03 
   4   0  -3    0.01    0.02 
   4   1  -3    3.85    0.16 
   4   1  -3    3.58    0.17 
  -4  -2   3   44.95    1.67 
   4   2  -3   45.85    1.61 
   4   2  -3   45.95    1.67 
  -4  -3   3   29.10    1.04 
   4   3  -3   27.85    1.06 
   4   3  -3   27.60    1.01 
  -4  -4   3   12.66    0.48 
   4   4  -3   12.03    0.51 
   4   4  -3   12.88    0.48 
  -4  -5   3    2.52    0.12 
   4   5  -3    2.68    0.13 
   4   5  -3    2.53    0.16 
  -4  -6   3    3.93    0.18 
   4   6  -3    4.06    0.22 
  -4  -7   3   16.62    0.65 
   4   7  -3   16.74    0.68 
   4   8  -3   22.21    0.89 
   4   9  -3   11.21    0.50 
   4  10  -3    0.12    0.06 
   4  11  -3    2.70    0.21 
   4  12  -3    1.35    0.17 
   4  13  -3    1.60    0.19 
   4  14  -3    0.62    0.14 
   4  15  -3    1.21    0.19 
  -4 -16   3    0.59    0.15 
  -4 -17   3    0.00    0.11 
  -4 -18   3    0.11    0.14 
   5 -19  -3   -0.01    0.13 
   5 -18  -3   -0.05    0.11 
   5 -17  -3    0.09    0.11 
   5 -16  -3   -0.01    0.09 
   5 -15  -3    0.09    0.10 
   5 -14  -3    0.15    0.10 
   5 -13  -3    0.08    0.09 
   5 -12  -3    0.02    0.08 
   5 -11  -3    1.75    0.16 
   5 -11  -3    1.15    0.11 
   5 -10  -3    0.06    0.05 
   5 -10  -3    0.07    0.06 
   5  -9  -3    0.55    0.07 
   5  -9  -3    0.44    0.09 
   5  -8  -3    7.81    0.33 
   5  -8  -3    8.06    0.35 
   5  -7  -3    0.96    0.08 
   5  -7  -3    1.09    0.10 
   5  -6  -3   13.14    0.53 
   5  -6  -3   13.45    0.51 
   5  -5  -3    0.41    0.06 
   5  -5  -3    0.37    0.05 
   5  -4  -3    0.24    0.05 
   5  -4  -3    0.25    0.04 
   5  -3  -3    0.39    0.05 
   5  -3  -3    0.29    0.05 
   5  -2  -3    1.20    0.08 
   5  -2  -3    1.12    0.08 
   5  -1  -3    9.36    0.37 
   5  -1  -3    9.30    0.36 
   5   0  -3   -0.01    0.02 
   5   0  -3    0.06    0.03 
   5   1  -3    9.36    0.35 
   5   1  -3    9.35    0.38 
   5   2  -3    0.59    0.05 
   5   2  -3    1.09    0.09 
  -5  -3   3    0.33    0.04 
   5   3  -3    0.28    0.06 
  -5  -4   3    0.34    0.04 
   5   4  -3    0.26    0.06 
  -5  -5   3    0.38    0.05 
   5   5  -3    0.40    0.07 
   5   5  -3    0.28    0.04 
  -5  -6   3   12.82    0.51 
   5   6  -3   13.01    0.54 
  -5  -7   3    1.12    0.09 
   5   7  -3    1.08    0.12 
  -5  -8   3    8.04    0.34 
   5   8  -3    7.74    0.38 
  -5  -9   3    0.48    0.07 
   5   9  -3    0.60    0.11 
  -5 -10   3    0.12    0.06 
   5  10  -3    0.11    0.07 
  -5 -11   3    1.33    0.12 
   5  11  -3    1.47    0.17 
  -5 -12   3    0.11    0.07 
   5  12  -3    0.09    0.09 
  -5 -13   3    0.12    0.08 
   5  13  -3   -0.06    0.08 
  -5 -14   3    0.03    0.07 
   5  14  -3    0.10    0.10 
   5  15  -3    0.27    0.13 
   5  16  -3   -0.02    0.11 
  -5 -17   3   -0.15    0.11 
  -5 -18   3    0.04    0.14 
   6 -19  -3   -0.10    0.12 
   6 -18  -3   -0.06    0.12 
   6 -17  -3    0.06    0.12 
   6 -16  -3    0.18    0.11 
   6 -15  -3    0.45    0.13 
   6 -14  -3    0.14    0.10 
   6 -13  -3    0.02    0.08 
   6 -12  -3    1.28    0.15 
   6 -11  -3    4.34    0.25 
   6 -11  -3    4.30    0.22 
   6 -10  -3    1.43    0.11 
   6 -10  -3    1.55    0.15 
   6  -9  -3    2.57    0.15 
   6  -9  -3    2.43    0.17 
   6  -8  -3    4.54    0.22 
   6  -8  -3    4.48    0.23 
   6  -7  -3    0.00    0.04 
   6  -7  -3   -0.01    0.04 
   6  -6  -3    0.35    0.06 
   6  -6  -3    0.42    0.06 
   6  -5  -3    4.38    0.20 
   6  -5  -3    4.24    0.21 
   6  -4  -3    4.96    0.22 
   6  -4  -3    4.82    0.22 
   6  -3  -3   15.08    0.56 
   6  -3  -3   14.64    0.57 
   6  -2  -3   32.87    1.19 
   6  -2  -3   31.48    1.16 
   6  -1  -3    2.90    0.15 
   6  -1  -3    2.84    0.14 
   6   0  -3    0.00    0.02 
   6   0  -3   -0.01    0.03 
   6   1  -3    2.88    0.16 
   6   2  -3   32.28    1.21 
  -6  -3   3   14.75    0.52 
   6   3  -3   11.33    0.49 
   6   3  -3   13.76    0.54 
  -6  -4   3    4.70    0.20 
   6   4  -3    4.54    0.23 
   6   4  -3    4.06    0.19 
  -6  -5   3    4.63    0.19 
   6   5  -3    3.19    0.18 
   6   5  -3    4.51    0.23 
  -6  -6   3    0.50    0.06 
   6   6  -3    0.47    0.08 
  -6  -7   3    0.02    0.04 
   6   7  -3    0.09    0.06 
  -6  -8   3    4.61    0.22 
   6   8  -3    4.36    0.26 
  -6  -9   3    2.71    0.16 
   6   9  -3    2.91    0.20 
  -6 -10   3    1.69    0.14 
   6  10  -3    1.96    0.19 
  -6 -11   3    4.69    0.24 
   6  11  -3    4.06    0.28 
  -6 -12   3    1.46    0.14 
   6  12  -3    1.49    0.18 
  -6 -13   3    0.09    0.07 
   6  13  -3    0.00    0.10 
   6  14  -3    0.25    0.12 
   6  15  -3    0.60    0.15 
   6  16  -3    0.44    0.16 
   6  17  -3    0.44    0.17 
   7 -19  -3   -0.17    0.12 
   7 -18  -3    0.05    0.13 
   7 -17  -3    0.17    0.13 
   7 -16  -3    0.08    0.11 
   7 -15  -3    0.04    0.10 
   7 -14  -3    0.25    0.11 
   7 -13  -3    0.30    0.11 
   7 -12  -3    1.61    0.17 
   7 -11  -3    0.23    0.09 
   7 -11  -3    0.10    0.07 
   7 -10  -3    3.81    0.23 
   7 -10  -3    3.80    0.21 
   7  -9  -3    1.52    0.14 
   7  -9  -3    1.77    0.13 
   7  -8  -3    0.07    0.05 
   7  -8  -3    0.05    0.06 
   7  -7  -3    0.19    0.06 
   7  -7  -3    0.13    0.05 
   7  -6  -3    1.94    0.13 
   7  -6  -3    1.82    0.12 
   7  -5  -3    0.27    0.06 
   7  -5  -3    0.23    0.06 
   7  -4  -3    0.11    0.04 
   7  -4  -3    0.06    0.04 
   7  -3  -3   -0.01    0.04 
   7  -3  -3    0.03    0.04 
   7  -2  -3    5.42    0.25 
   7  -2  -3    5.36    0.23 
   7  -1  -3    8.98    0.35 
   7  -1  -3    8.93    0.38 
   7   0  -3   -0.05    0.04 
   7   0  -3    0.05    0.03 
   7   1  -3    9.54    0.41 
   7   2  -3    4.99    0.26 
   7   2  -3    5.59    0.22 
  -7  -3   3    0.00    0.03 
   7   3  -3    0.05    0.03 
   7   3  -3   -0.04    0.04 
  -7  -4   3    0.09    0.04 
   7   4  -3    0.09    0.05 
   7   4  -3    0.09    0.03 
  -7  -5   3    0.36    0.05 
   7   5  -3    0.25    0.05 
   7   5  -3    0.23    0.07 
  -7  -6   3    1.76    0.11 
   7   6  -3    1.81    0.11 
   7   6  -3    1.80    0.14 
  -7  -7   3    0.22    0.05 
   7   7  -3    0.13    0.07 
  -7  -8   3    0.10    0.05 
   7   8  -3    0.01    0.06 
  -7  -9   3    1.78    0.13 
   7   9  -3    1.87    0.18 
  -7 -10   3    3.58    0.21 
   7  10  -3    4.00    0.26 
  -7 -11   3    0.12    0.07 
   7  11  -3    0.18    0.10 
  -7 -12   3    1.94    0.15 
   7  12  -3    1.93    0.21 
   7  13  -3    0.24    0.11 
   7  14  -3    0.52    0.15 
   7  15  -3    0.15    0.13 
   7  16  -3   -0.06    0.11 
   7  17  -3    0.44    0.17 
   7  18  -3    0.09    0.15 
   8 -18  -3    0.13    0.14 
   8 -17  -3    0.04    0.13 
   8 -16  -3    0.44    0.15 
   8 -15  -3   -0.03    0.09 
   8 -14  -3    0.11    0.10 
   8 -13  -3    0.41    0.11 
   8 -12  -3    2.08    0.19 
   8 -11  -3    0.70    0.13 
   8 -11  -3    1.05    0.11 
   8 -10  -3    1.70    0.14 
   8 -10  -3    1.85    0.17 
   8  -9  -3    1.06    0.13 
   8  -9  -3    1.12    0.11 
   8  -8  -3    1.65    0.14 
   8  -8  -3    1.63    0.12 
   8  -7  -3    0.46    0.08 
   8  -7  -3    0.52    0.08 
   8  -6  -3    1.89    0.13 
   8  -6  -3    2.05    0.14 
   8  -5  -3   14.05    0.57 
   8  -5  -3   14.61    0.57 
   8  -4  -3    0.40    0.07 
   8  -4  -3    0.49    0.07 
   8  -3  -3    1.24    0.11 
   8  -3  -3    1.20    0.10 
   8  -2  -3    0.07    0.04 
   8  -2  -3    0.07    0.04 
   8  -1  -3   16.22    0.65 
   8  -1  -3   16.57    0.61 
   8   0  -3    0.03    0.05 
   8   0  -3    0.04    0.02 
   8   1  -3   13.87    0.55 
   8   1  -3   16.39    0.61 
   8   2  -3    0.08    0.03 
   8   2  -3    0.10    0.05 
  -8  -3   3    1.21    0.09 
   8   3  -3    1.32    0.13 
   8   3  -3    1.06    0.08 
  -8  -4   3    0.42    0.06 
   8   4  -3    0.36    0.08 
   8   4  -3    0.46    0.05 
  -8  -5   3   14.29    0.56 
   8   5  -3   13.33    0.59 
   8   5  -3   14.32    0.54 
  -8  -6   3    2.17    0.13 
   8   6  -3    2.18    0.16 
   8   6  -3    2.24    0.13 
  -8  -7   3    0.56    0.07 
   8   7  -3    0.30    0.09 
  -8  -8   3    1.66    0.12 
   8   8  -3    1.90    0.18 
  -8  -9   3    1.01    0.10 
   8   9  -3    1.14    0.15 
  -8 -10   3    1.76    0.14 
   8  10  -3    1.53    0.18 
  -8 -11   3    1.03    0.12 
   8  11  -3    0.69    0.14 
   8  12  -3    2.08    0.22 
   8  13  -3    0.66    0.15 
   8  14  -3   -0.09    0.09 
   8  15  -3    0.08    0.12 
   8  16  -3    0.73    0.19 
   8  17  -3    0.35    0.16 
   8  18  -3    0.08    0.15 
   9 -18  -3   -0.07    0.12 
   9 -17  -3    0.13    0.11 
   9 -16  -3    0.10    0.11 
   9 -15  -3    0.59    0.14 
   9 -14  -3    0.13    0.10 
   9 -13  -3   -0.06    0.09 
   9 -12  -3    0.12    0.09 
   9 -11  -3    2.74    0.21 
   9 -10  -3    2.87    0.18 
   9 -10  -3    2.75    0.20 
   9  -9  -3    1.01    0.11 
   9  -9  -3    1.10    0.13 
   9  -8  -3    0.38    0.09 
   9  -8  -3    0.47    0.09 
   9  -7  -3   -0.06    0.05 
   9  -7  -3   -0.04    0.05 
   9  -6  -3    0.19    0.06 
   9  -6  -3    0.21    0.07 
   9  -5  -3    0.90    0.09 
   9  -5  -3    0.71    0.09 
   9  -4  -3    0.02    0.05 
   9  -4  -3    0.06    0.05 
   9  -3  -3    6.42    0.31 
   9  -3  -3    6.88    0.29 
   9  -2  -3    0.25    0.07 
   9  -2  -3    0.40    0.06 
   9  -1  -3    0.36    0.06 
   9  -1  -3    0.41    0.08 
   9   0  -3    0.01    0.02 
   9   0  -3   -0.06    0.04 
   9   1  -3    0.48    0.05 
   9   1  -3    0.37    0.08 
   9   2  -3    0.46    0.09 
   9   2  -3    0.45    0.05 
   9   3  -3    6.68    0.33 
   9   3  -3    6.72    0.27 
  -9  -4   3    0.07    0.05 
   9   4  -3    0.02    0.03 
   9   4  -3    0.06    0.06 
  -9  -5   3    0.93    0.09 
   9   5  -3    0.92    0.08 
   9   5  -3    0.61    0.11 
  -9  -6   3    0.20    0.05 
   9   6  -3    0.08    0.04 
   9   6  -3    0.08    0.07 
  -9  -7   3   -0.03    0.05 
   9   7  -3   -0.04    0.06 
  -9  -8   3    0.52    0.08 
   9   8  -3    0.44    0.11 
  -9  -9   3    1.25    0.12 
   9   9  -3    1.33    0.17 
  -9 -10   3    3.11    0.19 
   9  10  -3    2.24    0.22 
   9  11  -3    2.19    0.22 
   9  12  -3   -0.04    0.09 
   9  13  -3    0.12    0.11 
   9  14  -3    0.09    0.11 
   9  15  -3    0.75    0.17 
   9  16  -3    0.27    0.14 
   9  17  -3    0.00    0.15 
   9  18  -3    0.10    0.16 
  10 -17  -3    0.10    0.10 
  10 -16  -3    0.22    0.11 
  10 -15  -3   -0.04    0.09 
  10 -14  -3    0.06    0.10 
  10 -13  -3    0.93    0.15 
  10 -12  -3    0.58    0.12 
  10 -11  -3    0.12    0.09 
  10 -10  -3    0.65    0.12 
  10 -10  -3    0.61    0.10 
  10  -9  -3    0.39    0.09 
  10  -9  -3    0.56    0.11 
  10  -8  -3   -0.03    0.06 
  10  -8  -3   -0.10    0.07 
  10  -7  -3    0.08    0.06 
  10  -7  -3    0.10    0.07 
  10  -6  -3    2.39    0.16 
  10  -6  -3    2.68    0.17 
  10  -5  -3    3.66    0.21 
  10  -5  -3    3.58    0.20 
  10  -4  -3    0.24    0.07 
  10  -4  -3    0.18    0.07 
  10  -3  -3    6.39    0.30 
  10  -3  -3    6.02    0.27 
  10  -2  -3    2.09    0.13 
  10  -2  -3    2.06    0.15 
  10  -1  -3    0.61    0.07 
  10  -1  -3    0.76    0.10 
  10   0  -3    0.03    0.04 
  10   0  -3    0.03    0.06 
  10   1  -3    0.79    0.11 
  10   1  -3    0.92    0.07 
  10   2  -3    1.90    0.11 
  10   2  -3    2.18    0.16 
  10   3  -3    6.05    0.26 
  10   3  -3    6.69    0.33 
 -10  -4   3    0.30    0.07 
  10   4  -3    0.23    0.08 
  10   4  -3    0.29    0.05 
 -10  -5   3    3.59    0.19 
  10   5  -3    3.40    0.17 
  10   5  -3    3.51    0.23 
 -10  -6   3    2.56    0.16 
  10   6  -3    2.72    0.20 
  10   6  -3    2.66    0.14 
 -10  -7   3    0.00    0.05 
  10   7  -3   -0.04    0.06 
 -10  -8   3   -0.04    0.06 
  10   8  -3    0.01    0.08 
 -10  -9   3    0.34    0.08 
  10   9  -3    0.70    0.14 
  10  10  -3    0.82    0.16 
  10  11  -3    0.29    0.11 
  10  12  -3    0.32    0.13 
  10  13  -3    1.31    0.20 
  10  14  -3    0.16    0.12 
  10  15  -3   -0.12    0.11 
  10  16  -3    0.00    0.13 
  10  17  -3   -0.18    0.15 
  11 -17  -3    0.14    0.11 
  11 -16  -3    0.05    0.11 
  11 -15  -3    0.16    0.12 
  11 -14  -3    0.05    0.10 
  11 -13  -3   -0.02    0.09 
  11 -12  -3    0.07    0.09 
  11 -11  -3    0.38    0.12 
  11 -10  -3   -0.04    0.08 
  11 -10  -3   -0.06    0.07 
  11  -9  -3    0.78    0.11 
  11  -9  -3    0.64    0.12 
  11  -8  -3    0.67    0.11 
  11  -8  -3    0.70    0.12 
  11  -7  -3    0.75    0.11 
  11  -7  -3    0.92    0.11 
  11  -6  -3    0.33    0.09 
  11  -6  -3    0.22    0.07 
  11  -5  -3    0.05    0.06 
  11  -5  -3    0.06    0.06 
  11  -4  -3    0.13    0.06 
  11  -4  -3    0.10    0.07 
  11  -3  -3    1.21    0.13 
  11  -3  -3    1.14    0.10 
  11  -2  -3    0.69    0.10 
  11  -2  -3    0.60    0.08 
  11  -1  -3    2.37    0.17 
  11   0  -3    0.03    0.04 
  11   0  -3    0.04    0.07 
  11   1  -3    2.39    0.13 
  11   1  -3    2.43    0.18 
  11   2  -3    0.53    0.10 
  11   2  -3    0.52    0.06 
  11   3  -3    1.17    0.15 
  11   3  -3    1.32    0.09 
  11   4  -3    0.06    0.04 
  11   4  -3    0.00    0.07 
 -11  -5   3    0.09    0.06 
  11   5  -3    0.03    0.08 
 -11  -6   3    0.33    0.08 
  11   6  -3    0.23    0.10 
 -11  -7   3    1.06    0.12 
  11   7  -3    0.91    0.15 
 -11  -8   3    0.76    0.10 
  11   8  -3    0.56    0.12 
  11   9  -3    0.87    0.15 
  11  10  -3    0.12    0.09 
  11  11  -3    0.42    0.13 
  11  12  -3   -0.01    0.10 
  11  13  -3   -0.03    0.10 
  11  14  -3    0.08    0.12 
  11  15  -3    0.11    0.14 
  11  16  -3    0.12    0.13 
  11  17  -3    0.28    0.16 
  12 -16  -3   -0.16    0.10 
  12 -15  -3   -0.01    0.10 
  12 -14  -3   -0.04    0.10 
  12 -13  -3    0.06    0.10 
  12 -12  -3    0.10    0.10 
  12 -11  -3    0.08    0.10 
  12 -10  -3    0.19    0.10 
  12 -10  -3    0.17    0.09 
  12  -9  -3    2.96    0.20 
  12  -9  -3    2.71    0.20 
  12  -8  -3    0.43    0.10 
  12  -8  -3    0.42    0.10 
  12  -7  -3    0.80    0.12 
  12  -7  -3    0.67    0.12 
  12  -6  -3    0.44    0.10 
  12  -6  -3    0.47    0.10 
  12  -5  -3    0.16    0.09 
  12  -5  -3    0.03    0.07 
  12  -4  -3    0.20    0.09 
  12  -4  -3    0.22    0.07 
  12  -3  -3    2.68    0.16 
  12  -3  -3    2.78    0.19 
  12  -2  -3    2.25    0.14 
  12  -2  -3    1.91    0.18 
  12  -1  -3    7.35    0.37 
  12   0  -3   -0.06    0.07 
  12   0  -3   -0.01    0.05 
  12   1  -3    6.59    0.28 
  12   1  -3    6.89    0.35 
  12   2  -3    1.93    0.12 
  12   2  -3    1.78    0.18 
  12   3  -3    2.19    0.20 
  12   4  -3    0.05    0.09 
  12   5  -3    0.15    0.09 
 -12  -6   3    0.48    0.09 
  12   6  -3    0.36    0.11 
 -12  -7   3    0.66    0.10 
  12   7  -3    0.77    0.15 
  12   8  -3    0.54    0.14 
  12   9  -3    3.14    0.25 
  12  10  -3    0.13    0.10 
  12  11  -3    0.25    0.13 
  12  12  -3    0.03    0.10 
  12  13  -3   -0.12    0.11 
  12  14  -3   -0.09    0.11 
  12  15  -3    0.26    0.14 
  12  16  -3   -0.04    0.13 
  13 -15  -3    0.04    0.11 
  13 -14  -3    0.11    0.11 
  13 -13  -3    0.06    0.11 
  13 -12  -3    0.09    0.11 
  13 -11  -3   -0.11    0.09 
  13 -10  -3   -0.01    0.09 
  13  -9  -3    0.00    0.08 
  13  -9  -3   -0.03    0.09 
  13  -8  -3   -0.04    0.08 
  13  -8  -3    0.03    0.09 
  13  -7  -3    0.00    0.08 
  13  -7  -3    0.01    0.08 
  13  -6  -3    0.03    0.08 
  13  -6  -3    0.00    0.08 
  13  -5  -3    0.81    0.13 
  13  -5  -3    0.85    0.12 
  13  -4  -3   -0.05    0.06 
  13  -4  -3   -0.01    0.08 
  13  -3  -3    1.37    0.12 
  13  -3  -3    1.37    0.16 
  13  -2  -3    0.04    0.04 
  13  -2  -3    0.11    0.09 
  13  -1  -3    2.01    0.19 
  13  -1  -3    2.31    0.14 
  13   0  -3    0.02    0.06 
  13   0  -3    0.11    0.09 
  13   1  -3    2.01    0.20 
  13   2  -3    0.08    0.09 
  13   3  -3    1.30    0.17 
  13   4  -3   -0.01    0.08 
  13   5  -3    0.50    0.12 
 -13  -6   3    0.02    0.06 
  13   6  -3   -0.01    0.08 
 -13  -7   3    0.06    0.07 
  13   7  -3   -0.06    0.08 
  13   8  -3    0.05    0.09 
  13   9  -3   -0.03    0.09 
  13  10  -3    0.16    0.12 
  13  11  -3   -0.10    0.11 
  13  12  -3    0.15    0.13 
  13  13  -3    0.17    0.16 
  13  14  -3    0.00    0.12 
  13  15  -3    0.24    0.15 
  14 -15  -3    0.29    0.13 
  14 -14  -3    0.06    0.12 
  14 -13  -3   -0.07    0.11 
  14 -12  -3    0.11    0.11 
  14 -11  -3    0.06    0.10 
  14 -10  -3    0.08    0.10 
  14  -9  -3    0.46    0.12 
  14  -9  -3    0.56    0.12 
  14  -8  -3   -0.04    0.08 
  14  -8  -3    0.00    0.09 
  14  -7  -3    0.30    0.11 
  14  -7  -3    0.28    0.10 
  14  -6  -3    0.12    0.09 
  14  -6  -3    0.08    0.08 
  14  -5  -3    1.28    0.14 
  14  -5  -3    1.23    0.16 
  14  -4  -3    0.27    0.09 
  14  -4  -3    0.19    0.10 
  14  -3  -3    1.84    0.14 
  14  -3  -3    1.76    0.18 
  14  -2  -3    0.06    0.05 
  14  -2  -3    0.11    0.10 
  14  -1  -3    1.68    0.18 
  14   0  -3    0.02    0.09 
  14   1  -3    1.25    0.17 
  14   2  -3    0.12    0.10 
  14   3  -3    2.14    0.22 
  14   4  -3    0.03    0.09 
  14   5  -3    0.99    0.16 
  14   6  -3    0.07    0.10 
  14   7  -3    0.15    0.11 
  14   8  -3   -0.11    0.09 
  14   9  -3    0.33    0.13 
  14  10  -3    0.01    0.11 
  14  11  -3   -0.09    0.11 
  14  12  -3    0.00    0.12 
  14  13  -3   -0.02    0.12 
  14  14  -3   -0.13    0.10 
  15 -14  -3    0.06    0.12 
  15 -13  -3    0.08    0.13 
  15 -12  -3   -0.02    0.12 
  15 -11  -3    0.13    0.12 
  15 -10  -3    0.03    0.11 
  15  -9  -3    0.62    0.14 
  15  -9  -3    0.36    0.12 
  15  -8  -3    0.03    0.10 
  15  -8  -3    0.08    0.10 
  15  -7  -3   -0.05    0.08 
  15  -7  -3   -0.06    0.08 
  15  -6  -3   -0.03    0.08 
  15  -6  -3    0.12    0.09 
  15  -5  -3    0.47    0.11 
  15  -5  -3    0.24    0.11 
  15  -4  -3    0.24    0.11 
  15  -4  -3    0.18    0.09 
  15  -3  -3    0.82    0.14 
  15  -2  -3    0.76    0.14 
  15  -1  -3    0.14    0.10 
  15   0  -3   -0.12    0.08 
  15   1  -3   -0.03    0.09 
  15   2  -3    0.67    0.15 
  15   3  -3    0.60    0.14 
  15   4  -3    0.02    0.10 
  15   5  -3    0.47    0.13 
  15   6  -3    0.03    0.10 
  15   7  -3    0.02    0.10 
  15   8  -3   -0.05    0.10 
  15   9  -3    0.49    0.15 
  15  10  -3    0.11    0.12 
  15  11  -3    0.03    0.13 
  15  12  -3    0.16    0.14 
  15  13  -3    0.24    0.15 
  15  14  -3   -0.14    0.12 
  16 -13  -3    0.28    0.14 
  16 -12  -3    0.07    0.13 
  16 -11  -3    0.05    0.13 
  16 -10  -3   -0.14    0.11 
  16  -9  -3    0.56    0.15 
  16  -8  -3    0.20    0.11 
  16  -8  -3    0.06    0.11 
  16  -7  -3    0.19    0.11 
  16  -7  -3    0.00    0.10 
  16  -6  -3    0.26    0.12 
  16  -6  -3    0.18    0.11 
  16  -5  -3    0.86    0.16 
  16  -4  -3    0.05    0.09 
  16  -3  -3    0.22    0.11 
  16  -2  -3    0.08    0.10 
  16  -1  -3    0.38    0.12 
  16   0  -3    0.07    0.10 
  16   1  -3    0.25    0.11 
  16   2  -3    0.00    0.09 
  16   3  -3    0.13    0.11 
  16   4  -3   -0.05    0.09 
  16   5  -3    0.62    0.16 
  16   6  -3    0.10    0.12 
  16   7  -3    0.00    0.10 
  16   8  -3    0.13    0.12 
  16   9  -3    0.44    0.15 
  16  10  -3    0.06    0.12 
  16  11  -3    0.21    0.14 
  16  12  -3    0.00    0.13 
  16  13  -3    0.26    0.15 
  17 -11  -3    0.05    0.14 
  17 -10  -3    0.17    0.14 
  17  -9  -3    0.10    0.13 
  17  -8  -3    0.09    0.13 
  17  -7  -3   -0.08    0.10 
  17  -6  -3    0.00    0.10 
  17  -5  -3    0.01    0.11 
  17  -4  -3    0.06    0.12 
  17  -3  -3    0.13    0.12 
  17  -2  -3    0.79    0.16 
  17  -1  -3   -0.02    0.10 
  17   0  -3   -0.07    0.10 
  17   1  -3    0.03    0.10 
  17   2  -3    0.84    0.17 
  17   3  -3    0.00    0.11 
  17   4  -3    0.18    0.12 
  17   5  -3   -0.11    0.11 
  17   6  -3    0.03    0.12 
  17   7  -3    0.08    0.12 
  17   8  -3    0.14    0.13 
  17   9  -3    0.27    0.15 
  17  10  -3    0.01    0.12 
  17  11  -3    0.11    0.12 
  18  -8  -3    0.04    0.14 
  18  -7  -3    0.15    0.13 
  18  -6  -3   -0.07    0.13 
  18  -5  -3    0.41    0.15 
  18  -4  -3    0.03    0.12 
  18  -3  -3   -0.13    0.10 
  18  -2  -3    0.14    0.12 
  18  -1  -3    0.25    0.13 
  18   0  -3    0.17    0.12 
  18   1  -3    0.38    0.14 
  18   2  -3   -0.12    0.11 
  18   3  -3    0.14    0.13 
  18   4  -3    0.08    0.14 
  18   5  -3    0.41    0.16 
  18   6  -3    0.10    0.15 
  18   7  -3    0.21    0.13 
  18   8  -3   -0.07    0.11 
  18   9  -3    0.19    0.14 
  18  10  -3    0.10    0.12 
  19  -7  -3    0.13    0.15 
  19  -6  -3    0.02    0.14 
  19  -5  -3    0.02    0.14 
  19  -4  -3    0.25    0.15 
  19  -3  -3    0.14    0.13 
  19  -2  -3    0.11    0.13 
  19  -1  -3   -0.13    0.12 
  19   0  -3    0.01    0.13 
  19   1  -3   -0.07    0.12 
  19   2  -3    0.11    0.13 
  19   3  -3   -0.02    0.13 
  19   4  -3    0.16    0.15 
  19   5  -3    0.03    0.14 
  19   6  -3    0.05    0.15 
  19   7  -3    0.12    0.15 
  19   8  -3    0.35    0.15 
  20  -6  -3    0.10    0.17 
  20  -5  -3   -0.01    0.15 
  20  -4  -3    0.01    0.15 
  20  -3  -3    0.01    0.15 
  20  -2  -3    0.10    0.14 
  20  -1  -3    0.15    0.15 
  20   0  -3   -0.09    0.14 
  20   1  -3   -0.05    0.14 
  20   2  -3   -0.21    0.14 
  20   3  -3   -0.08    0.14 
  20   4  -3    0.07    0.14 
  20   5  -3    0.01    0.16 
  20   6  -3    0.00    0.15 
  20   5   4    0.23    0.10 
  20   4   4    0.43    0.13 
  20   3   4    0.20    0.11 
  20   2   4    0.09    0.10 
  20   1   4   -0.05    0.14 
  20   0   4    0.00    0.14 
  20  -1   4    0.16    0.15 
  20  -2   4   -0.05    0.14 
  20  -3   4    0.19    0.15 
  20  -4   4   -0.04    0.15 
  20  -5   4    0.07    0.15 
  19   8   4    0.23    0.13 
 -19  -8  -4    0.14    0.16 
  19   7   4    0.39    0.14 
  19   6   4    0.25    0.11 
  19   5   4   -0.03    0.10 
  19   4   4   -0.04    0.11 
  19   3   4   -0.02    0.09 
  19   2   4    0.03    0.11 
  19   1   4   -0.05    0.13 
  19   0   4    0.20    0.14 
  19  -1   4    0.04    0.14 
  19  -2   4    0.19    0.15 
  19  -3   4    0.07    0.14 
  19  -4   4   -0.09    0.13 
  19  -5   4   -0.05    0.14 
  19  -6   4    0.03    0.15 
  19  -7   4    0.15    0.16 
  19  -8   4   -0.01    0.15 
  18  10   4   -0.03    0.12 
 -18 -10  -4   -0.23    0.14 
  18   9   4    0.17    0.12 
 -18  -9  -4   -0.01    0.14 
  18   8   4    0.08    0.13 
 -18  -8  -4    0.13    0.15 
  18   7   4    0.33    0.13 
 -18  -7  -4    0.08    0.13 
  18   6   4    0.13    0.12 
 -18  -6  -4   -0.08    0.12 
  18   5   4    0.19    0.12 
  18   4   4    0.12    0.11 
  18   3   4    0.04    0.10 
  18   2   4    0.20    0.11 
  18   1   4   -0.02    0.10 
  18   0   4    0.12    0.14 
  18  -1   4    0.03    0.12 
  18  -2   4   -0.09    0.11 
  18  -3   4    0.04    0.14 
  18  -4   4    0.20    0.14 
  18  -5   4    0.26    0.14 
  18  -6   4   -0.05    0.13 
  18  -7   4    0.25    0.15 
  18  -8   4    0.07    0.14 
  18  -9   4   -0.02    0.14 
  18 -10   4   -0.11    0.15 
  17  11   4    0.05    0.13 
 -17 -11  -4    0.12    0.16 
  17  10   4    0.15    0.13 
 -17 -10  -4   -0.06    0.13 
  17   9   4    0.19    0.12 
 -17  -9  -4    0.14    0.14 
  17   8   4    0.49    0.15 
 -17  -8  -4    0.28    0.15 
  17   7   4    0.14    0.12 
 -17  -7  -4    0.20    0.13 
  17   6   4    0.04    0.10 
 -17  -6  -4    0.08    0.12 
  17   5   4   -0.02    0.09 
 -17  -5  -4    0.10    0.12 
  17   4   4    0.02    0.10 
  17   3   4    0.09    0.10 
  17   2   4    0.04    0.10 
  17   1   4    0.05    0.10 
  17   0   4    0.06    0.11 
  17  -1   4    0.02    0.11 
  17  -2   4    0.00    0.10 
  17  -3   4    0.01    0.12 
  17  -4   4    0.10    0.12 
  17  -5   4    0.14    0.12 
  17  -6   4   -0.16    0.10 
  17  -7   4   -0.07    0.12 
  17  -8   4    0.23    0.15 
  17  -9   4    0.14    0.15 
  17 -10   4    0.44    0.17 
  17 -11   4    0.08    0.17 
  16  12   4    0.16    0.14 
 -16 -12  -4    0.20    0.15 
  16  11   4    0.07    0.12 
 -16 -11  -4   -0.18    0.12 
  16  10   4    0.31    0.14 
 -16 -10  -4    0.08    0.13 
  16   9   4    0.00    0.11 
 -16  -9  -4    0.38    0.14 
  16   8   4    0.21    0.12 
 -16  -8  -4    0.06    0.10 
  16   7   4    0.40    0.13 
 -16  -7  -4    0.37    0.13 
  16   6   4   -0.08    0.09 
 -16  -6  -4    0.08    0.10 
  16   5   4    0.07    0.10 
 -16  -5  -4    0.13    0.10 
  16   4   4    0.28    0.12 
 -16  -4  -4    0.32    0.12 
  16   3   4    0.04    0.08 
  16   2   4   -0.09    0.08 
  16   1   4    0.26    0.11 
  16   0   4   -0.07    0.09 
  16  -1   4    0.12    0.10 
  16  -2   4   -0.09    0.09 
  16  -3   4    0.17    0.11 
  16  -4   4    0.49    0.14 
  16  -5   4   -0.09    0.09 
  16  -6   4    0.11    0.12 
  16  -7   4    0.42    0.13 
  16  -8   4    0.04    0.11 
  16  -9   4    0.12    0.13 
  16 -10   4    0.19    0.15 
  16 -11   4    0.05    0.13 
  16 -12   4    0.10    0.15 
  16 -12   4    0.05    0.13 
  15  13   4   -0.01    0.14 
 -15 -13  -4    0.08    0.14 
  15  12   4   -0.05    0.12 
 -15 -12  -4   -0.08    0.12 
  15  11   4    0.01    0.12 
 -15 -11  -4    0.04    0.11 
  15  10   4    0.03    0.11 
 -15 -10  -4    0.24    0.12 
  15   9   4    0.20    0.12 
 -15  -9  -4    0.07    0.11 
  15   8   4    0.50    0.13 
 -15  -8  -4    0.49    0.13 
  15   7   4    0.09    0.10 
 -15  -7  -4   -0.07    0.09 
  15   6   4    0.14    0.10 
 -15  -6  -4    0.43    0.12 
  15   5   4    0.27    0.11 
 -15  -5  -4    0.18    0.10 
  15   4   4    1.24    0.17 
 -15  -4  -4    1.22    0.17 
  15   3   4    0.04    0.09 
 -15  -3  -4    0.06    0.09 
  15   2   4    0.69    0.14 
  15   1   4    0.19    0.10 
  15   0   4    0.43    0.12 
  15  -1   4    0.11    0.10 
  15  -2   4    0.88    0.15 
  15  -3   4   -0.07    0.08 
  15  -4   4    1.63    0.20 
  15  -5   4    0.04    0.09 
  15  -6   4    0.23    0.11 
  15  -7   4   -0.11    0.09 
  15  -8   4    0.31    0.13 
  15  -8   4    0.37    0.13 
  15  -9   4    0.12    0.12 
  15  -9   4    0.06    0.12 
  15 -10   4   -0.12    0.11 
  15 -10   4   -0.01    0.10 
  15 -11   4    0.14    0.13 
  15 -11   4    0.14    0.13 
  15 -12   4    0.10    0.15 
  15 -12   4   -0.06    0.11 
  15 -13   4    0.00    0.13 
  15 -13   4    0.07    0.14 
  14  14   4   -0.20    0.13 
 -14 -14  -4    0.18    0.15 
  14  13   4    0.00    0.13 
 -14 -13  -4    0.14    0.14 
  14  12   4    0.00    0.12 
 -14 -12  -4    0.16    0.12 
  14  11   4   -0.05    0.11 
 -14 -11  -4    0.06    0.11 
  14  10   4    0.08    0.11 
 -14 -10  -4    0.18    0.11 
  14   9   4    0.47    0.13 
 -14  -9  -4    0.38    0.12 
  14   8   4    0.04    0.10 
 -14  -8  -4    0.05    0.09 
  14   7   4    0.39    0.12 
 -14  -7  -4    0.56    0.13 
  14   6   4    0.54    0.12 
 -14  -6  -4    0.47    0.12 
  14   5   4    0.17    0.10 
 -14  -5  -4    0.34    0.12 
  14   4   4    0.13    0.09 
 -14  -4  -4    0.31    0.11 
  14   3   4    3.07    0.23 
 -14  -3  -4    3.18    0.24 
  14   2   4    0.23    0.10 
  14   1   4    2.70    0.21 
  14   0   4    0.18    0.09 
  14  -1   4    2.78    0.22 
  14  -2   4    0.22    0.10 
  14  -3   4    2.90    0.23 
  14  -4   4    0.28    0.11 
  14  -5   4    0.16    0.10 
  14  -6   4    0.58    0.12 
  14  -6   4    0.66    0.13 
  14  -7   4    0.36    0.11 
  14  -7   4    0.51    0.13 
  14  -8   4    0.00    0.10 
  14  -8   4    0.04    0.09 
  14  -9   4    0.50    0.12 
  14  -9   4    0.43    0.13 
  14 -10   4    0.29    0.11 
  14 -10   4    0.16    0.11 
  14 -11   4    0.16    0.11 
  14 -11   4    0.05    0.11 
  14 -12   4    0.26    0.13 
  14 -12   4    0.01    0.12 
  14 -13   4    0.18    0.13 
  14 -13   4    0.00    0.12 
  14 -14   4    0.06    0.13 
  14 -14   4    0.11    0.15 
 -13 -15  -4    0.06    0.14 
  13  14   4    0.31    0.16 
 -13 -14  -4    0.06    0.13 
  13  13   4    0.00    0.12 
 -13 -13  -4    0.09    0.12 
  13  12   4    0.04    0.12 
 -13 -12  -4   -0.01    0.10 
  13  11   4    0.08    0.11 
 -13 -11  -4    0.02    0.10 
  13  10   4    0.03    0.10 
 -13 -10  -4    0.18    0.11 
  13   9   4    0.18    0.10 
 -13  -9  -4    0.15    0.10 
  13   8   4    0.23    0.10 
 -13  -8  -4    0.00    0.08 
  13   7   4    0.18    0.09 
 -13  -7  -4    0.14    0.09 
  13   6   4    0.43    0.12 
 -13  -6  -4    0.50    0.12 
  13   5   4   -0.01    0.08 
 -13  -5  -4    0.05    0.09 
  13   4   4    3.00    0.22 
 -13  -4  -4    3.20    0.23 
  13   3   4    0.04    0.09 
 -13  -3  -4    0.04    0.09 
  13   2   4    2.75    0.20 
 -13  -2  -4    1.87    0.19 
  13   1   4    0.33    0.10 
  13   0   4    0.76    0.13 
  13  -1   4    0.59    0.12 
  13  -2   4    2.22    0.20 
  13  -3   4    0.08    0.09 
  13  -4   4    2.76    0.22 
  13  -4   4    2.85    0.17 
  13  -5   4    0.07    0.09 
  13  -5   4    0.02    0.05 
  13  -6   4    0.54    0.12 
  13  -6   4    0.47    0.11 
  13  -7   4    0.05    0.09 
  13  -7   4    0.19    0.10 
  13  -8   4   -0.08    0.09 
  13  -8   4   -0.05    0.08 
  13  -9   4    0.11    0.10 
  13  -9   4    0.21    0.10 
  13 -10   4    0.05    0.10 
  13 -10   4    0.09    0.10 
  13 -11   4   -0.04    0.10 
  13 -11   4   -0.01    0.10 
  13 -12   4    0.02    0.11 
  13 -12   4   -0.01    0.10 
  13 -13   4    0.08    0.12 
  13 -13   4    0.02    0.11 
  13 -14   4    0.39    0.15 
  13 -14   4    0.11    0.13 
  13 -15   4    0.10    0.12 
  13 -15   4    0.00    0.15 
 -12 -16  -4   -0.05    0.14 
 -12 -15  -4   -0.07    0.12 
  12  14   4    0.14    0.14 
 -12 -14  -4   -0.09    0.11 
  12  13   4    0.27    0.12 
 -12 -13  -4   -0.08    0.10 
  12  12   4    0.35    0.13 
 -12 -12  -4    0.09    0.11 
  12  11   4    0.07    0.11 
 -12 -11  -4    0.25    0.11 
  12  10   4    0.14    0.10 
 -12 -10  -4    0.14    0.09 
  12   9   4    1.42    0.18 
 -12  -9  -4    1.66    0.18 
  12   8   4    0.03    0.09 
 -12  -8  -4    0.17    0.10 
  12   7   4    0.56    0.12 
 -12  -7  -4    0.41    0.11 
  12   6   4    0.60    0.12 
 -12  -6  -4    0.44    0.11 
  12   5   4    5.04    0.30 
 -12  -5  -4    5.44    0.31 
  12   4   4    6.12    0.33 
 -12  -4  -4    5.89    0.33 
  12   3   4    4.39    0.26 
 -12  -3  -4    4.16    0.26 
  12   2   4    0.63    0.12 
 -12  -2  -4    0.58    0.11 
  12   1   4    5.63    0.30 
 -12  -1  -4    5.42    0.31 
  12   0   4    2.17    0.17 
  12  -1   4    5.45    0.30 
  12  -2   4    0.47    0.07 
  12  -2   4    0.51    0.11 
  12  -3   4    4.46    0.27 
  12  -3   4    4.40    0.22 
  12  -4   4    5.82    0.32 
  12  -5   4    5.29    0.30 
  12  -5   4    5.11    0.26 
  12  -6   4    0.54    0.12 
  12  -6   4    0.65    0.10 
  12  -7   4    0.54    0.11 
  12  -7   4    0.58    0.12 
  12  -8   4    0.37    0.11 
  12  -8   4    0.26    0.11 
  12  -9   4    1.81    0.18 
  12  -9   4    1.42    0.17 
  12 -10   4    0.20    0.10 
  12 -10   4    0.08    0.09 
  12 -11   4    0.07    0.09 
  12 -11   4    0.03    0.09 
  12 -12   4    0.19    0.11 
  12 -12   4    0.18    0.12 
  12 -13   4    0.01    0.10 
  12 -13   4   -0.05    0.11 
  12 -14   4   -0.03    0.12 
  12 -14   4    0.03    0.11 
  12 -15   4   -0.20    0.12 
  12 -15   4    0.10    0.11 
  12 -16   4    0.10    0.12 
 -11 -16  -4    0.00    0.13 
 -11 -15  -4    0.56    0.16 
  11  14   4    0.14    0.13 
 -11 -14  -4    0.23    0.12 
  11  13   4    0.13    0.11 
 -11 -13  -4    0.05    0.10 
  11  12   4    0.26    0.11 
 -11 -12  -4    0.22    0.11 
  11  11   4    0.06    0.10 
 -11 -11  -4    0.02    0.09 
  11  10   4    1.00    0.16 
 -11 -10  -4    1.15    0.16 
  11   9   4    0.13    0.09 
 -11  -9  -4    0.12    0.09 
  11   8   4   -0.11    0.07 
 -11  -8  -4    0.03    0.07 
  11   7   4    1.81    0.18 
 -11  -7  -4    1.54    0.16 
  11   6   4   -0.02    0.07 
 -11  -6  -4    0.14    0.08 
  11   5   4    1.63    0.16 
 -11  -5  -4    1.63    0.16 
  11   4   4    0.18    0.08 
 -11  -4  -4    0.01    0.07 
  11   3   4    1.31    0.14 
 -11  -3  -4    1.12    0.13 
  11   2   4    0.06    0.07 
 -11  -2  -4    0.03    0.07 
  11   1   4    0.10    0.07 
 -11  -1  -4    0.04    0.07 
  11   0   4    2.95    0.20 
  11  -1   4    0.18    0.07 
  11  -1   4    0.05    0.04 
  11  -2   4    0.04    0.04 
  11  -2   4    0.05    0.06 
  11  -3   4    1.48    0.15 
  11  -3   4    1.40    0.10 
  11  -4   4    0.00    0.04 
  11  -4   4    0.08    0.07 
  11  -5   4    1.52    0.16 
  11  -5   4    1.64    0.13 
  11  -6   4    0.10    0.06 
  11  -6   4    0.02    0.08 
  11  -7   4    1.29    0.14 
  11  -7   4    1.40    0.16 
  11  -8   4   -0.01    0.08 
  11  -8   4   -0.08    0.08 
  11  -9   4    0.01    0.09 
  11  -9   4    0.17    0.10 
  11 -10   4    1.26    0.16 
  11 -10   4    1.40    0.17 
  11 -11   4    0.05    0.10 
  11 -11   4    0.08    0.09 
  11 -12   4    0.18    0.11 
  11 -12   4    0.04    0.10 
  11 -13   4    0.10    0.11 
  11 -13   4    0.05    0.11 
  11 -14   4    0.02    0.11 
  11 -14   4    0.26    0.13 
  11 -15   4    0.54    0.15 
  11 -15   4    0.65    0.16 
  11 -16   4    0.00    0.11 
  11 -17   4    0.25    0.13 
 -10 -17  -4    0.09    0.15 
 -10 -16  -4    0.14    0.14 
 -10 -15  -4    0.02    0.12 
  10  14   4    0.08    0.12 
 -10 -14  -4   -0.06    0.10 
  10  13   4    0.02    0.11 
 -10 -13  -4    0.06    0.10 
  10  12   4    0.05    0.09 
 -10 -12  -4    0.01    0.09 
  10  11   4    1.34    0.17 
 -10 -11  -4    1.42    0.17 
  10  10   4    0.38    0.11 
 -10 -10  -4    0.29    0.11 
  10   9   4    0.12    0.09 
 -10  -9  -4    0.00    0.08 
  10   8   4    0.79    0.13 
 -10  -8  -4    0.65    0.12 
  10   7   4    0.38    0.10 
 -10  -7  -4    0.13    0.08 
  10   6   4   -0.03    0.06 
 -10  -6  -4    0.00    0.06 
  10   5   4    2.17    0.17 
 -10  -5  -4    2.08    0.17 
  10   4   4   11.00    0.50 
 -10  -4  -4   11.69    0.51 
  10   3   4    0.02    0.05 
 -10  -3  -4    0.00    0.06 
  10   2   4    1.53    0.14 
 -10  -2  -4    1.84    0.15 
  10   1   4    0.04    0.05 
 -10  -1  -4    0.05    0.06 
  10   0   4    2.35    0.11 
  10   0   4    1.85    0.15 
 -10   0  -4    1.99    0.16 
  10  -1   4    0.11    0.04 
  10  -1   4    0.07    0.06 
  10  -2   4    1.67    0.11 
  10  -2   4    1.68    0.15 
  10  -3   4    0.00    0.06 
  10  -3   4   -0.11    0.04 
  10  -4   4   11.50    0.46 
  10  -4   4   10.84    0.49 
  10  -5   4    2.75    0.19 
  10  -5   4    2.75    0.17 
  10  -6   4    0.01    0.06 
  10  -7   4    0.21    0.09 
  10  -8   4    0.93    0.14 
  10  -8   4    0.79    0.12 
  10  -9   4    0.01    0.08 
  10  -9   4    0.05    0.08 
  10 -10   4    0.37    0.11 
  10 -10   4    0.35    0.11 
  10 -11   4    1.25    0.16 
  10 -11   4    1.22    0.16 
  10 -12   4    0.09    0.10 
  10 -12   4    0.03    0.09 
  10 -13   4   -0.05    0.09 
  10 -13   4    0.05    0.10 
  10 -14   4    0.17    0.11 
  10 -14   4    0.02    0.10 
  10 -15   4    0.27    0.13 
  10 -15   4    0.09    0.12 
  10 -16   4   -0.03    0.11 
  10 -16   4    0.01    0.12 
  10 -17   4    0.16    0.12 
  -9 -18  -4   -0.04    0.15 
  -9 -17  -4    0.06    0.14 
  -9 -16  -4    0.08    0.13 
  -9 -15  -4    0.51    0.14 
   9  14   4    1.10    0.18 
  -9 -14  -4    1.25    0.18 
   9  13   4    0.31    0.12 
  -9 -13  -4    0.27    0.11 
   9  12   4    0.09    0.09 
  -9 -12  -4    0.10    0.10 
   9  11   4    0.10    0.10 
  -9 -11  -4    0.22    0.10 
   9  10   4    2.06    0.19 
  -9 -10  -4    1.76    0.18 
   9   9   4    0.20    0.09 
  -9  -9  -4    0.35    0.11 
   9   8   4    0.05    0.07 
  -9  -8  -4    0.08    0.08 
   9   7   4    2.29    0.17 
  -9  -7  -4    1.93    0.17 
   9   6   4    1.84    0.15 
  -9  -6  -4    2.19    0.16 
   9   5   4    0.67    0.10 
  -9  -5  -4    0.70    0.10 
   9   4   4    1.20    0.12 
  -9  -4  -4    1.21    0.12 
   9   3   4    0.21    0.06 
  -9  -3  -4    0.28    0.07 
   9   2   4    2.29    0.15 
  -9  -2  -4    2.13    0.15 
   9   1   4    4.16    0.16 
   9   1   4    3.50    0.21 
  -9  -1  -4    4.03    0.22 
   9   0   4    4.64    0.19 
   9   0   4    4.25    0.24 
  -9   0  -4    5.06    0.25 
   9  -1   4    4.14    0.18 
   9  -1   4    4.17    0.22 
   9  -2   4    2.57    0.17 
   9  -3   4    0.27    0.07 
   9  -4   4    1.40    0.13 
   9  -5   4    0.71    0.11 
   9  -6   4    1.93    0.15 
   9  -7   4    2.38    0.18 
   9  -8   4    0.30    0.09 
   9  -9   4    0.22    0.09 
   9 -10   4    1.73    0.17 
   9 -11   4    0.10    0.09 
   9 -12   4    0.09    0.10 
   9 -12   4   -0.04    0.09 
   9 -13   4    0.16    0.10 
   9 -13   4    0.28    0.12 
   9 -14   4    1.37    0.18 
   9 -14   4    1.40    0.19 
   9 -15   4    0.61    0.14 
   9 -15   4    0.31    0.12 
   9 -16   4    0.02    0.13 
   9 -16   4    0.03    0.10 
   9 -17   4    0.13    0.12 
   9 -18   4    0.01    0.10 
  -8 -18  -4   -0.04    0.14 
  -8 -17  -4    0.27    0.14 
  -8 -16  -4   -0.14    0.10 
  -8 -15  -4    0.20    0.12 
   8  14   4    0.13    0.12 
  -8 -14  -4    0.13    0.11 
   8  13   4   -0.01    0.10 
  -8 -13  -4   -0.07    0.08 
   8  12   4    1.03    0.15 
  -8 -12  -4    1.27    0.16 
   8  11   4    1.26    0.16 
  -8 -11  -4    1.38    0.16 
   8  10   4    1.34    0.15 
  -8 -10  -4    1.70    0.17 
   8   9   4    4.33    0.25 
  -8  -9  -4    4.39    0.26 
   8   8   4    2.18    0.16 
  -8  -8  -4    1.94    0.17 
   8   7   4    0.13    0.06 
  -8  -7  -4    0.08    0.06 
   8   6   4    0.18    0.06 
  -8  -6  -4    0.24    0.07 
   8   5   4    1.95    0.14 
  -8  -5  -4    2.40    0.15 
   8   4   4    0.14    0.05 
  -8  -4  -4    0.23    0.07 
   8   3   4    0.07    0.05 
  -8  -3  -4    0.05    0.05 
   8   2   4    1.75    0.12 
  -8  -2  -4    1.84    0.13 
   8   1   4   12.20    0.43 
   8   1   4   11.86    0.49 
  -8  -1  -4   11.52    0.50 
   8   0   4    0.36    0.07 
  -8   0  -4    0.25    0.07 
   8  -1   4   11.41    0.48 
   8  -2   4    1.78    0.13 
   8  -3   4    0.03    0.05 
   8  -4   4    0.13    0.06 
   8  -5   4    2.21    0.15 
   8  -6   4    0.20    0.07 
   8  -7   4    0.09    0.07 
   8  -8   4    1.96    0.15 
   8  -9   4    4.84    0.27 
   8 -10   4    1.43    0.15 
   8 -11   4    1.27    0.15 
   8 -12   4    1.13    0.16 
   8 -13   4    0.07    0.10 
   8 -14   4    0.25    0.11 
   8 -14   4    0.24    0.12 
   8 -15   4    0.37    0.13 
   8 -15   4    0.45    0.13 
   8 -16   4    0.04    0.11 
   8 -16   4   -0.08    0.12 
   8 -17   4    0.29    0.12 
   8 -18   4    0.07    0.12 
  -7 -18  -4   -0.09    0.14 
  -7 -17  -4    0.06    0.14 
  -7 -16  -4   -0.17    0.10 
  -7 -15  -4   -0.10    0.10 
  -7 -14  -4    1.06    0.16 
   7  13   4    0.33    0.11 
  -7 -13  -4    0.12    0.10 
   7  12   4    0.57    0.12 
  -7 -12  -4    0.33    0.11 
   7  11   4    5.13    0.28 
  -7 -11  -4    4.83    0.29 
   7  10   4    0.06    0.06 
  -7 -10  -4    0.01    0.08 
   7   9   4    2.01    0.15 
  -7  -9  -4    1.82    0.11 
  -7  -9  -4    2.32    0.17 
   7   8   4    3.85    0.22 
  -7  -8  -4    4.31    0.18 
  -7  -8  -4    4.02    0.24 
   7   7   4    4.36    0.23 
  -7  -7  -4    4.32    0.24 
  -7  -7  -4    4.33    0.18 
   7   6   4    0.50    0.08 
  -7  -6  -4    0.41    0.08 
  -7  -6  -4    0.39    0.04 
   7   5   4    0.06    0.04 
  -7  -5  -4    0.05    0.05 
   7   4   4    7.35    0.32 
  -7  -4  -4    6.78    0.32 
   7   3   4    1.43    0.11 
  -7  -3  -4    1.43    0.12 
   7   2   4    1.80    0.12 
  -7  -2  -4    1.85    0.13 
   7   1   4    3.93    0.21 
  -7  -1  -4    4.38    0.22 
   7   0   4   21.39    0.82 
  -7   0  -4   21.25    0.84 
   7  -1   4    4.05    0.21 
  -7   1  -4    4.29    0.22 
   7  -2   4    1.79    0.12 
   7  -3   4    1.28    0.11 
   7  -4   4    7.27    0.33 
   7  -5   4    0.00    0.04 
   7  -6   4    0.40    0.08 
   7  -7   4    4.47    0.24 
   7  -8   4    4.69    0.26 
   7  -9   4    1.84    0.16 
   7 -10   4    0.03    0.08 
   7 -11   4    4.98    0.28 
   7 -12   4    0.19    0.10 
   7 -13   4    0.42    0.11 
   7 -14   4    1.31    0.17 
   7 -15   4   -0.06    0.10 
   7 -16   4    0.02    0.10 
   7 -16   4    0.00    0.11 
   7 -17   4    0.17    0.13 
   7 -17   4    0.06    0.11 
   7 -18   4   -0.20    0.12 
  -6 -19  -4    0.30    0.17 
  -6 -18  -4    0.55    0.18 
  -6 -17  -4    0.02    0.14 
  -6 -16  -4   -0.03    0.11 
  -6 -15  -4   -0.09    0.10 
  -6 -14  -4    0.44    0.12 
   6  13   4    0.69    0.13 
  -6 -13  -4    0.36    0.12 
   6  12   4    0.05    0.06 
  -6 -12  -4    0.06    0.08 
   6  11   4    1.60    0.15 
  -6 -11  -4    1.48    0.16 
  -6 -11  -4    1.46    0.11 
   6  10   4    9.50    0.43 
  -6 -10  -4    9.78    0.45 
  -6 -10  -4    9.14    0.38 
   6   9   4    5.45    0.28 
  -6  -9  -4    5.42    0.29 
  -6  -9  -4    5.41    0.23 
   6   8   4    0.67    0.09 
  -6  -8  -4    0.55    0.06 
  -6  -8  -4    0.65    0.10 
   6   7   4    0.87    0.10 
  -6  -7  -4    0.76    0.10 
  -6  -7  -4    0.76    0.06 
   6   6   4    5.45    0.26 
  -6  -6  -4    5.21    0.26 
  -6  -6  -4    5.10    0.20 
   6   5   4   20.19    0.79 
  -6  -5  -4   19.85    0.80 
  -6  -5  -4   20.80    0.72 
   6   4   4    5.24    0.25 
  -6  -4  -4    5.39    0.26 
   6   3   4   16.44    0.64 
  -6  -3  -4   16.06    0.65 
   6   2   4    0.49    0.06 
  -6  -2  -4    0.50    0.07 
   6   1   4    3.15    0.16 
  -6  -1  -4    3.07    0.17 
   6   0   4   18.05    0.71 
  -6   0  -4   19.12    0.73 
   6  -1   4    3.01    0.16 
  -6   1  -4    2.78    0.16 
   6  -2   4    0.46    0.07 
   6  -3   4   16.03    0.63 
   6  -4   4    5.76    0.27 
   6  -5   4   21.23    0.83 
   6  -6   4    4.79    0.24 
   6  -7   4    0.80    0.10 
   6  -8   4    0.53    0.09 
   6  -9   4    5.69    0.29 
   6 -10   4   10.07    0.46 
   6 -11   4    1.26    0.15 
   6 -12   4    0.09    0.08 
   6 -13   4    0.30    0.10 
   6 -14   4    0.39    0.12 
   6 -15   4   -0.01    0.09 
   6 -16   4   -0.11    0.10 
   6 -17   4   -0.05    0.12 
   6 -17   4   -0.04    0.11 
   6 -18   4    0.53    0.17 
   6 -19   4    0.31    0.16 
  -5 -19  -4    0.15    0.16 
  -5 -18  -4   -0.01    0.13 
  -5 -17  -4    0.55    0.16 
  -5 -16  -4    0.11    0.11 
  -5 -15  -4   -0.04    0.10 
  -5 -14  -4    0.42    0.13 
   5  13   4    0.02    0.04 
  -5 -13  -4    0.03    0.05 
  -5 -13  -4    0.05    0.09 
   5  12   4    0.00    0.05 
  -5 -12  -4    0.15    0.09 
  -5 -12  -4    0.14    0.06 
   5  11   4    5.61    0.30 
  -5 -11  -4    6.49    0.33 
  -5 -11  -4    6.37    0.28 
   5  10   4    0.82    0.10 
  -5 -10  -4    0.86    0.13 
  -5 -10  -4    0.73    0.08 
   5   9   4    2.09    0.15 
  -5  -9  -4    2.26    0.16 
  -5  -9  -4    2.20    0.13 
   5   8   4    0.98    0.10 
  -5  -8  -4    0.77    0.10 
  -5  -8  -4    0.70    0.07 
   5   7   4    0.15    0.05 
  -5  -7  -4    0.09    0.05 
  -5  -7  -4    0.09    0.03 
   5   6   4    0.61    0.07 
  -5  -6  -4    0.53    0.05 
  -5  -6  -4    0.45    0.08 
   5   5   4    8.93    0.38 
  -5  -5  -4    8.98    0.39 
  -5  -5  -4    9.39    0.34 
   5   4   4    3.32    0.17 
  -5  -4  -4    3.30    0.13 
  -5  -4  -4    3.18    0.17 
   5   3   4    0.21    0.04 
  -5  -3  -4    0.22    0.05 
  -5  -3  -4    0.13    0.02 
   5   2   4    0.01    0.03 
  -5  -2  -4    0.03    0.03 
  -5  -2  -4    0.03    0.01 
   5   1   4   39.78    1.47 
  -5  -1  -4   40.08    1.50 
   5   0   4    3.16    0.15 
  -5   0  -4    2.89    0.16 
   5  -1   4   40.36    1.46 
  -5   1  -4   38.87    1.48 
   5  -2   4    0.01    0.03 
   5  -3   4    0.17    0.05 
   5  -4   4    3.46    0.18 
   5  -5   4    8.84    0.38 
   5  -6   4    0.42    0.07 
   5  -7   4    0.12    0.05 
   5  -8   4    0.83    0.10 
   5  -9   4    2.33    0.16 
   5 -10   4    0.76    0.11 
   5 -11   4    6.45    0.33 
   5 -12   4    0.15    0.09 
   5 -13   4    0.01    0.08 
   5 -14   4    0.44    0.12 
   5 -15   4   -0.08    0.08 
   5 -16   4    0.14    0.12 
   5 -17   4    0.55    0.15 
   5 -18   4   -0.06    0.12 
   5 -19   4    0.09    0.14 
  -4 -19  -4    0.05    0.14 
  -4 -18  -4    1.14    0.20 
  -4 -17  -4    0.03    0.11 
  -4 -16  -4   -0.11    0.09 
  -4 -15  -4    0.64    0.15 
  -4 -15  -4    0.40    0.10 
  -4 -14  -4    0.72    0.14 
  -4 -14  -4    0.83    0.11 
   4  13   4    1.23    0.13 
  -4 -13  -4    0.85    0.11 
  -4 -13  -4    1.07    0.15 
   4  12   4    0.14    0.06 
  -4 -12  -4    0.17    0.07 
  -4 -12  -4    0.18    0.09 
   4  11   4    0.12    0.05 
  -4 -11  -4    0.30    0.07 
  -4 -11  -4    0.29    0.10 
  -4 -10  -4    9.09    0.37 
  -4 -10  -4    8.24    0.41 
   4   9   4    0.00    0.03 
  -4  -9  -4    0.10    0.06 
  -4  -9  -4    0.18    0.05 
   4   8   4    0.00    0.02 
  -4  -8  -4    0.05    0.05 
  -4  -8  -4   -0.03    0.04 
  -4  -7  -4    2.38    0.12 
  -4  -7  -4    2.17    0.15 
  -4  -6  -4   27.84    1.11 
  -4  -6  -4   29.63    1.03 
   4   5   4    3.34    0.17 
  -4  -5  -4    3.56    0.15 
  -4  -5  -4    3.66    0.19 
   4   4   4   14.13    0.54 
  -4  -4  -4   13.20    0.56 
  -4  -4  -4   14.75    0.51 
   4   3   4    0.58    0.06 
  -4  -3  -4    0.44    0.04 
  -4  -3  -4    0.50    0.06 
   4   2   4    1.03    0.07 
  -4  -2  -4    1.01    0.05 
  -4  -2  -4    1.03    0.08 
   4   1   4    6.18    0.26 
  -4  -1  -4    6.11    0.27 
  -4  -1  -4    6.34    0.23 
   4   0   4    9.44    0.39 
  -4   0  -4   10.28    0.40 
  -4   0  -4   10.11    0.37 
   4  -1   4    5.91    0.25 
  -4   1  -4    6.08    0.26 
   4  -2   4    0.93    0.07 
   4  -3   4    0.53    0.06 
   4  -4   4   14.20    0.56 
   4  -5   4    3.73    0.19 
   4  -6   4   28.42    1.08 
   4  -7   4    2.19    0.15 
   4  -8   4    0.05    0.05 
   4  -9   4    0.14    0.06 
   4 -10   4    9.62    0.43 
   4 -11   4    0.31    0.09 
   4 -12   4    0.13    0.09 
   4 -13   4    1.16    0.15 
   4 -14   4    0.84    0.14 
   4 -15   4    0.40    0.12 
   4 -16   4   -0.03    0.10 
   4 -17   4   -0.10    0.10 
   4 -18   4    0.82    0.18 
   4 -19   4    0.19    0.15 
  -3 -17  -4    0.74    0.13 
  -3 -16  -4    0.08    0.08 
  -3 -15  -4    0.60    0.12 
  -3 -14  -4    0.44    0.10 
  -3 -13  -4   -0.12    0.06 
   3  12   4    1.89    0.14 
  -3 -12  -4    1.81    0.14 
   3  11   4    2.46    0.16 
  -3 -11  -4    2.59    0.16 
   3  10   4    0.16    0.05 
  -3 -10  -4    0.05    0.05 
   3   9   4    0.69    0.08 
  -3  -9  -4    0.59    0.07 
   3   8   4    0.20    0.05 
  -3  -8  -4    0.17    0.05 
   3   7   4    2.05    0.12 
  -3  -7  -4    2.12    0.12 
  -3  -7  -4    2.01    0.14 
   3   6   4    0.21    0.04 
  -3  -6  -4    0.12    0.05 
  -3  -6  -4    0.18    0.04 
   3   5   4    1.05    0.08 
  -3  -5  -4    1.55    0.11 
  -3  -5  -4    1.52    0.08 
  -3  -4  -4   14.41    0.51 
  -3  -4  -4   13.43    0.56 
  -3  -3  -4   20.41    0.72 
  -3  -3  -4   19.79    0.77 
   3   2   4   22.02    0.80 
  -3  -2  -4   20.86    0.82 
  -3  -2  -4   22.18    0.77 
   3   1   4    2.71    0.12 
  -3  -1  -4    2.56    0.11 
  -3  -1  -4    2.54    0.13 
   3   0   4   25.77    0.99 
  -3   0  -4   27.12    0.95 
  -3   0  -4   27.65    1.01 
   3  -1   4    2.38    0.12 
  -3   1  -4    2.40    0.11 
  -3   1  -4    2.52    0.12 
   3  -2   4   20.97    0.79 
   3  -3   4   19.91    0.76 
   3  -4   4   13.54    0.53 
   3  -5   4    1.62    0.11 
   3  -6   4    0.21    0.06 
   3  -7   4    2.13    0.14 
   3  -8   4    0.20    0.06 
   3  -9   4    0.63    0.09 
   3 -10   4    0.08    0.06 
   3 -11   4    2.55    0.18 
   3 -12   4    1.82    0.17 
   3 -13   4    0.04    0.08 
   3 -14   4    0.74    0.14 
   3 -15   4    0.68    0.14 
   3 -16   4    0.02    0.10 
   3 -17   4    0.93    0.17 
   3 -18   4   -0.02    0.12 
   3 -19   4    0.33    0.16 
  -2 -18  -4    0.69    0.15 
  -2 -17  -4    0.46    0.12 
  -2 -16  -4    0.02    0.09 
  -2 -15  -4    0.46    0.11 
  -2 -14  -4    0.38    0.10 
  -2 -13  -4    0.64    0.11 
   2  12   4   -0.01    0.05 
  -2 -12  -4    0.02    0.05 
   2  11   4    0.06    0.05 
  -2 -11  -4    0.08    0.05 
   2  10   4    0.18    0.05 
  -2 -10  -4    0.12    0.05 
   2   9   4    2.86    0.16 
  -2  -9  -4    2.92    0.16 
   2   8   4    1.80    0.11 
  -2  -8  -4    1.91    0.12 
   2   7   4    3.67    0.17 
  -2  -7  -4    3.32    0.17 
   2   6   4    2.65    0.13 
  -2  -6  -4    2.54    0.13 
   2   5   4   34.10    1.25 
  -2  -5  -4   34.14    1.22 
   2   4   4    1.57    0.08 
  -2  -4  -4    1.74    0.11 
  -2  -4  -4    1.57    0.08 
   2   3   4    8.89    0.33 
  -2  -3  -4    8.23    0.32 
  -2  -3  -4    8.42    0.35 
  -2  -2  -4    3.66    0.17 
  -2  -2  -4    3.98    0.15 
   2   1   4   12.56    0.47 
  -2  -1  -4   11.99    0.48 
  -2  -1  -4   12.78    0.45 
   2   0   4    0.39    0.04 
  -2   0  -4    0.43    0.04 
  -2   0  -4    0.45    0.04 
   2  -1   4   12.34    0.47 
  -2   1  -4   12.04    0.46 
  -2   1  -4   12.60    0.48 
   2  -2   4    3.98    0.18 
  -2   2  -4    3.86    0.17 
   2  -3   4    7.82    0.32 
   2  -4   4    1.48    0.10 
   2  -5   4   31.96    1.19 
   2  -6   4    2.42    0.15 
   2  -7   4    3.47    0.19 
   2  -8   4    1.93    0.14 
   2  -9   4    2.98    0.18 
   2 -10   4    0.14    0.06 
   2 -11   4    0.04    0.06 
   2 -12   4   -0.01    0.07 
   2 -13   4    0.66    0.12 
   2 -14   4    0.60    0.13 
   2 -15   4    0.23    0.11 
   2 -16   4    0.03    0.10 
   2 -17   4    0.57    0.16 
   2 -18   4    0.70    0.17 
   2 -19   4   -0.08    0.13 
  -1 -20  -4   -0.05    0.13 
  -1 -19  -4    0.18    0.13 
  -1 -18  -4    0.05    0.10 
  -1 -17  -4    1.17    0.16 
  -1 -16  -4    0.06    0.08 
  -1 -15  -4    0.06    0.08 
  -1 -14  -4    0.06    0.08 
  -1 -13  -4    2.46    0.18 
  -1 -12  -4    0.68    0.11 
  -1 -12  -4    0.82    0.10 
  -1 -11  -4    0.14    0.05 
  -1 -11  -4    0.08    0.06 
   1  10   4    0.45    0.06 
  -1 -10  -4    0.42    0.07 
   1   9   4    0.20    0.04 
  -1  -9  -4    0.12    0.05 
   1   8   4    0.07    0.03 
  -1  -8  -4    0.10    0.04 
   1   7   4   12.88    0.49 
  -1  -7  -4   12.33    0.49 
   1   6   4    1.39    0.08 
  -1  -6  -4    1.34    0.09 
   1   5   4    6.96    0.27 
  -1  -5  -4    6.96    0.28 
   1   4   4    3.53    0.14 
  -1  -4  -4    3.34    0.15 
   1   3   4   58.20    2.08 
  -1  -3  -4   57.42    2.03 
   1   2   4   13.72    0.50 
  -1  -2  -4   13.66    0.49 
  -1  -2  -4   12.98    0.52 
  -1  -1  -4   26.17    0.91 
  -1  -1  -4   24.81    0.95 
   1   0   4   15.68    0.59 
  -1   0  -4   15.78    0.57 
  -1   0  -4   16.19    0.60 
   1  -1   4   25.36    0.92 
  -1   1  -4   24.97    0.90 
   1  -2   4   13.52    0.52 
  -1   2  -4   13.56    0.51 
   1  -3   4   56.54    2.02 
  -1   3  -4   54.80    1.97 
   1  -4   4    3.36    0.17 
   1  -5   4    6.91    0.30 
   1  -6   4    1.31    0.11 
   1  -7   4   12.77    0.53 
   1  -8   4   -0.04    0.05 
   1  -9   4    0.18    0.06 
   1 -10   4    0.36    0.08 
   1 -11   4    0.12    0.06 
   1 -12   4    0.60    0.12 
   1 -13   4    2.30    0.20 
   1 -14   4   -0.01    0.08 
   1 -15   4    0.04    0.09 
   1 -16   4   -0.08    0.10 
   1 -17   4    0.95    0.18 
   1 -18   4   -0.01    0.12 
   1 -20   4    0.03    0.15 
   0 -20  -4    0.35    0.16 
   0 -19  -4    0.00    0.12 
   0 -18  -4    1.12    0.17 
   0 -17  -4   -0.02    0.10 
   0 -16  -4    0.04    0.08 
   0 -15  -4   -0.05    0.07 
   0 -14  -4   -0.01    0.08 
   0 -13  -4    0.03    0.07 
   0 -12  -4    3.11    0.17 
   0 -12  -4    3.16    0.20 
   0 -11  -4   -0.03    0.04 
   0 -11  -4   -0.02    0.04 
   0 -10  -4    0.03    0.05 
   0 -10  -4    0.03    0.03 
   0  -9  -4   -0.01    0.04 
   0  -9  -4    0.08    0.03 
   0  -8  -4   48.67    1.75 
   0  -8  -4   47.66    1.73 
   0  -7  -4    0.06    0.04 
   0   6   4  171.16    6.03 
   0  -6  -4  166.37    5.89 
   0   5   4    0.09    0.02 
   0  -5  -4    0.11    0.03 
   0   4   4   26.35    0.93 
   0  -4  -4   24.95    0.92 
   0  -3  -4   -0.02    0.02 
   0   2   4   28.60    1.03 
   0  -2  -4   28.25    1.01 
   0   1   4    0.02    0.02 
   0  -1  -4    0.08    0.03 
   0  -1  -4    0.03    0.02 
   0   0  -4 1000.00   34.68 
   0  -1   4   -0.02    0.02 
   0   1  -4    0.02    0.02 
   0   1  -4   -0.01    0.02 
   0  -2   4   28.73    1.06 
   0   2  -4   28.69    1.03 
   0  -3   4    0.00    0.03 
   0   3  -4   -0.03    0.02 
   0  -4   4   25.40    0.96 
   0  -5   4    0.03    0.04 
   0  -6   4  171.16    6.15 
   0  -7   4    0.02    0.04 
   0  -8   4   48.61    1.82 
   0  -9   4   -0.04    0.04 
   0 -10   4    0.05    0.05 
   0 -11   4   -0.06    0.05 
   0 -12   4    3.48    0.24 
   0 -13   4    0.11    0.09 
   0 -14   4    0.20    0.10 
   0 -15   4    0.03    0.10 
   0 -16   4    0.10    0.11 
   0 -17   4    0.01    0.11 
   0 -18   4    1.25    0.20 
   0 -20   4    0.38    0.16 
   1 -20  -4   -0.08    0.14 
   1 -19  -4    0.24    0.14 
   1 -18  -4   -0.06    0.10 
   1 -17  -4    0.91    0.15 
   1 -16  -4    0.01    0.09 
   1 -15  -4   -0.01    0.08 
   1 -14  -4    0.19    0.09 
   1 -13  -4    2.57    0.19 
   1 -12  -4    0.60    0.10 
   1 -11  -4    0.13    0.07 
   1 -11  -4    0.22    0.05 
   1 -10  -4    0.29    0.07 
   1 -10  -4    0.35    0.05 
   1  -9  -4    0.15    0.06 
   1  -9  -4    0.17    0.04 
   1  -8  -4    0.09    0.05 
   1  -8  -4    0.01    0.03 
   1  -7  -4   12.18    0.47 
   1  -7  -4   11.54    0.45 
   1  -6  -4    1.13    0.06 
   1  -6  -4    1.34    0.09 
   1  -5  -4    5.84    0.25 
   1  -5  -4    5.89    0.22 
   1  -4  -4    2.96    0.14 
   1  -3  -4   59.07    2.08 
   1  -2  -4   13.16    0.49 
   1  -1  -4   24.98    0.89 
   1  -1  -4   25.06    0.91 
   1   0  -4   15.45    0.57 
   1   0  -4   15.12    0.56 
   1   1  -4   24.86    0.92 
   1   1  -4   25.41    0.92 
   1   1  -4   24.74    0.89 
   1   2  -4   12.31    0.46 
   1   2  -4   12.18    0.48 
   1   3  -4   57.81    2.05 
   1   3  -4   58.43    2.11 
   1   4  -4    2.73    0.14 
   1   4  -4    2.77    0.15 
   1   5  -4    5.44    0.25 
   1   6  -4    1.33    0.11 
   1   7  -4   11.55    0.49 
   1   8  -4    0.02    0.04 
   1   9  -4    0.09    0.06 
  -1 -10   4    0.27    0.07 
  -1 -11   4    0.15    0.07 
  -1 -12   4    0.45    0.11 
  -1 -13   4    2.47    0.21 
  -1 -14   4    0.07    0.09 
  -1 -15   4    0.07    0.10 
  -1 -16   4    0.04    0.11 
  -1 -17   4    0.91    0.18 
  -1 -18   4    0.15    0.14 
  -1 -20   4   -0.01    0.14 
   2 -19  -4   -0.03    0.12 
   2 -18  -4    0.63    0.15 
   2 -17  -4    0.38    0.13 
   2 -16  -4   -0.01    0.09 
   2 -15  -4    0.42    0.11 
   2 -14  -4    0.56    0.11 
   2 -13  -4    0.76    0.12 
   2 -12  -4   -0.02    0.07 
   2 -11  -4    0.08    0.07 
   2 -11  -4    0.20    0.05 
   2 -10  -4    0.14    0.06 
   2 -10  -4    0.24    0.05 
   2  -9  -4    3.22    0.15 
   2  -9  -4    2.75    0.17 
   2  -8  -4    1.89    0.13 
   2  -8  -4    1.88    0.10 
   2  -7  -4    3.66    0.15 
   2  -7  -4    3.46    0.18 
   2  -6  -4    2.41    0.14 
   2  -6  -4    2.40    0.11 
   2  -5  -4   33.65    1.20 
   2  -5  -4   32.89    1.20 
   2  -4  -4    1.99    0.11 
   2  -4  -4    1.95    0.08 
   2  -3  -4    7.74    0.29 
   2  -3  -4    7.86    0.31 
   2  -2  -4    4.02    0.17 
   2  -2  -4    4.18    0.16 
   2  -1  -4   11.91    0.45 
   2  -1  -4   12.34    0.45 
   2   0  -4    0.43    0.04 
   2   0  -4    0.39    0.04 
   2   1  -4   11.52    0.44 
   2   1  -4   12.03    0.46 
   2   2  -4    4.37    0.18 
   2   2  -4    4.34    0.20 
   2   3  -4    7.47    0.30 
   2   3  -4    7.62    0.32 
   2   4  -4    2.05    0.11 
   2   4  -4    1.89    0.12 
   2   5  -4   32.26    1.19 
   2   5  -4   33.32    1.23 
   2   6  -4    2.47    0.16 
   2   7  -4    3.63    0.21 
   2   8  -4    1.78    0.14 
   2   9  -4    2.92    0.19 
   2  10  -4    0.21    0.07 
   2  11  -4    0.00    0.06 
  -2 -12   4    0.03    0.07 
  -2 -13   4    0.64    0.13 
  -2 -14   4    0.45    0.12 
  -2 -15   4    0.30    0.12 
  -2 -16   4    0.01    0.10 
  -2 -17   4    0.49    0.15 
  -2 -18   4    0.59    0.18 
   3 -19  -4    0.13    0.14 
   3 -18  -4    0.21    0.12 
   3 -17  -4    0.57    0.14 
   3 -16  -4   -0.04    0.08 
   3 -15  -4    0.42    0.12 
   3 -14  -4    0.72    0.13 
   3 -13  -4    0.00    0.08 
   3 -12  -4    1.73    0.16 
   3 -11  -4    2.61    0.17 
   3 -11  -4    2.43    0.14 
   3 -10  -4    0.12    0.06 
   3 -10  -4    0.13    0.04 
   3  -9  -4    0.71    0.06 
   3  -9  -4    0.52    0.08 
   3  -8  -4    0.09    0.03 
   3  -8  -4    0.09    0.05 
   3  -7  -4    1.77    0.09 
   3  -7  -4    1.99    0.13 
   3  -6  -4    0.16    0.03 
   3  -6  -4    0.13    0.05 
   3  -5  -4    1.59    0.08 
   3  -5  -4    1.65    0.11 
   3  -4  -4   14.04    0.51 
   3  -4  -4   13.35    0.52 
   3  -3  -4   21.17    0.76 
   3  -3  -4   20.58    0.76 
   3  -2  -4   22.12    0.80 
   3  -2  -4   21.50    0.79 
   3  -1  -4    2.20    0.11 
   3  -1  -4    2.36    0.11 
   3   0  -4   26.55    0.99 
   3   0  -4   27.19    0.96 
   3   1  -4    2.33    0.12 
   3   1  -4    2.27    0.11 
   3   2  -4   21.12    0.81 
   3   2  -4   21.91    0.78 
   3   3  -4   20.97    0.79 
   3   3  -4   20.47    0.76 
  -3  -4   4   13.18    0.50 
   3   4  -4   13.09    0.51 
   3   4  -4   13.81    0.54 
   3   5  -4    1.65    0.12 
   3   5  -4    1.45    0.10 
   3   6  -4    0.20    0.06 
   3   7  -4    1.97    0.14 
   3   8  -4    0.06    0.05 
   3   9  -4    0.58    0.11 
   3  10  -4    0.03    0.05 
   3  11  -4    2.43    0.19 
   3  12  -4    2.19    0.21 
   3  13  -4   -0.14    0.07 
  -3 -14   4    0.58    0.13 
  -3 -15   4    0.47    0.13 
  -3 -16   4    0.06    0.11 
  -3 -17   4    0.74    0.17 
  -3 -18   4    0.09    0.13 
  -3 -19   4    0.22    0.16 
   4 -19  -4    0.13    0.14 
   4 -18  -4    0.88    0.17 
   4 -17  -4    0.13    0.11 
   4 -16  -4    0.13    0.10 
   4 -15  -4    0.28    0.11 
   4 -14  -4    0.79    0.13 
   4 -13  -4    1.30    0.15 
   4 -12  -4    0.14    0.08 
   4 -11  -4    0.48    0.07 
   4 -11  -4    0.55    0.11 
   4 -10  -4    8.77    0.37 
   4 -10  -4    9.64    0.41 
   4  -9  -4    0.13    0.04 
   4  -9  -4    0.09    0.06 
   4  -8  -4    0.00    0.03 
   4  -8  -4   -0.01    0.04 
   4  -7  -4    2.21    0.11 
   4  -7  -4    2.10    0.14 
   4  -6  -4   26.12    1.00 
   4  -6  -4   27.80    0.99 
   4  -5  -4    3.94    0.19 
   4  -5  -4    4.09    0.17 
   4  -4  -4   13.22    0.52 
   4  -4  -4   14.02    0.51 
   4  -3  -4    0.56    0.05 
   4  -3  -4    0.53    0.06 
   4  -2  -4    0.84    0.07 
   4  -2  -4    0.87    0.06 
   4  -1  -4    6.17    0.26 
   4  -1  -4    6.36    0.25 
   4   0  -4   10.20    0.40 
   4   0  -4   10.15    0.38 
   4   1  -4    6.32    0.25 
   4   1  -4    6.16    0.27 
   4   2  -4    0.88    0.06 
   4   2  -4    0.97    0.08 
  -4  -3   4    0.35    0.03 
   4   3  -4    0.36    0.05 
   4   3  -4    0.51    0.07 
  -4  -4   4   13.79    0.51 
   4   4  -4   13.60    0.52 
   4   4  -4   13.45    0.55 
  -4  -5   4    3.97    0.17 
   4   5  -4    3.81    0.18 
   4   5  -4    3.65    0.20 
  -4  -6   4   27.91    1.03 
   4   6  -4   27.34    1.07 
  -4  -7   4    2.13    0.12 
   4   7  -4    1.96    0.15 
   4   8  -4    0.01    0.05 
   4   9  -4    0.06    0.06 
   4  10  -4    8.45    0.42 
   4  11  -4    0.31    0.10 
   4  12  -4    0.08    0.09 
   4  13  -4    1.14    0.17 
   4  14  -4    1.08    0.18 
   4  15  -4    0.64    0.15 
  -4 -16   4    0.02    0.10 
  -4 -17   4    0.13    0.12 
  -4 -18   4    0.89    0.20 
  -4 -19   4    0.02    0.15 
   5 -19  -4    0.10    0.14 
   5 -18  -4   -0.08    0.11 
   5 -17  -4    0.36    0.13 
   5 -16  -4    0.10    0.11 
   5 -15  -4    0.09    0.09 
   5 -14  -4    0.53    0.12 
   5 -13  -4    0.00    0.08 
   5 -12  -4   -0.09    0.07 
   5 -11  -4    6.32    0.32 
   5 -10  -4    0.70    0.11 
   5 -10  -4    0.74    0.08 
   5  -9  -4    1.81    0.15 
   5  -9  -4    1.96    0.12 
   5  -8  -4    0.59    0.09 
   5  -8  -4    0.61    0.06 
   5  -7  -4    0.07    0.04 
   5  -7  -4    0.08    0.05 
   5  -6  -4    0.36    0.06 
   5  -6  -4    0.46    0.05 
   5  -5  -4    8.80    0.37 
   5  -5  -4    9.05    0.35 
   5  -4  -4    3.05    0.14 
   5  -4  -4    3.14    0.16 
   5  -3  -4    0.33    0.05 
   5  -3  -4    0.25    0.04 
   5  -2  -4    0.06    0.03 
   5  -2  -4    0.05    0.03 
   5  -1  -4   40.16    1.43 
   5  -1  -4   40.38    1.47 
   5   0  -4    2.59    0.12 
   5   0  -4    2.29    0.13 
   5   1  -4   39.19    1.46 
   5   1  -4   40.07    1.41 
   5   2  -4    0.05    0.04 
   5   2  -4    0.07    0.03 
  -5  -3   4    0.19    0.03 
   5   3  -4    0.14    0.05 
   5   3  -4    0.17    0.04 
  -5  -4   4    3.18    0.14 
   5   4  -4    3.43    0.19 
   5   4  -4    3.04    0.15 
  -5  -5   4    9.84    0.37 
   5   5  -4    9.38    0.38 
   5   5  -4    8.97    0.41 
  -5  -6   4    0.47    0.05 
   5   6  -4    0.49    0.07 
   5   6  -4    0.45    0.08 
  -5  -7   4    0.13    0.04 
   5   7  -4    0.14    0.06 
  -5  -8   4    0.95    0.08 
   5   8  -4    0.62    0.11 
  -5  -9   4    1.94    0.13 
   5   9  -4    1.98    0.18 
  -5 -10   4    0.75    0.09 
   5  10  -4    0.67    0.13 
  -5 -11   4    5.70    0.29 
   5  11  -4    6.81    0.36 
  -5 -12   4    0.02    0.06 
   5  12  -4    0.06    0.09 
  -5 -13   4    0.09    0.06 
   5  13  -4    0.22    0.11 
   5  14  -4    0.67    0.15 
   5  15  -4    0.02    0.11 
   5  16  -4    0.20    0.13 
  -5 -17   4    0.52    0.16 
  -5 -18   4    0.03    0.13 
  -5 -19   4    0.02    0.15 
   6 -19  -4    0.30    0.15 
   6 -18  -4    0.58    0.16 
   6 -17  -4   -0.02    0.11 
   6 -16  -4   -0.01    0.10 
   6 -15  -4   -0.10    0.08 
   6 -14  -4    0.47    0.12 
   6 -13  -4    0.38    0.11 
   6 -12  -4   -0.02    0.08 
   6 -11  -4    1.04    0.13 
   6 -10  -4    9.85    0.41 
   6 -10  -4    9.98    0.45 
   6  -9  -4    5.30    0.27 
   6  -9  -4    4.70    0.23 
   6  -8  -4    0.44    0.08 
   6  -8  -4    0.43    0.06 
   6  -7  -4    0.66    0.09 
   6  -7  -4    0.77    0.07 
   6  -6  -4    4.94    0.22 
   6  -6  -4    4.82    0.24 
   6  -5  -4   19.01    0.72 
   6  -5  -4   19.25    0.73 
   6  -4  -4    5.25    0.24 
   6  -4  -4    5.35    0.23 
   6  -3  -4   16.75    0.64 
   6  -3  -4   16.77    0.63 
   6  -2  -4    0.46    0.06 
   6  -2  -4    0.42    0.06 
   6  -1  -4    2.94    0.14 
   6  -1  -4    3.03    0.16 
   6   0  -4   20.67    0.74 
   6   0  -4   20.00    0.78 
   6   1  -4    3.00    0.17 
   6   1  -4    3.11    0.14 
   6   2  -4    0.40    0.07 
   6   2  -4    0.47    0.05 
  -6  -3   4   16.58    0.62 
   6   3  -4   15.57    0.64 
   6   3  -4   16.19    0.60 
  -6  -4   4    4.90    0.21 
   6   4  -4    4.79    0.25 
   6   4  -4    4.72    0.21 
  -6  -5   4   19.00    0.70 
   6   5  -4   17.39    0.69 
   6   5  -4   18.89    0.75 
  -6  -6   4    4.92    0.22 
   6   6  -4    5.14    0.23 
   6   6  -4    5.06    0.27 
  -6  -7   4    0.77    0.07 
   6   7  -4    0.61    0.10 
  -6  -8   4    0.55    0.07 
   6   8  -4    0.38    0.09 
  -6  -9   4    4.99    0.24 
   6   9  -4    4.79    0.28 
  -6 -10   4    9.80    0.42 
   6  10  -4    9.77    0.48 
  -6 -11   4    1.25    0.12 
   6  11  -4    1.09    0.16 
  -6 -12   4    0.05    0.06 
   6  12  -4   -0.11    0.07 
   6  13  -4    0.33    0.13 
   6  14  -4    0.57    0.15 
   6  15  -4    0.03    0.11 
   6  16  -4    0.13    0.13 
   6  17  -4    0.06    0.13 
  -6 -18   4    0.36    0.16 
  -6 -19   4    0.20    0.17 
   7 -18  -4   -0.10    0.11 
   7 -17  -4    0.17    0.13 
   7 -16  -4    0.15    0.12 
   7 -15  -4   -0.01    0.10 
   7 -14  -4    1.15    0.16 
   7 -13  -4    0.02    0.09 
   7 -12  -4    0.27    0.10 
   7 -11  -4    4.33    0.26 
   7 -10  -4   -0.02    0.08 
   7 -10  -4    0.14    0.06 
   7  -9  -4    1.94    0.13 
   7  -9  -4    1.75    0.15 
   7  -8  -4    3.81    0.22 
   7  -8  -4    3.73    0.19 
   7  -7  -4    4.40    0.21 
   7  -7  -4    4.78    0.24 
   7  -6  -4    0.50    0.07 
   7  -6  -4    0.36    0.07 
   7  -5  -4   -0.05    0.04 
   7  -5  -4    0.07    0.04 
   7  -4  -4    7.35    0.31 
   7  -4  -4    7.18    0.31 
   7  -3  -4    1.26    0.10 
   7  -3  -4    1.27    0.09 
   7  -2  -4    2.40    0.13 
   7  -2  -4    2.02    0.12 
   7  -1  -4    4.15    0.19 
   7  -1  -4    4.10    0.20 
   7   0  -4   22.17    0.85 
   7   0  -4   22.05    0.81 
   7   1  -4    4.45    0.19 
   7   1  -4    4.06    0.22 
   7   2  -4    1.70    0.10 
   7   2  -4    2.35    0.14 
   7   3  -4    1.26    0.12 
  -7  -4   4    7.50    0.30 
   7   4  -4    6.76    0.34 
  -7  -5   4   -0.03    0.03 
   7   5  -4    0.04    0.02 
   7   5  -4    0.00    0.05 
  -7  -6   4    0.37    0.05 
   7   6  -4    0.34    0.08 
  -7  -7   4    4.49    0.21 
   7   7  -4    4.03    0.25 
  -7  -8   4    4.15    0.20 
   7   8  -4    3.94    0.25 
  -7  -9   4    1.85    0.13 
   7   9  -4    1.93    0.19 
  -7 -10   4    0.07    0.06 
   7  10  -4    0.10    0.09 
  -7 -11   4    4.17    0.22 
   7  11  -4    3.87    0.28 
   7  12  -4    0.25    0.11 
   7  13  -4    0.21    0.11 
   7  14  -4    1.17    0.20 
   7  15  -4    0.17    0.13 
   7  16  -4    0.18    0.13 
   7  17  -4    0.11    0.14 
   7  18  -4    0.13    0.15 
   8 -18  -4    0.06    0.13 
   8 -17  -4    0.22    0.14 
   8 -16  -4    0.04    0.12 
   8 -15  -4    0.21    0.12 
   8 -14  -4    0.34    0.12 
   8 -13  -4   -0.03    0.08 
   8 -12  -4    0.73    0.13 
   8 -11  -4    1.12    0.15 
   8 -10  -4    1.51    0.16 
   8 -10  -4    1.51    0.13 
   8  -9  -4    4.23    0.22 
   8  -9  -4    4.30    0.25 
   8  -8  -4    1.98    0.13 
   8  -8  -4    1.86    0.15 
   8  -7  -4    0.19    0.06 
   8  -7  -4    0.16    0.06 
   8  -6  -4    0.32    0.07 
   8  -6  -4    0.32    0.07 
   8  -5  -4    2.12    0.14 
   8  -5  -4    2.36    0.14 
   8  -4  -4    0.18    0.05 
   8  -4  -4    0.12    0.06 
   8  -3  -4   -0.02    0.03 
   8  -3  -4    0.03    0.04 
   8  -2  -4    1.82    0.11 
   8  -2  -4    1.88    0.13 
   8  -1  -4   10.71    0.44 
   8  -1  -4   10.28    0.41 
   8   0  -4    0.38    0.07 
   8   0  -4    0.29    0.05 
   8   1  -4   11.10    0.43 
   8   1  -4    8.74    0.38 
   8   2  -4    1.73    0.13 
   8   3  -4    0.04    0.03 
   8   3  -4    0.00    0.05 
  -8  -4   4    0.23    0.05 
   8   4  -4    0.16    0.07 
   8   4  -4    0.17    0.04 
  -8  -5   4    2.34    0.13 
   8   5  -4    2.42    0.18 
   8   5  -4    2.39    0.13 
  -8  -6   4    0.47    0.06 
   8   6  -4    0.30    0.08 
   8   6  -4    0.36    0.06 
  -8  -7   4    0.12    0.05 
   8   7  -4    0.18    0.09 
  -8  -8   4    2.03    0.13 
   8   8  -4    1.90    0.18 
  -8  -9   4    4.33    0.22 
   8   9  -4    4.25    0.27 
  -8 -10   4    1.64    0.13 
   8  10  -4    1.63    0.19 
   8  11  -4    1.39    0.19 
   8  12  -4    1.10    0.18 
   8  13  -4   -0.14    0.07 
   8  14  -4    0.17    0.13 
   8  15  -4    0.54    0.16 
   8  16  -4    0.07    0.14 
   8  17  -4    0.43    0.17 
   8  18  -4    0.17    0.15 
   9 -18  -4    0.01    0.13 
   9 -17  -4   -0.04    0.12 
   9 -16  -4    0.05    0.11 
   9 -15  -4    0.46    0.13 
   9 -14  -4    1.03    0.16 
   9 -13  -4    0.21    0.10 
   9 -12  -4   -0.12    0.07 
   9 -11  -4    0.10    0.09 
   9 -10  -4    1.64    0.17 
   9 -10  -4    1.62    0.14 
   9  -9  -4    0.12    0.08 
   9  -9  -4    0.20    0.07 
   9  -8  -4    0.15    0.06 
   9  -8  -4    0.03    0.07 
   9  -7  -4    2.29    0.15 
   9  -7  -4    2.06    0.16 
   9  -6  -4    2.19    0.15 
   9  -6  -4    2.08    0.14 
   9  -5  -4    0.96    0.10 
   9  -5  -4    1.05    0.11 
   9  -4  -4    1.20    0.11 
   9  -4  -4    1.09    0.10 
   9  -3  -4    0.33    0.06 
   9  -3  -4    0.10    0.06 
   9  -2  -4    2.66    0.15 
   9  -2  -4    2.54    0.16 
   9  -1  -4    4.00    0.21 
   9  -1  -4    3.85    0.19 
   9   0  -4    5.13    0.26 
   9   0  -4    5.23    0.23 
   9   1  -4    3.54    0.21 
   9   2  -4    2.64    0.18 
   9   2  -4    2.42    0.13 
   9   3  -4    0.20    0.04 
   9   3  -4    0.23    0.07 
   9   4  -4    1.24    0.09 
   9   4  -4    1.06    0.13 
  -9  -5   4    1.06    0.09 
   9   5  -4    0.96    0.08 
   9   5  -4    0.97    0.13 
  -9  -6   4    1.94    0.13 
   9   6  -4    1.87    0.18 
   9   6  -4    2.11    0.13 
  -9  -7   4    2.07    0.13 
   9   7  -4    1.88    0.18 
  -9  -8   4    0.14    0.06 
   9   8  -4    0.14    0.09 
  -9  -9   4    0.29    0.07 
   9   9  -4    0.22    0.10 
   9  10  -4    1.44    0.18 
   9  11  -4    0.16    0.10 
   9  12  -4    0.04    0.08 
   9  13  -4    0.21    0.12 
   9  14  -4    1.22    0.20 
   9  15  -4    0.42    0.15 
   9  16  -4   -0.05    0.13 
   9  17  -4    0.25    0.15 
   9  18  -4   -0.01    0.14 
  10 -17  -4    0.05    0.11 
  10 -16  -4   -0.03    0.10 
  10 -15  -4    0.24    0.12 
  10 -14  -4    0.06    0.10 
  10 -13  -4   -0.03    0.09 
  10 -12  -4    0.07    0.09 
  10 -11  -4    1.13    0.15 
  10 -10  -4    0.27    0.10 
  10  -9  -4    0.00    0.08 
  10  -9  -4    0.02    0.07 
  10  -8  -4    0.81    0.11 
  10  -8  -4    0.89    0.12 
  10  -7  -4    0.23    0.08 
  10  -7  -4    0.38    0.08 
  10  -6  -4   -0.01    0.06 
  10  -6  -4    0.03    0.05 
  10  -5  -4    2.52    0.17 
  10  -5  -4    2.50    0.16 
  10  -4  -4   11.11    0.47 
  10  -4  -4   10.82    0.45 
  10  -3  -4    0.05    0.06 
  10  -3  -4    0.01    0.05 
  10  -2  -4    1.85    0.15 
  10  -2  -4    1.82    0.12 
  10  -1  -4    0.03    0.04 
  10  -1  -4    0.00    0.05 
  10   0  -4    1.79    0.14 
  10   0  -4    1.38    0.09 
  10   1  -4    0.06    0.06 
  10   1  -4   -0.01    0.03 
  10   2  -4    1.84    0.11 
  10   2  -4    1.74    0.16 
  10   3  -4    0.08    0.04 
  10   3  -4    0.00    0.06 
  10   4  -4   10.64    0.50 
  10   4  -4   11.40    0.44 
 -10  -5   4    2.36    0.15 
  10   5  -4    2.30    0.14 
  10   5  -4    2.36    0.19 
 -10  -6   4    0.09    0.05 
  10   6  -4   -0.03    0.07 
  10   6  -4   -0.07    0.04 
 -10  -7   4    0.38    0.08 
  10   7  -4    0.14    0.09 
 -10  -8   4    1.03    0.11 
  10   8  -4    0.99    0.15 
  10   9  -4    0.09    0.09 
  10  10  -4    0.33    0.11 
  10  11  -4    1.50    0.20 
  10  12  -4   -0.13    0.08 
  10  13  -4    0.18    0.12 
  10  14  -4    0.00    0.11 
  10  15  -4    0.27    0.15 
  10  16  -4    0.16    0.15 
  10  17  -4    0.08    0.15 
  11 -17  -4    0.05    0.11 
  11 -16  -4    0.04    0.11 
  11 -15  -4    0.36    0.13 
  11 -14  -4    0.13    0.11 
  11 -13  -4   -0.12    0.09 
  11 -12  -4    0.19    0.11 
  11 -11  -4    0.11    0.09 
  11 -10  -4    1.24    0.15 
  11  -9  -4    0.03    0.08 
  11  -9  -4    0.13    0.07 
  11  -8  -4    0.02    0.08 
  11  -8  -4    0.10    0.07 
  11  -7  -4    1.39    0.14 
  11  -7  -4    1.45    0.14 
  11  -6  -4   -0.02    0.06 
  11  -6  -4    0.11    0.08 
  11  -5  -4    1.95    0.14 
  11  -4  -4   -0.03    0.05 
  11  -4  -4    0.00    0.06 
  11  -3  -4    1.27    0.11 
  11  -3  -4    1.15    0.13 
  11  -2  -4    0.02    0.06 
  11  -2  -4    0.11    0.05 
  11  -1  -4    0.01    0.05 
  11  -1  -4   -0.01    0.06 
  11   0  -4    2.95    0.20 
  11   1  -4    0.04    0.07 
  11   1  -4    0.02    0.04 
  11   2  -4    0.05    0.07 
  11   2  -4    0.03    0.04 
  11   3  -4    1.04    0.09 
  11   3  -4    1.16    0.14 
  11   4  -4    0.07    0.05 
  11   4  -4    0.13    0.08 
  11   5  -4    1.83    0.12 
  11   5  -4    1.77    0.18 
 -11  -6   4   -0.02    0.05 
  11   6  -4    0.01    0.07 
 -11  -7   4    1.51    0.13 
  11   7  -4    1.33    0.17 
  11   8  -4   -0.08    0.08 
  11   9  -4    0.19    0.11 
  11  10  -4    1.40    0.19 
  11  11  -4    0.08    0.11 
  11  12  -4    0.11    0.11 
  11  13  -4    0.02    0.10 
  11  14  -4    0.21    0.13 
  11  15  -4    0.60    0.17 
  11  16  -4    0.02    0.12 
  11  17  -4    0.00    0.14 
  12 -16  -4   -0.09    0.10 
  12 -15  -4   -0.02    0.10 
  12 -14  -4    0.01    0.10 
  12 -13  -4    0.02    0.10 
  12 -12  -4    0.01    0.09 
  12 -11  -4    0.14    0.10 
  12 -10  -4    0.27    0.10 
  12  -9  -4    1.67    0.17 
  12  -9  -4    1.50    0.16 
  12  -8  -4    0.25    0.09 
  12  -8  -4    0.31    0.10 
  12  -7  -4    0.60    0.12 
  12  -7  -4    0.64    0.11 
  12  -6  -4    0.55    0.11 
  12  -6  -4    0.27    0.09 
  12  -5  -4    5.08    0.28 
  12  -5  -4    5.59    0.28 
  12  -4  -4    5.59    0.27 
  12  -4  -4    5.36    0.29 
  12  -3  -4    3.61    0.24 
  12  -3  -4    4.34    0.22 
  12  -2  -4    0.49    0.11 
  12  -2  -4    0.65    0.09 
  12  -1  -4    5.52    0.28 
  12  -1  -4    4.08    0.22 
  12   0  -4    1.98    0.18 
  12   0  -4    1.78    0.12 
  12   1  -4    5.94    0.25 
  12   1  -4    5.09    0.30 
  12   2  -4    0.71    0.08 
  12   2  -4    0.60    0.12 
  12   3  -4    4.35    0.27 
  12   3  -4    4.06    0.20 
  12   4  -4    5.38    0.32 
  12   5  -4    5.36    0.32 
 -12  -6   4    0.69    0.10 
  12   6  -4    0.29    0.11 
  12   7  -4    0.68    0.14 
  12   8  -4    0.33    0.11 
  12   9  -4    1.40    0.19 
  12  10  -4   -0.04    0.10 
  12  11  -4   -0.05    0.09 
  12  12  -4    0.06    0.12 
  12  13  -4   -0.02    0.11 
  12  14  -4    0.10    0.13 
  12  15  -4    0.08    0.13 
  12  16  -4    0.08    0.14 
  13 -15  -4   -0.06    0.10 
  13 -14  -4    0.26    0.13 
  13 -13  -4    0.03    0.11 
  13 -12  -4   -0.01    0.10 
  13 -11  -4   -0.06    0.09 
  13 -10  -4   -0.01    0.09 
  13  -9  -4    0.26    0.10 
  13  -9  -4    0.38    0.11 
  13  -8  -4    0.10    0.09 
  13  -8  -4    0.12    0.08 
  13  -7  -4    0.33    0.10 
  13  -7  -4    0.09    0.09 
  13  -6  -4    0.65    0.12 
  13  -6  -4    0.56    0.11 
  13  -5  -4   -0.07    0.08 
  13  -5  -4   -0.03    0.08 
  13  -4  -4    2.59    0.18 
  13  -4  -4    2.71    0.20 
  13  -3  -4    0.05    0.09 
  13  -3  -4    0.17    0.07 
  13  -2  -4    2.21    0.15 
  13  -2  -4    2.37    0.20 
  13  -1  -4    0.41    0.10 
  13   0  -4    0.33    0.07 
  13   0  -4    0.19    0.09 
  13   1  -4    0.36    0.07 
  13   1  -4    0.40    0.12 
  13   2  -4    1.92    0.19 
  13   3  -4   -0.04    0.09 
  13   4  -4    2.48    0.23 
  13   5  -4   -0.06    0.08 
  13   6  -4    0.42    0.13 
  13   7  -4    0.04    0.08 
  13   8  -4   -0.07    0.09 
  13   9  -4    0.09    0.10 
  13  10  -4    0.13    0.10 
  13  11  -4   -0.02    0.11 
  13  12  -4   -0.09    0.11 
  13  13  -4   -0.06    0.11 
  13  14  -4    0.15    0.14 
  13  15  -4    0.00    0.12 
  14 -14  -4   -0.10    0.11 
  14 -13  -4    0.02    0.11 
  14 -12  -4    0.09    0.12 
  14 -11  -4    0.02    0.11 
  14 -10  -4    0.15    0.11 
  14  -9  -4    0.33    0.12 
  14  -8  -4   -0.11    0.09 
  14  -8  -4   -0.04    0.09 
  14  -7  -4    0.74    0.13 
  14  -7  -4    0.68    0.12 
  14  -6  -4    0.71    0.12 
  14  -6  -4    0.73    0.13 
  14  -5  -4    0.34    0.10 
  14  -5  -4    0.21    0.09 
  14  -4  -4    0.22    0.09 
  14  -4  -4    0.32    0.11 
  14  -3  -4    3.43    0.20 
  14  -3  -4    3.30    0.23 
  14  -2  -4    0.31    0.08 
  14  -2  -4    0.41    0.12 
  14  -1  -4    2.05    0.14 
  14  -1  -4    2.63    0.20 
  14   0  -4    0.27    0.11 
  14   1  -4    2.95    0.23 
  14   2  -4    0.37    0.12 
  14   3  -4    3.58    0.26 
  14   4  -4    0.41    0.12 
  14   5  -4    0.06    0.10 
  14   6  -4    0.69    0.16 
  14   7  -4    0.41    0.13 
  14   8  -4    0.15    0.11 
  14   9  -4    0.40    0.14 
  14  10  -4    0.20    0.13 
  14  11  -4    0.09    0.13 
  14  12  -4    0.10    0.13 
  14  13  -4    0.07    0.13 
  14  14  -4    0.12    0.13 
  15 -13  -4   -0.08    0.11 
  15 -12  -4    0.25    0.13 
  15 -11  -4   -0.06    0.12 
  15 -10  -4    0.02    0.11 
  15  -9  -4    0.17    0.12 
  15  -8  -4    0.40    0.12 
  15  -8  -4    0.60    0.13 
  15  -7  -4    0.08    0.10 
  15  -7  -4    0.06    0.09 
  15  -6  -4    0.23    0.11 
  15  -6  -4    0.15    0.09 
  15  -5  -4    0.25    0.11 
  15  -5  -4    0.20    0.10 
  15  -4  -4    1.55    0.18 
  15  -4  -4    1.40    0.15 
  15  -3  -4    0.11    0.09 
  15  -3  -4    0.05    0.09 
  15  -2  -4    0.92    0.15 
  15  -1  -4    0.21    0.10 
  15   0  -4    0.60    0.13 
  15   1  -4    0.14    0.10 
  15   2  -4    0.91    0.16 
  15   3  -4   -0.07    0.09 
  15   4  -4    1.23    0.18 
  15   5  -4    0.20    0.12 
  15   6  -4    0.21    0.12 
  15   7  -4    0.06    0.11 
  15   8  -4    0.12    0.12 
  15   9  -4    0.06    0.11 
  15  10  -4    0.10    0.12 
  15  11  -4   -0.12    0.10 
  15  12  -4    0.08    0.13 
  15  13  -4    0.14    0.14 
  16 -12  -4    0.15    0.14 
  16 -11  -4    0.30    0.15 
  16 -10  -4    0.21    0.13 
  16  -9  -4    0.12    0.11 
  16  -8  -4    0.11    0.11 
  16  -8  -4    0.01    0.11 
  16  -7  -4    0.62    0.13 
  16  -7  -4    0.43    0.14 
  16  -6  -4    0.00    0.10 
  16  -6  -4   -0.03    0.10 
  16  -5  -4    0.00    0.10 
  16  -4  -4    0.43    0.13 
  16  -3  -4    0.21    0.11 
  16  -2  -4    0.19    0.10 
  16  -1  -4    0.30    0.12 
  16   0  -4   -0.12    0.08 
  16   1  -4    0.16    0.11 
  16   2  -4   -0.08    0.08 
  16   3  -4    0.05    0.11 
  16   4  -4    0.17    0.12 
  16   5  -4   -0.10    0.09 
  16   6  -4   -0.11    0.10 
  16   7  -4    0.20    0.14 
  16   8  -4    0.05    0.11 
  16   9  -4    0.16    0.14 
  16  10  -4    0.01    0.12 
  16  11  -4    0.06    0.14 
  16  12  -4    0.11    0.13 
  17 -11  -4    0.02    0.12 
  17 -10  -4    0.14    0.13 
  17  -9  -4   -0.12    0.12 
  17  -7  -4   -0.29    0.10 
  17  -6  -4    0.00    0.11 
  17  -5  -4   -0.13    0.10 
  17  -4  -4    0.04    0.12 
  17  -3  -4    0.01    0.11 
  17  -2  -4   -0.11    0.10 
  17  -1  -4    0.05    0.10 
  17   0  -4    0.08    0.11 
  17   1  -4   -0.04    0.10 
  17   2  -4    0.00    0.11 
  17   3  -4   -0.10    0.10 
  17   4  -4    0.06    0.12 
  17   5  -4   -0.11    0.11 
  17   6  -4   -0.07    0.11 
  17   7  -4    0.55    0.18 
  17   8  -4    0.55    0.16 
  17   9  -4    0.19    0.13 
  17  10  -4    0.15    0.13 
  17  11  -4    0.20    0.14 
  18  -7  -4    0.25    0.15 
  18  -6  -4    0.14    0.14 
  18  -5  -4    0.25    0.14 
  18  -4  -4   -0.09    0.11 
  18  -3  -4   -0.08    0.11 
  18  -2  -4    0.11    0.12 
  18  -1  -4   -0.09    0.11 
  18   0  -4    0.01    0.12 
  18   1  -4    0.15    0.11 
  18   2  -4    0.19    0.13 
  18   3  -4   -0.02    0.11 
  18   4  -4    0.06    0.12 
  18   5  -4    0.01    0.14 
  18   6  -4   -0.02    0.14 
  18   7  -4    0.20    0.17 
  18   8  -4    0.30    0.14 
  18   9  -4    0.11    0.13 
  18  10  -4    0.21    0.13 
  19  -6  -4    0.16    0.16 
  19  -5  -4   -0.02    0.14 
  19  -4  -4    0.08    0.14 
  19  -3  -4    0.10    0.14 
  19  -2  -4    0.12    0.14 
  19  -1  -4    0.02    0.13 
  19   0  -4    0.02    0.13 
  19   1  -4    0.11    0.14 
  19   2  -4    0.12    0.14 
  19   3  -4   -0.01    0.13 
  19   4  -4   -0.08    0.13 
  19   5  -4   -0.02    0.14 
  19   6  -4    0.21    0.16 
  19   7  -4    0.06    0.16 
  19   8  -4    0.04    0.14 
  20  -5  -4    0.06    0.16 
  20  -4  -4    0.01    0.15 
  20  -3  -4   -0.06    0.15 
  20  -2  -4    0.14    0.15 
  20  -1  -4    0.02    0.15 
  20   0  -4   -0.11    0.14 
  20   1  -4   -0.16    0.13 
  20   2  -4   -0.04    0.15 
  20   3  -4    0.21    0.16 
  20   4  -4    0.13    0.16 
  20   5  -4    0.11    0.16 
  20   5   5    0.18    0.12 
  20   4   5    0.13    0.10 
  20   3   5    0.17    0.10 
  20   2   5    0.10    0.11 
  20   1   5    0.17    0.11 
  20   0   5   -0.03    0.13 
  20  -1   5   -0.10    0.14 
  20  -2   5    0.01    0.14 
  20  -3   5    0.17    0.16 
  20  -4   5    0.11    0.16 
  20  -5   5    0.03    0.16 
  19   7   5    0.13    0.12 
 -19  -7  -5   -0.05    0.15 
  19   6   5    0.41    0.13 
  19   5   5    0.15    0.11 
  19   4   5    0.29    0.12 
  19   3   5    0.05    0.11 
  19   2   5    0.40    0.13 
  19   1   5    0.09    0.10 
  19   0   5   -0.09    0.13 
  19  -1   5   -0.03    0.13 
  19  -2   5    0.27    0.16 
  19  -3   5   -0.07    0.13 
  19  -4   5    0.36    0.17 
  19  -5   5   -0.08    0.12 
  19  -6   5    0.07    0.15 
  19  -7   5   -0.10    0.15 
  18   9   5    0.23    0.13 
 -18  -9  -5    0.04    0.15 
  18   8   5    0.32    0.13 
 -18  -8  -5    0.04    0.13 
  18   7   5    0.23    0.12 
 -18  -7  -5    0.12    0.14 
  18   6   5    0.13    0.11 
 -18  -6  -5   -0.01    0.12 
  18   5   5   -0.09    0.09 
  18   4   5    0.08    0.10 
  18   3   5   -0.07    0.08 
  18   2   5    0.17    0.11 
  18   1   5    0.02    0.09 
  18   0   5    0.04    0.11 
  18  -1   5   -0.01    0.12 
  18  -2   5   -0.17    0.12 
  18  -3   5    0.10    0.14 
  18  -4   5   -0.02    0.13 
  18  -5   5    0.01    0.12 
  18  -6   5   -0.11    0.11 
  18  -7   5   -0.14    0.13 
  18  -8   5    0.05    0.16 
  18  -9   5   -0.06    0.15 
  17  11   5   -0.02    0.13 
 -17 -11  -5    0.07    0.16 
  17  10   5    0.27    0.14 
 -17 -10  -5   -0.16    0.13 
  17   9   5    0.32    0.13 
 -17  -9  -5   -0.15    0.12 
  17   8   5    0.13    0.12 
 -17  -8  -5    0.19    0.14 
  17   7   5    0.23    0.13 
 -17  -7  -5    0.17    0.13 
  17   6   5    0.31    0.11 
 -17  -6  -5    0.07    0.11 
  17   5   5    0.06    0.10 
 -17  -5  -5    0.11    0.11 
  17   4   5    0.44    0.13 
  17   3   5    0.48    0.14 
  17   2   5    0.29    0.12 
  17   1   5    0.32    0.12 
  17   0   5   -0.01    0.10 
  17  -1   5    0.05    0.11 
  17  -2   5    0.23    0.13 
  17  -3   5    0.33    0.14 
  17  -4   5    0.77    0.17 
  17  -5   5   -0.07    0.11 
  17  -6   5    0.22    0.14 
  17  -7   5    0.24    0.15 
  17  -8   5    0.05    0.13 
  17  -9   5    0.21    0.15 
  17 -10   5    0.10    0.16 
  17 -11   5    0.31    0.19 
  16  12   5    0.15    0.14 
 -16 -12  -5    0.18    0.15 
  16  11   5    0.02    0.12 
 -16 -11  -5    0.01    0.14 
  16  10   5    0.15    0.12 
 -16 -10  -5    0.05    0.14 
  16   9   5    0.16    0.12 
 -16  -9  -5    0.19    0.13 
  16   8   5    0.15    0.11 
 -16  -8  -5   -0.07    0.11 
  16   7   5    0.06    0.10 
 -16  -7  -5    0.17    0.12 
  16   6   5    0.03    0.09 
 -16  -6  -5    0.08    0.10 
  16   5   5   -0.14    0.08 
 -16  -5  -5   -0.06    0.09 
  16   4   5   -0.07    0.08 
 -16  -4  -5   -0.06    0.09 
  16   3   5    0.11    0.09 
  16   2   5    0.28    0.11 
  16   1   5   -0.01    0.09 
  16   0   5   -0.14    0.07 
  16  -1   5    0.14    0.11 
  16  -2   5    0.13    0.11 
  16  -3   5    0.03    0.10 
  16  -4   5    0.06    0.11 
  16  -5   5    0.14    0.12 
  16  -6   5    0.04    0.10 
  16  -7   5   -0.01    0.11 
  16  -8   5    0.02    0.12 
  16  -9   5    0.00    0.12 
  16 -10   5   -0.02    0.13 
  16 -11   5    0.09    0.14 
  16 -12   5    0.29    0.16 
  15  13   5    0.18    0.15 
 -15 -13  -5    0.00    0.14 
  15  12   5    0.55    0.16 
 -15 -12  -5    0.63    0.18 
  15  11   5    0.21    0.13 
 -15 -11  -5    0.00    0.12 
  15  10   5    0.27    0.13 
 -15 -10  -5    0.02    0.12 
  15   9   5    0.07    0.10 
 -15  -9  -5   -0.05    0.10 
  15   8   5    0.68    0.15 
 -15  -8  -5    0.47    0.13 
  15   7   5    0.09    0.10 
 -15  -7  -5    0.09    0.11 
  15   6   5    0.47    0.12 
 -15  -6  -5    0.52    0.13 
  15   5   5    0.75    0.14 
 -15  -5  -5    0.68    0.14 
  15   4   5    0.26    0.11 
 -15  -4  -5    0.11    0.10 
  15   3   5    0.13    0.09 
 -15  -3  -5   -0.09    0.08 
  15   2   5    0.69    0.13 
  15   1   5   -0.05    0.08 
  15   0   5    0.18    0.10 
  15  -1   5    0.01    0.09 
  15  -2   5    0.95    0.15 
  15  -3   5    0.09    0.10 
  15  -4   5    0.28    0.11 
  15  -5   5    0.79    0.15 
  15  -6   5    0.51    0.13 
  15  -7   5   -0.05    0.10 
  15  -8   5    0.70    0.15 
  15  -9   5   -0.05    0.11 
  15  -9   5   -0.05    0.10 
  15 -10   5    0.11    0.12 
  15 -10   5   -0.07    0.11 
  15 -11   5    0.06    0.12 
  15 -11   5   -0.17    0.11 
  15 -12   5    0.77    0.17 
  15 -12   5    0.68    0.18 
  15 -13   5    0.15    0.14 
  15 -13   5   -0.12    0.14 
 -14 -14  -5    0.08    0.14 
  14  13   5    0.08    0.14 
 -14 -13  -5    0.26    0.14 
  14  12   5    0.11    0.13 
 -14 -12  -5   -0.15    0.10 
  14  11   5    0.02    0.12 
 -14 -11  -5   -0.09    0.11 
  14  10   5    0.10    0.11 
 -14 -10  -5    0.09    0.11 
  14   9   5    0.04    0.10 
 -14  -9  -5    0.11    0.10 
  14   8   5    0.29    0.12 
 -14  -8  -5    0.03    0.09 
  14   7   5    0.00    0.08 
 -14  -7  -5    0.08    0.10 
  14   6   5    0.32    0.10 
 -14  -6  -5    0.33    0.11 
  14   5   5    0.01    0.08 
 -14  -5  -5   -0.04    0.08 
  14   4   5    0.19    0.10 
 -14  -4  -5    0.16    0.10 
  14   3   5    1.05    0.15 
 -14  -3  -5    0.95    0.15 
  14   2   5   -0.05    0.08 
 -14  -2  -5   -0.01    0.09 
  14   1   5    0.40    0.11 
  14   0   5    0.02    0.08 
  14  -1   5    0.21    0.10 
  14  -2   5    0.17    0.09 
  14  -3   5    0.94    0.15 
  14  -4   5    0.17    0.10 
  14  -5   5   -0.05    0.09 
  14  -6   5    0.20    0.10 
  14  -7   5   -0.01    0.09 
  14  -7   5   -0.04    0.09 
  14  -8   5    0.27    0.12 
  14  -8   5    0.16    0.11 
  14  -9   5    0.03    0.10 
  14  -9   5    0.21    0.10 
  14 -10   5   -0.07    0.10 
  14 -10   5   -0.02    0.11 
  14 -11   5    0.07    0.12 
  14 -11   5   -0.01    0.11 
  14 -12   5    0.15    0.13 
  14 -12   5    0.12    0.13 
  14 -13   5    0.01    0.12 
  14 -13   5   -0.02    0.13 
  14 -14   5    0.03    0.13 
  14 -14   5    0.03    0.15 
 -13 -15  -5    0.19    0.15 
 -13 -14  -5   -0.06    0.13 
  13  13   5    0.12    0.13 
 -13 -13  -5   -0.01    0.12 
  13  12   5    0.53    0.15 
 -13 -12  -5    0.42    0.14 
  13  11   5    0.15    0.11 
 -13 -11  -5    0.18    0.12 
  13  10   5    0.39    0.12 
 -13 -10  -5    0.30    0.11 
  13   9   5    0.61    0.14 
 -13  -9  -5    0.45    0.13 
  13   8   5    0.59    0.13 
 -13  -8  -5    0.54    0.13 
  13   7   5    0.12    0.09 
 -13  -7  -5    0.08    0.09 
  13   6   5    1.05    0.15 
 -13  -6  -5    0.79    0.14 
  13   5   5    1.16    0.16 
 -13  -5  -5    1.12    0.16 
  13   4   5   -0.04    0.06 
 -13  -4  -5    0.08    0.09 
  13   3   5    1.52    0.17 
 -13  -3  -5    1.27    0.16 
  13   2   5    0.67    0.13 
 -13  -2  -5    0.82    0.13 
  13   1   5    0.45    0.11 
  13   0   5   -0.04    0.07 
  13  -1   5    0.35    0.10 
  13  -2   5    0.69    0.13 
  13  -3   5    1.34    0.17 
  13  -4   5   -0.02    0.06 
  13  -4   5    0.02    0.09 
  13  -5   5    1.28    0.16 
  13  -6   5    0.98    0.13 
  13  -6   5    0.71    0.13 
  13  -7   5   -0.01    0.08 
  13  -7   5    0.06    0.09 
  13  -8   5    0.59    0.13 
  13  -8   5    0.37    0.11 
  13  -9   5    0.38    0.12 
  13  -9   5    0.32    0.11 
  13 -10   5    0.12    0.10 
  13 -10   5    0.18    0.10 
  13 -11   5    0.22    0.12 
  13 -11   5    0.31    0.12 
  13 -12   5    0.38    0.14 
  13 -12   5    0.17    0.12 
  13 -13   5    0.01    0.12 
  13 -13   5   -0.18    0.11 
  13 -14   5   -0.11    0.12 
  13 -14   5   -0.04    0.14 
  13 -15   5    0.41    0.15 
  13 -15   5    0.21    0.16 
 -12 -16  -5   -0.06    0.15 
 -12 -15  -5    0.07    0.14 
 -12 -14  -5    0.17    0.14 
  12  13   5    0.30    0.14 
 -12 -13  -5    0.27    0.12 
  12  12   5    0.08    0.11 
 -12 -12  -5    0.33    0.12 
  12  11   5    0.09    0.10 
 -12 -11  -5   -0.06    0.09 
  12  10   5    0.05    0.09 
 -12 -10  -5    0.09    0.10 
  12   9   5    0.25    0.10 
 -12  -9  -5   -0.04    0.09 
  12   8   5    0.09    0.09 
 -12  -8  -5   -0.01    0.08 
  12   7   5    1.67    0.18 
 -12  -7  -5    1.44    0.17 
  12   6   5    0.64    0.12 
 -12  -6  -5    0.57    0.12 
  12   5   5    0.86    0.14 
 -12  -5  -5    0.83    0.13 
  12   4   5    1.44    0.16 
 -12  -4  -5    1.24    0.15 
  12   3   5    0.01    0.07 
 -12  -3  -5    0.18    0.09 
  12   2   5    1.01    0.14 
 -12  -2  -5    0.91    0.13 
  12   1   5    1.53    0.16 
 -12  -1  -5    1.29    0.15 
  12   0   5    0.08    0.07 
  12  -1   5    1.64    0.16 
  12  -2   5    0.77    0.12 
  12  -3   5    0.11    0.09 
  12  -3   5    0.14    0.06 
  12  -4   5    0.96    0.10 
  12  -4   5    1.53    0.16 
  12  -5   5    0.79    0.13 
  12  -5   5    0.50    0.10 
  12  -6   5    0.62    0.12 
  12  -6   5    0.44    0.09 
  12  -7   5    1.74    0.16 
  12  -7   5    1.33    0.17 
  12  -8   5    0.06    0.09 
  12  -8   5   -0.07    0.08 
  12  -9   5    0.09    0.09 
  12  -9   5    0.10    0.09 
  12 -10   5    0.14    0.10 
  12 -10   5    0.06    0.10 
  12 -11   5    0.02    0.10 
  12 -11   5    0.10    0.10 
  12 -12   5    0.01    0.11 
  12 -12   5    0.15    0.11 
  12 -13   5    0.48    0.15 
  12 -13   5    0.40    0.13 
  12 -14   5    0.05    0.12 
  12 -14   5   -0.01    0.12 
  12 -15   5    0.18    0.13 
  12 -15   5    0.04    0.15 
  12 -16   5    0.03    0.12 
  12 -16   5    0.07    0.16 
 -11 -16  -5    0.20    0.15 
 -11 -15  -5    0.72    0.17 
 -11 -14  -5    0.00    0.12 
  11  13   5    0.21    0.13 
 -11 -13  -5    0.05    0.12 
  11  12   5    0.15    0.10 
 -11 -12  -5    0.24    0.12 
  11  11   5    0.22    0.11 
 -11 -11  -5    0.05    0.09 
  11  10   5    0.17    0.09 
 -11 -10  -5    0.26    0.10 
  11   9   5    0.44    0.12 
 -11  -9  -5    0.39    0.11 
  11   8   5    0.12    0.09 
 -11  -8  -5    0.06    0.09 
  11   7   5    0.04    0.08 
 -11  -7  -5    0.16    0.09 
  11   6   5    0.88    0.13 
 -11  -6  -5    0.87    0.13 
  11   5   5    0.80    0.12 
 -11  -5  -5    0.55    0.11 
  11   4   5    0.36    0.09 
 -11  -4  -5    0.50    0.11 
  11   3   5    0.83    0.12 
 -11  -3  -5    0.84    0.12 
  11   2   5    3.75    0.23 
 -11  -2  -5    3.97    0.24 
  11   1   5    0.32    0.09 
 -11  -1  -5    0.23    0.08 
  11   0   5    0.08    0.06 
  11  -1   5    0.22    0.05 
  11  -1   5    0.15    0.08 
  11  -2   5    4.04    0.25 
  11  -2   5    4.30    0.20 
  11  -3   5    0.97    0.09 
  11  -3   5    0.68    0.12 
  11  -4   5    0.66    0.12 
  11  -5   5    0.67    0.09 
  11  -5   5    0.63    0.12 
  11  -6   5    0.83    0.13 
  11  -7   5   -0.05    0.07 
  11  -8   5    0.18    0.10 
  11  -8   5    0.27    0.10 
  11  -9   5    0.29    0.11 
  11  -9   5    0.55    0.12 
  11 -10   5    0.25    0.11 
  11 -10   5    0.09    0.10 
  11 -11   5   -0.04    0.09 
  11 -11   5   -0.02    0.09 
  11 -12   5    0.38    0.12 
  11 -12   5    0.20    0.12 
  11 -13   5   -0.01    0.10 
  11 -13   5   -0.10    0.10 
  11 -14   5    0.01    0.12 
  11 -14   5    0.17    0.12 
  11 -15   5    0.72    0.18 
  11 -15   5    0.39    0.15 
  11 -16   5    0.12    0.12 
  11 -16   5    0.31    0.16 
 -10 -17  -5    0.02    0.15 
 -10 -16  -5   -0.02    0.14 
 -10 -15  -5    0.20    0.14 
 -10 -14  -5   -0.01    0.11 
  10  13   5   -0.04    0.11 
 -10 -13  -5   -0.12    0.08 
  10  12   5    0.16    0.10 
 -10 -12  -5    0.02    0.09 
  10  11   5    0.13    0.10 
 -10 -11  -5    0.14    0.09 
  10  10   5   -0.04    0.08 
 -10 -10  -5    0.15    0.09 
  10   9   5    0.47    0.11 
 -10  -9  -5    0.48    0.11 
  10   8   5    0.06    0.07 
 -10  -8  -5   -0.09    0.08 
  10   7   5    0.55    0.11 
 -10  -7  -5    0.39    0.10 
  10   6   5    0.11    0.07 
 -10  -6  -5    0.07    0.07 
  10   5   5    0.28    0.08 
 -10  -5  -5    0.31    0.09 
  10   4   5    0.14    0.07 
 -10  -4  -5    0.24    0.08 
  10   3   5    0.96    0.12 
 -10  -3  -5    0.92    0.12 
  10   2   5    1.74    0.14 
 -10  -2  -5    1.68    0.15 
  10   1   5    2.44    0.16 
 -10  -1  -5    2.29    0.17 
  10   0   5    0.06    0.06 
  10   0   5    0.00    0.03 
 -10   0  -5    0.07    0.06 
  10  -1   5    2.24    0.16 
  10  -1   5    2.34    0.12 
  10  -2   5    1.56    0.14 
  10  -3   5    0.91    0.12 
  10  -4   5    0.17    0.08 
  10  -5   5    0.21    0.08 
  10  -6   5    0.09    0.08 
  10  -7   5    0.46    0.11 
  10  -8   5    0.07    0.09 
  10  -9   5    0.43    0.12 
  10 -10   5    0.01    0.09 
  10 -11   5    0.30    0.11 
  10 -12   5    0.00    0.10 
  10 -12   5   -0.01    0.09 
  10 -13   5   -0.01    0.10 
  10 -13   5   -0.03    0.10 
  10 -14   5    0.09    0.11 
  10 -14   5    0.01    0.11 
  10 -15   5    0.28    0.14 
  10 -15   5    0.13    0.11 
  10 -16   5    0.14    0.11 
  10 -16   5    0.04    0.13 
  10 -17   5    0.06    0.12 
  -9 -17  -5   -0.02    0.14 
  -9 -16  -5   -0.19    0.10 
  -9 -15  -5   -0.02    0.11 
  -9 -14  -5    0.07    0.10 
   9  13   5    1.30    0.18 
  -9 -13  -5    0.97    0.16 
   9  12   5    0.01    0.09 
  -9 -12  -5   -0.12    0.08 
   9  11   5    0.18    0.10 
  -9 -11  -5    0.25    0.11 
   9  10   5    0.63    0.12 
  -9 -10  -5    0.75    0.14 
   9   9   5    6.86    0.36 
  -9  -9  -5    7.29    0.38 
   9   8   5   -0.11    0.05 
  -9  -8  -5   -0.07    0.06 
   9   7   5    2.95    0.20 
  -9  -7  -5    2.93    0.20 
   9   6   5    0.55    0.09 
  -9  -6  -5    0.52    0.10 
   9   5   5    1.17    0.12 
  -9  -5  -5    1.19    0.13 
   9   4   5    0.41    0.08 
  -9  -4  -5    0.38    0.08 
   9   3   5    0.47    0.08 
  -9  -3  -5    0.49    0.09 
   9   2   5   12.59    0.53 
  -9  -2  -5   12.66    0.54 
   9   1   5    1.36    0.07 
   9   1   5    1.69    0.13 
  -9  -1  -5    1.52    0.14 
   9   0   5   -0.02    0.04 
  -9   0  -5   -0.03    0.05 
   9  -1   5    1.43    0.13 
   9  -2   5   12.12    0.52 
   9  -3   5    0.39    0.09 
   9  -4   5    0.47    0.09 
   9  -5   5    1.23    0.13 
   9  -6   5    0.82    0.12 
   9  -7   5    3.07    0.20 
   9  -8   5   -0.03    0.07 
   9  -9   5    6.68    0.35 
   9 -10   5    0.75    0.13 
   9 -11   5    0.16    0.10 
   9 -12   5    0.19    0.10 
   9 -13   5    1.01    0.16 
   9 -14   5   -0.06    0.10 
   9 -14   5    0.02    0.10 
   9 -15   5   -0.04    0.11 
   9 -15   5    0.01    0.11 
   9 -16   5    0.02    0.13 
   9 -16   5    0.02    0.11 
   9 -17   5    0.07    0.15 
   9 -17   5    0.06    0.11 
  -8 -18  -5   -0.24    0.13 
  -8 -17  -5   -0.03    0.13 
  -8 -16  -5    0.02    0.12 
  -8 -15  -5   -0.07    0.11 
  -8 -14  -5    0.01    0.11 
   8  13   5   -0.06    0.09 
  -8 -13  -5    0.13    0.10 
   8  12   5    0.30    0.11 
  -8 -12  -5    0.14    0.09 
   8  11   5    0.42    0.11 
  -8 -11  -5    0.36    0.11 
   8  10   5    0.39    0.09 
  -8 -10  -5    0.36    0.11 
   8   9   5    0.61    0.10 
  -8  -9  -5    0.41    0.11 
   8   8   5    0.04    0.05 
  -8  -8  -5   -0.09    0.06 
   8   7   5    0.72    0.10 
  -8  -7  -5    0.69    0.11 
   8   6   5    0.06    0.05 
  -8  -6  -5    0.00    0.06 
   8   5   5    0.51    0.08 
  -8  -5  -5    0.43    0.08 
   8   4   5    2.77    0.17 
  -8  -4  -5    2.68    0.17 
   8   3   5    0.98    0.10 
  -8  -3  -5    1.08    0.11 
   8   2   5    1.47    0.12 
  -8  -2  -5    1.44    0.13 
   8   1   5    1.12    0.11 
  -8  -1  -5    0.83    0.10 
   8   0   5    0.00    0.04 
  -8   0  -5   -0.02    0.04 
   8  -1   5    1.27    0.11 
  -8   1  -5    1.03    0.11 
   8  -2   5    1.39    0.12 
   8  -3   5    1.07    0.11 
   8  -4   5    2.86    0.18 
   8  -5   5    0.52    0.09 
   8  -6   5   -0.06    0.05 
   8  -7   5    0.62    0.11 
   8  -8   5    0.06    0.07 
   8  -9   5    0.43    0.10 
   8 -10   5    0.45    0.12 
   8 -11   5    0.37    0.11 
   8 -12   5    0.34    0.12 
   8 -13   5    0.02    0.09 
   8 -14   5    0.06    0.10 
   8 -15   5    0.00    0.11 
   8 -16   5   -0.08    0.12 
   8 -16   5    0.11    0.10 
   8 -17   5    0.01    0.14 
   8 -17   5    0.00    0.11 
   8 -18   5   -0.09    0.10 
  -7 -18  -5   -0.04    0.15 
  -7 -17  -5    0.14    0.14 
  -7 -16  -5    0.04    0.13 
  -7 -15  -5    0.07    0.11 
  -7 -14  -5    0.24    0.12 
   7  13   5    1.70    0.18 
  -7 -13  -5    1.52    0.19 
   7  12   5    0.46    0.11 
  -7 -12  -5    0.55    0.13 
   7  11   5    1.33    0.14 
  -7 -11  -5    1.41    0.16 
   7  10   5    0.37    0.09 
  -7 -10  -5    0.51    0.12 
   7   9   5    0.91    0.12 
  -7  -9  -5    1.11    0.14 
   7   8   5    1.20    0.12 
  -7  -8  -5    0.93    0.12 
  -7  -8  -5    1.26    0.08 
   7   7   5    1.41    0.13 
  -7  -7  -5    1.24    0.08 
  -7  -7  -5    1.54    0.14 
   7   6   5    3.80    0.21 
  -7  -6  -5    3.95    0.15 
  -7  -6  -5    3.53    0.21 
   7   5   5    6.34    0.30 
  -7  -5  -5    6.43    0.31 
   7   4   5    1.37    0.10 
  -7  -4  -5    1.23    0.12 
   7   3   5    0.60    0.08 
  -7  -3  -5    0.70    0.09 
   7   2   5    2.19    0.14 
  -7  -2  -5    2.22    0.15 
   7   1   5    1.33    0.10 
  -7  -1  -5    1.38    0.11 
   7   0   5    0.04    0.04 
  -7   0  -5   -0.01    0.04 
   7  -1   5    1.25    0.11 
  -7   1  -5    1.34    0.11 
   7  -2   5    2.20    0.14 
   7  -3   5    0.66    0.09 
   7  -4   5    1.32    0.12 
   7  -5   5    6.66    0.32 
   7  -6   5    3.51    0.20 
   7  -7   5    1.56    0.15 
   7  -8   5    1.09    0.13 
   7  -9   5    0.90    0.13 
   7 -10   5    0.24    0.10 
   7 -11   5    1.45    0.16 
   7 -12   5    0.58    0.13 
   7 -13   5    1.55    0.18 
   7 -14   5    0.17    0.10 
   7 -15   5   -0.02    0.10 
   7 -16   5    0.07    0.12 
   7 -17   5    0.11    0.13 
   7 -17   5   -0.04    0.10 
   7 -18   5    0.06    0.12 
  -6 -19  -5    0.16    0.17 
  -6 -18  -5    0.07    0.14 
  -6 -17  -5    0.02    0.12 
  -6 -16  -5    0.20    0.13 
  -6 -15  -5    0.01    0.10 
  -6 -14  -5   -0.15    0.09 
  -6 -13  -5    0.09    0.09 
   6  12   5    0.05    0.05 
  -6 -12  -5    0.20    0.09 
   6  11   5    2.57    0.18 
  -6 -11  -5    3.00    0.22 
  -6 -11  -5    2.46    0.15 
   6  10   5    1.08    0.12 
  -6 -10  -5    1.18    0.10 
  -6 -10  -5    1.14    0.14 
   6   9   5    0.13    0.06 
  -6  -9  -5    0.00    0.04 
  -6  -9  -5    0.00    0.07 
   6   8   5    0.17    0.06 
  -6  -8  -5    0.14    0.04 
  -6  -8  -5    0.16    0.07 
   6   7   5    0.18    0.05 
  -6  -7  -5    0.13    0.04 
  -6  -7  -5    0.08    0.05 
   6   6   5    0.01    0.03 
  -6  -6  -5    0.03    0.05 
  -6  -6  -5   -0.01    0.02 
   6   5   5    2.78    0.16 
  -6  -5  -5    2.99    0.12 
  -6  -5  -5    2.75    0.17 
   6   4   5    8.26    0.34 
  -6  -4  -5    7.26    0.35 
  -6  -4  -5    7.97    0.29 
   6   3   5    7.17    0.31 
  -6  -3  -5    7.43    0.32 
  -6  -3  -5    6.84    0.26 
   6   2   5    9.84    0.39 
  -6  -2  -5    9.22    0.34 
  -6  -2  -5    9.33    0.40 
   6   1   5    0.24    0.05 
  -6  -1  -5    0.37    0.06 
   6   0   5   -0.01    0.03 
  -6   0  -5    0.02    0.04 
   6  -1   5    0.37    0.06 
  -6   1  -5    0.73    0.08 
   6  -2   5    9.57    0.40 
   6  -3   5    7.29    0.33 
   6  -4   5    8.14    0.36 
   6  -5   5    3.16    0.18 
   6  -6   5    0.05    0.05 
   6  -7   5    0.18    0.07 
   6  -8   5    0.22    0.07 
   6  -9   5    0.04    0.07 
   6 -10   5    1.45    0.15 
   6 -11   5    2.62    0.20 
   6 -12   5   -0.04    0.08 
   6 -13   5   -0.07    0.08 
   6 -14   5    0.05    0.09 
   6 -15   5    0.16    0.11 
   6 -16   5    0.14    0.13 
   6 -17   5   -0.05    0.11 
   6 -18   5    0.00    0.15 
   6 -19   5    0.03    0.15 
  -5 -19  -5    0.19    0.16 
  -5 -18  -5    0.06    0.14 
  -5 -17  -5    0.05    0.11 
  -5 -16  -5    1.14    0.19 
  -5 -15  -5    0.09    0.11 
  -5 -14  -5    0.05    0.10 
  -5 -13  -5    1.93    0.19 
  -5 -13  -5    1.87    0.14 
   5  12   5    3.07    0.20 
  -5 -12  -5    3.10    0.18 
  -5 -12  -5    2.93    0.22 
   5  11   5    0.62    0.10 
  -5 -11  -5    0.71    0.13 
  -5 -11  -5    0.86    0.09 
   5  10   5    0.04    0.04 
  -5 -10  -5   -0.01    0.07 
  -5 -10  -5    0.09    0.05 
  -5  -9  -5    5.82    0.25 
  -5  -9  -5    5.63    0.30 
   5   8   5    0.01    0.03 
  -5  -8  -5    0.12    0.04 
  -5  -8  -5    0.11    0.06 
   5   7   5    2.98    0.17 
  -5  -7  -5    3.11    0.19 
  -5  -7  -5    3.20    0.15 
   5   6   5    0.24    0.05 
  -5  -6  -5    0.23    0.04 
  -5  -6  -5    0.27    0.06 
   5   5   5   13.05    0.52 
  -5  -5  -5   13.21    0.47 
  -5  -5  -5   12.53    0.54 
   5   4   5    0.24    0.05 
  -5  -4  -5    0.25    0.06 
  -5  -4  -5    0.19    0.03 
   5   3   5    2.12    0.12 
  -5  -3  -5    2.24    0.13 
  -5  -3  -5    2.12    0.09 
   5   2   5   13.50    0.52 
  -5  -2  -5   12.85    0.53 
  -5  -2  -5   13.19    0.48 
   5   1   5   30.27    1.11 
  -5  -1  -5   29.22    1.13 
  -5  -1  -5   29.75    1.06 
   5   0   5   -0.01    0.03 
  -5   0  -5    0.00    0.03 
   5  -1   5   28.37    1.06 
  -5   1  -5   28.40    1.08 
   5  -2   5   13.62    0.54 
   5  -3   5    1.84    0.12 
   5  -4   5    0.22    0.05 
   5  -5   5   13.52    0.55 
   5  -6   5    0.16    0.06 
   5  -7   5    2.73    0.17 
   5  -8   5    0.03    0.06 
   5  -9   5    6.03    0.30 
   5 -10   5    0.20    0.08 
   5 -11   5    0.83    0.13 
   5 -12   5    3.24    0.23 
   5 -13   5    1.92    0.19 
   5 -14   5    0.10    0.09 
   5 -15   5    0.44    0.13 
   5 -16   5    1.13    0.18 
   5 -17   5   -0.05    0.12 
   5 -18   5   -0.22    0.12 
   5 -19   5    0.27    0.16 
  -4 -19  -5    0.00    0.16 
  -4 -18  -5    0.22    0.15 
  -4 -17  -5    0.31    0.14 
  -4 -16  -5    0.30    0.12 
  -4 -15  -5    0.15    0.11 
  -4 -15  -5    0.15    0.08 
  -4 -14  -5   -0.07    0.06 
  -4 -14  -5   -0.01    0.08 
  -4 -13  -5    0.07    0.06 
  -4 -13  -5   -0.03    0.08 
   4  12   5    1.69    0.15 
  -4 -12  -5    1.74    0.18 
  -4 -12  -5    1.72    0.13 
   4  11   5    0.46    0.08 
  -4 -11  -5    0.62    0.08 
  -4 -11  -5    0.45    0.11 
   4  10   5    0.77    0.09 
  -4 -10  -5    0.54    0.11 
  -4 -10  -5    0.69    0.08 
   4   9   5    2.64    0.16 
  -4  -9  -5    2.71    0.19 
  -4  -9  -5    2.46    0.14 
   4   8   5    0.02    0.04 
  -4  -8  -5    0.04    0.05 
  -4  -8  -5    0.06    0.04 
   4   7   5    0.38    0.06 
  -4  -7  -5    0.42    0.08 
  -4  -7  -5    0.44    0.05 
   4   6   5    0.23    0.05 
  -4  -6  -5    0.54    0.05 
  -4  -6  -5    0.45    0.08 
  -4  -5  -5    6.48    0.25 
  -4  -5  -5    6.30    0.30 
   4   4   5    0.55    0.06 
  -4  -4  -5    0.54    0.07 
  -4  -4  -5    0.62    0.05 
   4   3   5    6.88    0.29 
  -4  -3  -5    6.62    0.30 
  -4  -3  -5    7.15    0.26 
   4   2   5    0.18    0.04 
  -4  -2  -5    0.20    0.04 
  -4  -2  -5    0.16    0.03 
   4   1   5    8.03    0.33 
  -4  -1  -5    8.20    0.34 
  -4  -1  -5    8.31    0.31 
   4   0   5    0.00    0.03 
  -4   0  -5    0.01    0.03 
  -4   0  -5    0.00    0.02 
   4  -1   5    8.15    0.34 
  -4   1  -5    8.29    0.34 
  -4   1  -5    7.93    0.32 
   4  -2   5    0.20    0.05 
   4  -3   5    6.93    0.30 
   4  -4   5    0.49    0.07 
   4  -5   5    6.31    0.29 
   4  -6   5    0.47    0.08 
   4  -7   5    0.43    0.08 
   4  -8   5    0.10    0.05 
   4  -9   5    2.41    0.16 
   4 -10   5    0.54    0.10 
   4 -11   5    0.43    0.10 
   4 -12   5    1.53    0.16 
   4 -13   5    0.04    0.08 
   4 -14   5    0.03    0.09 
   4 -15   5    0.13    0.11 
   4 -16   5   -0.03    0.11 
   4 -17   5    0.18    0.13 
   4 -18   5   -0.08    0.13 
   4 -19   5    0.01    0.14 
  -3 -19  -5    0.59    0.19 
  -3 -17  -5    0.29    0.11 
  -3 -16  -5    0.42    0.11 
  -3 -15  -5    0.34    0.10 
  -3 -14  -5   -0.08    0.06 
  -3 -13  -5    0.61    0.10 
   3  12   5    0.10    0.06 
  -3 -12  -5    0.12    0.06 
   3  11   5    0.09    0.05 
  -3 -11  -5    0.04    0.04 
   3  10   5    0.95    0.10 
  -3 -10  -5    0.81    0.09 
   3   9   5    7.63    0.33 
  -3  -9  -5    7.55    0.32 
   3   8   5    0.13    0.04 
  -3  -8  -5    0.15    0.04 
   3   7   5    8.00    0.33 
  -3  -7  -5    7.87    0.32 
  -3  -7  -5    7.98    0.37 
   3   6   5    2.77    0.14 
  -3  -6  -5    2.54    0.16 
  -3  -6  -5    2.78    0.13 
   3   5   5    0.75    0.06 
  -3  -5  -5    0.65    0.08 
  -3  -5  -5    0.74    0.06 
   3   4   5   13.23    0.51 
  -3  -4  -5   12.81    0.54 
  -3  -4  -5   13.96    0.49 
  -3  -3  -5    1.80    0.08 
  -3  -3  -5    1.61    0.10 
   3   2   5    7.70    0.31 
  -3  -2  -5    8.17    0.30 
  -3  -2  -5    7.68    0.33 
   3   1   5    4.09    0.18 
  -3  -1  -5    4.08    0.17 
  -3  -1  -5    4.34    0.19 
   3   0   5   -0.03    0.02 
  -3   0  -5   -0.02    0.02 
  -3   0  -5    0.03    0.02 
   3  -1   5    4.31    0.19 
  -3   1  -5    3.99    0.18 
  -3   1  -5    4.49    0.19 
   3  -2   5    8.28    0.33 
  -3   2  -5    7.85    0.32 
   3  -3   5    1.64    0.10 
   3  -4   5   13.96    0.55 
   3  -5   5    0.55    0.07 
   3  -6   5    2.63    0.16 
   3  -7   5    7.66    0.35 
   3  -8   5    0.12    0.05 
   3  -9   5    7.40    0.35 
   3 -10   5    1.02    0.12 
   3 -11   5    0.16    0.08 
   3 -12   5    0.06    0.07 
   3 -13   5    0.50    0.12 
   3 -14   5    0.17    0.10 
   3 -15   5    0.22    0.11 
   3 -16   5    0.50    0.15 
   3 -17   5    0.23    0.13 
   3 -18   5    0.04    0.13 
  -2 -18  -5   -0.14    0.09 
  -2 -17  -5    0.55    0.13 
  -2 -16  -5    0.16    0.09 
  -2 -15  -5    0.11    0.09 
  -2 -14  -5    0.16    0.08 
  -2 -13  -5    0.30    0.08 
  -2 -12  -5    0.29    0.08 
   2  11   5    1.28    0.11 
  -2 -11  -5    1.03    0.11 
   2  10   5    0.29    0.06 
  -2 -10  -5    0.23    0.06 
   2   9   5    1.75    0.11 
  -2  -9  -5    1.59    0.12 
   2   8   5    0.86    0.07 
  -2  -8  -5    0.83    0.08 
   2   7   5    0.38    0.05 
  -2  -7  -5    0.29    0.05 
   2   6   5    7.91    0.31 
  -2  -6  -5    7.73    0.31 
   2   5   5    2.77    0.12 
  -2  -5  -5    2.42    0.13 
  -2  -5  -5    2.60    0.15 
   2   4   5   18.35    0.67 
  -2  -4  -5   18.11    0.66 
  -2  -4  -5   17.62    0.71 
   2   3   5    0.23    0.03 
  -2  -3  -5    0.25    0.03 
  -2  -3  -5    0.32    0.05 
   2   2   5    0.56    0.05 
  -2  -2  -5    0.76    0.05 
  -2  -2  -5    0.71    0.06 
   2   1   5   10.05    0.41 
  -2  -1  -5   11.22    0.43 
  -2  -1  -5   11.49    0.40 
   2   0   5    0.00    0.02 
  -2   0  -5    0.00    0.02 
  -2   0  -5   -0.03    0.02 
   2  -1   5   11.91    0.46 
  -2   1  -5   11.65    0.44 
  -2   1  -5   11.93    0.46 
   2  -2   5    0.77    0.07 
  -2   2  -5    0.74    0.06 
  -2   2  -5    0.71    0.06 
   2  -3   5    0.25    0.05 
  -2   3  -5    0.25    0.05 
   2  -4   5   17.20    0.67 
   2  -5   5    2.55    0.15 
   2  -6   5    7.76    0.34 
   2  -7   5    0.25    0.06 
   2  -8   5    0.71    0.10 
   2  -9   5    1.62    0.14 
   2 -10   5    0.28    0.07 
   2 -11   5    1.16    0.14 
   2 -12   5    0.62    0.12 
   2 -13   5    0.42    0.11 
   2 -14   5    0.12    0.09 
   2 -15   5    0.20    0.11 
   2 -16   5   -0.12    0.09 
   2 -17   5    0.60    0.16 
   2 -18   5    0.02    0.14 
  -1 -19  -5    0.69    0.16 
  -1 -18  -5   -0.05    0.10 
  -1 -17  -5    0.78    0.14 
  -1 -16  -5    0.01    0.08 
  -1 -15  -5    2.36    0.20 
  -1 -14  -5    0.30    0.09 
  -1 -13  -5    0.12    0.07 
  -1 -12  -5   -0.02    0.06 
  -1 -11  -5    0.96    0.11 
  -1 -11  -5    1.19    0.10 
   1  10   5    0.27    0.05 
  -1 -10  -5    0.31    0.07 
   1   9   5    1.06    0.08 
  -1  -9  -5    0.90    0.09 
   1   8   5    0.01    0.02 
  -1  -8  -5   -0.04    0.03 
   1   7   5    0.19    0.03 
  -1  -7  -5    0.24    0.05 
   1   6   5    0.11    0.03 
  -1  -6  -5    0.11    0.04 
   1   5   5    9.33    0.35 
  -1  -5  -5    9.13    0.36 
   1   4   5    3.77    0.15 
  -1  -4  -5    3.78    0.17 
   1   3   5   13.32    0.49 
  -1  -3  -5   13.27    0.49 
  -1  -3  -5   13.39    0.53 
   1   2   5   68.46    2.41 
  -1  -2  -5   66.25    2.46 
  -1  -2  -5   66.43    2.35 
  -1  -1  -5   42.64    1.50 
  -1  -1  -5   42.24    1.57 
   1   0   5    0.02    0.02 
  -1   0  -5    0.03    0.02 
  -1   0  -5    0.01    0.02 
   1  -1   5   43.75    1.60 
  -1   1  -5   44.65    1.57 
   1  -2   5   66.90    2.38 
  -1   2  -5   64.69    2.32 
   1  -3   5   13.13    0.51 
  -1   3  -5   12.85    0.50 
   1  -4   5    3.68    0.19 
   1  -5   5    8.62    0.37 
   1  -6   5    0.09    0.05 
   1  -7   5    0.17    0.06 
   1  -8   5   -0.03    0.04 
   1  -9   5    1.30    0.13 
   1 -10   5    0.29    0.08 
   1 -11   5    1.10    0.14 
   1 -12   5    0.03    0.07 
   1 -13   5    0.25    0.10 
   1 -14   5    0.53    0.13 
   1 -15   5    2.49    0.23 
   1 -16   5    0.00    0.10 
   1 -17   5    0.99    0.19 
   1 -18   5    0.07    0.14 
   1 -19   5    1.04    0.22 
   0 -19  -5   -0.04    0.11 
   0 -18  -5    0.21    0.12 
   0 -17  -5   -0.02    0.09 
   0 -16  -5    0.03    0.08 
   0 -15  -5    0.03    0.08 
   0 -14  -5    0.98    0.14 
   0 -13  -5    0.00    0.07 
   0 -12  -5    0.03    0.06 
   0 -11  -5   -0.05    0.04 
   0 -11  -5    0.05    0.04 
   0 -10  -5   -0.07    0.04 
   0 -10  -5    0.04    0.03 
   0  -9  -5    0.01    0.03 
   0  -9  -5    0.04    0.04 
   0  -8  -5    0.44    0.07 
   0  -8  -5    0.48    0.05 
   0  -7  -5    0.04    0.04 
   0   6   5    5.64    0.22 
   0  -6  -5    5.60    0.24 
   0  -5  -5    0.03    0.03 
   0  -4  -5   39.32    1.40 
   0   3   5    0.01    0.01 
   0  -3  -5   -0.01    0.02 
   0   2   5   12.09    0.44 
   0  -2  -5   12.09    0.45 
   0   1   5    0.02    0.02 
   0  -1  -5    0.03    0.02 
   0  -1  -5    0.08    0.02 
   0   0   5   -0.03    0.02 
   0   0  -5   -0.04    0.01 
   0   0  -5   -0.02    0.02 
   0  -1   5    0.01    0.02 
   0   1  -5    0.01    0.02 
   0   1  -5    0.08    0.02 
   0  -2   5   11.82    0.47 
   0   2  -5   12.11    0.46 
   0  -3   5   -0.02    0.03 
   0   3  -5    0.04    0.03 
   0  -4   5   39.25    1.43 
   0   4  -5   37.69    1.39 
   0  -5   5    0.07    0.04 
   0  -6   5    5.42    0.26 
   0  -7   5    0.04    0.04 
   0  -8   5    0.46    0.09 
   0  -9   5   -0.04    0.04 
   0 -10   5    0.04    0.06 
   0 -11   5    0.06    0.07 
   0 -12   5   -0.07    0.07 
   0 -13   5   -0.07    0.07 
   0 -14   5    0.90    0.15 
   0 -15   5    0.02    0.09 
   0 -16   5    0.03    0.10 
   0 -17   5    0.13    0.12 
   0 -18   5    0.11    0.14 
   0 -19   5   -0.05    0.14 
   1 -19  -5    0.60    0.16 
   1 -18  -5    0.04    0.11 
   1 -17  -5    0.67    0.14 
   1 -16  -5   -0.08    0.07 
   1 -15  -5    2.42    0.20 
   1 -14  -5    0.39    0.11 
   1 -13  -5    0.20    0.09 
   1 -12  -5    0.07    0.07 
   1 -11  -5    0.91    0.11 
   1 -10  -5    0.18    0.04 
   1 -10  -5    0.21    0.06 
   1  -9  -5    1.09    0.07 
   1  -9  -5    1.15    0.11 
   1  -8  -5   -0.02    0.04 
   1  -8  -5    0.08    0.02 
   1  -7  -5    0.16    0.02 
   1  -7  -5    0.25    0.06 
   1  -6  -5    0.16    0.05 
   1  -5  -5    9.98    0.39 
   1  -4  -5    3.53    0.16 
   1  -3  -5   13.26    0.50 
  -1   2   5   66.91    2.38 
   1  -2  -5   65.79    2.33 
   1  -1  -5   42.86    1.52 
   1  -1  -5   42.78    1.55 
   1   0  -5   -0.01    0.01 
   1   0  -5   -0.02    0.02 
   1   0  -5    0.00    0.02 
   1   1  -5   42.15    1.54 
   1   1  -5   43.90    1.55 
   1   1  -5   41.00    1.50 
   1   2  -5   61.15    2.25 
   1   2  -5   63.21    2.20 
   1   3  -5   12.96    0.49 
   1   3  -5   12.86    0.51 
   1   4  -5    3.59    0.18 
   1   4  -5    3.41    0.17 
   1   5  -5    9.91    0.42 
   1   5  -5    9.79    0.40 
   1   6  -5    0.15    0.05 
   1   7  -5    0.14    0.05 
   1   8  -5    0.01    0.04 
  -1  -9   5    1.08    0.12 
  -1 -10   5    0.20    0.07 
  -1 -11   5    1.22    0.15 
  -1 -12   5    0.08    0.08 
  -1 -13   5    0.16    0.10 
  -1 -14   5    0.32    0.12 
  -1 -15   5    2.42    0.23 
  -1 -16   5    0.01    0.10 
  -1 -17   5    0.81    0.17 
  -1 -18   5   -0.06    0.12 
  -1 -19   5    0.81    0.21 
   2 -19  -5    0.23    0.14 
   2 -18  -5   -0.04    0.10 
   2 -17  -5    0.53    0.13 
   2 -16  -5   -0.15    0.08 
   2 -15  -5    0.03    0.08 
   2 -14  -5    0.10    0.08 
   2 -13  -5    0.30    0.09 
   2 -12  -5    0.30    0.09 
   2 -11  -5    1.06    0.12 
   2 -10  -5    0.36    0.08 
   2 -10  -5    0.36    0.05 
   2  -9  -5    1.49    0.13 
   2  -9  -5    1.73    0.09 
   2  -8  -5    1.12    0.10 
   2  -8  -5    0.96    0.06 
   2  -7  -5    0.27    0.06 
   2  -7  -5    0.26    0.03 
   2  -6  -5    8.09    0.34 
   2  -5  -5    2.43    0.13 
   2  -4  -5   18.95    0.70 
   2  -3  -5    0.33    0.05 
   2  -3  -5    0.30    0.03 
   2  -2  -5    0.60    0.05 
   2  -2  -5    0.55    0.04 
   2  -1  -5   11.39    0.45 
   2  -1  -5   12.38    0.45 
   2   0  -5   -0.02    0.02 
   2   0  -5   -0.01    0.02 
   2   1  -5   12.12    0.46 
   2   1  -5   11.96    0.48 
   2   1  -5   12.64    0.46 
   2   2  -5    0.54    0.05 
   2   2  -5    0.63    0.07 
   2   3  -5    0.41    0.05 
   2   3  -5    0.42    0.06 
   2   4  -5   17.94    0.70 
   2   4  -5   17.77    0.67 
   2   5  -5    2.57    0.14 
   2   5  -5    2.30    0.15 
   2   6  -5    8.31    0.37 
   2   7  -5    0.36    0.08 
   2   8  -5    0.84    0.11 
   2   9  -5    1.91    0.15 
   2  10  -5    0.37    0.09 
   2  11  -5    1.28    0.16 
  -2 -12   5    0.27    0.10 
  -2 -13   5    0.22    0.10 
  -2 -14   5    0.04    0.10 
  -2 -15   5    0.10    0.10 
  -2 -16   5    0.13    0.11 
  -2 -17   5    0.65    0.17 
  -2 -18   5   -0.05    0.13 
  -2 -19   5    0.15    0.17 
   3 -19  -5    0.41    0.15 
   3 -18  -5    0.00    0.11 
   3 -17  -5    0.19    0.12 
   3 -16  -5    0.37    0.12 
   3 -15  -5    0.40    0.11 
   3 -14  -5   -0.02    0.07 
   3 -13  -5    0.57    0.11 
   3 -12  -5   -0.04    0.06 
   3 -11  -5    0.05    0.07 
   3 -10  -5    0.93    0.11 
   3 -10  -5    0.99    0.08 
   3  -9  -5    7.99    0.35 
   3  -9  -5    7.79    0.31 
   3  -8  -5    0.12    0.05 
   3  -8  -5    0.24    0.04 
   3  -7  -5    7.92    0.30 
   3  -7  -5    8.00    0.34 
   3  -6  -5    2.49    0.15 
   3  -6  -5    2.67    0.11 
   3  -5  -5    0.39    0.06 
   3  -5  -5    0.43    0.03 
   3  -4  -5   13.72    0.52 
   3  -4  -5   13.58    0.50 
   3  -3  -5    1.37    0.09 
   3  -3  -5    1.42    0.07 
   3  -2  -5    7.92    0.32 
   3  -2  -5    7.95    0.31 
   3  -1  -5    3.86    0.17 
   3  -1  -5    3.78    0.17 
   3   0  -5    0.02    0.02 
   3   0  -5   -0.04    0.02 
   3   1  -5    3.71    0.17 
   3   1  -5    3.61    0.16 
   3   2  -5    8.06    0.32 
   3   2  -5    8.14    0.34 
   3   3  -5    1.45    0.09 
   3   3  -5    1.37    0.10 
   3   4  -5   13.05    0.53 
   3   4  -5   13.13    0.50 
   3   5  -5    0.39    0.06 
   3   5  -5    0.51    0.08 
   3   6  -5    2.57    0.16 
   3   6  -5    2.57    0.15 
   3   7  -5    7.66    0.36 
   3   8  -5    0.25    0.07 
   3   9  -5    8.51    0.41 
   3  10  -5    0.66    0.12 
   3  11  -5    0.05    0.08 
   3  12  -5    0.22    0.10 
   3  13  -5    0.45    0.13 
  -3 -14   5   -0.01    0.08 
  -3 -15   5    0.55    0.14 
  -3 -16   5    0.40    0.14 
  -3 -17   5    0.22    0.13 
  -3 -18   5    0.08    0.14 
  -3 -19   5    0.63    0.20 
   4 -19  -5    0.17    0.14 
   4 -18  -5   -0.16    0.11 
   4 -17  -5    0.26    0.12 
   4 -16  -5    0.15    0.11 
   4 -15  -5    0.21    0.10 
   4 -14  -5    0.13    0.09 
   4 -13  -5    0.01    0.08 
   4 -12  -5    1.46    0.15 
   4 -11  -5    0.52    0.10 
   4 -10  -5    0.88    0.07 
   4 -10  -5    0.63    0.10 
   4  -9  -5    2.59    0.13 
   4  -9  -5    2.53    0.17 
   4  -8  -5   -0.04    0.04 
   4  -8  -5    0.10    0.03 
   4  -7  -5    0.47    0.05 
   4  -7  -5    0.55    0.08 
   4  -6  -5    0.39    0.04 
   4  -6  -5    0.46    0.07 
   4  -5  -5    6.41    0.28 
   4  -5  -5    6.62    0.26 
   4  -4  -5    0.52    0.06 
   4  -4  -5    0.59    0.05 
   4  -3  -5    6.89    0.29 
   4  -3  -5    7.36    0.28 
   4  -2  -5    0.14    0.03 
   4  -2  -5    0.16    0.04 
   4  -1  -5    8.09    0.32 
   4  -1  -5    8.02    0.32 
   4   0  -5   -0.01    0.02 
   4   0  -5    0.04    0.02 
   4   1  -5    7.98    0.34 
   4   1  -5    8.07    0.32 
   4   2  -5    0.13    0.04 
   4   2  -5    0.16    0.03 
   4   3  -5    7.38    0.30 
   4   3  -5    7.54    0.33 
  -4  -4   5    0.46    0.03 
   4   4  -5    0.58    0.08 
   4   4  -5    0.42    0.06 
  -4  -5   5    6.38    0.25 
   4   5  -5    6.10    0.27 
   4   5  -5    6.36    0.30 
  -4  -6   5    0.39    0.04 
   4   6  -5    0.33    0.06 
   4   6  -5    0.51    0.09 
  -4  -7   5    0.50    0.05 
   4   7  -5    0.59    0.09 
   4   8  -5   -0.01    0.05 
   4   9  -5    2.33    0.18 
   4  10  -5    0.65    0.12 
   4  11  -5    0.55    0.12 
   4  12  -5    1.44    0.18 
   4  13  -5    0.06    0.10 
   4  14  -5    0.17    0.11 
  -4 -16   5   -0.04    0.12 
  -4 -17   5    0.22    0.14 
  -4 -18   5    0.06    0.14 
  -4 -19   5    0.01    0.16 
   5 -19  -5    0.17    0.14 
   5 -18  -5    0.04    0.13 
   5 -17  -5   -0.23    0.08 
   5 -16  -5    1.04    0.16 
   5 -15  -5    0.11    0.10 
   5 -14  -5    0.05    0.09 
   5 -13  -5    1.49    0.16 
   5 -12  -5    2.80    0.20 
   5 -11  -5    0.75    0.12 
   5 -10  -5    0.03    0.07 
   5  -9  -5    6.42    0.31 
   5  -9  -5    6.20    0.26 
   5  -8  -5    0.00    0.05 
   5  -8  -5    0.07    0.04 
   5  -7  -5    3.06    0.15 
   5  -7  -5    3.11    0.18 
   5  -6  -5    0.30    0.04 
   5  -6  -5    0.20    0.05 
   5  -5  -5   13.33    0.51 
   5  -5  -5   13.25    0.52 
   5  -4  -5    0.26    0.04 
   5  -4  -5    0.26    0.05 
   5  -3  -5    2.38    0.12 
   5  -3  -5    2.49    0.13 
   5  -2  -5   12.54    0.49 
   5  -2  -5   13.13    0.50 
   5  -1  -5   29.21    1.04 
   5  -1  -5   28.34    1.07 
   5   0  -5   -0.01    0.03 
   5   0  -5    0.01    0.02 
   5   1  -5   27.56    1.04 
   5   1  -5   27.87    1.00 
   5   2  -5   13.00    0.52 
   5   2  -5   12.79    0.49 
   5   3  -5    2.27    0.12 
   5   3  -5    2.24    0.14 
  -5  -4   5    0.22    0.03 
   5   4  -5    0.29    0.07 
   5   4  -5    0.25    0.05 
  -5  -5   5   12.96    0.49 
   5   5  -5   13.40    0.51 
   5   5  -5   12.46    0.54 
  -5  -6   5    0.34    0.04 
   5   6  -5    0.45    0.07 
   5   6  -5    0.27    0.07 
  -5  -7   5    3.13    0.14 
   5   7  -5    2.55    0.18 
  -5  -8   5    0.11    0.04 
   5   8  -5    0.07    0.06 
  -5  -9   5    5.93    0.26 
   5   9  -5    5.34    0.31 
  -5 -10   5    0.00    0.05 
   5  10  -5    0.06    0.08 
  -5 -11   5    0.77    0.09 
   5  11  -5    0.60    0.14 
   5  12  -5    2.62    0.24 
   5  13  -5    2.03    0.22 
   5  14  -5    0.27    0.12 
   5  15  -5    0.29    0.14 
   5  16  -5    1.18    0.21 
  -5 -17   5    0.06    0.13 
  -5 -18   5    0.08    0.15 
  -5 -19   5    0.21    0.18 
   6 -19  -5    0.06    0.14 
   6 -18  -5    0.27    0.14 
   6 -17  -5    0.07    0.12 
   6 -16  -5    0.05    0.10 
   6 -15  -5   -0.15    0.08 
   6 -14  -5    0.04    0.09 
   6 -13  -5   -0.11    0.07 
   6 -12  -5    0.15    0.08 
   6 -11  -5    2.45    0.19 
   6 -10  -5    0.81    0.12 
   6  -9  -5    0.09    0.05 
   6  -9  -5   -0.05    0.06 
   6  -8  -5    0.26    0.07 
   6  -8  -5    0.23    0.05 
   6  -7  -5    0.10    0.05 
   6  -7  -5    0.10    0.04 
   6  -6  -5   -0.04    0.03 
   6  -6  -5    0.07    0.04 
   6  -5  -5    2.83    0.16 
   6  -5  -5    2.87    0.14 
   6  -4  -5    8.47    0.35 
   6  -4  -5    8.01    0.34 
   6  -3  -5    6.45    0.28 
   6  -3  -5    6.83    0.28 
   6  -2  -5    9.19    0.37 
   6  -2  -5    8.63    0.36 
   6  -1  -5    0.35    0.05 
   6  -1  -5    0.37    0.06 
   6   0  -5    0.02    0.04 
   6   0  -5    0.04    0.03 
   6   1  -5    0.26    0.04 
   6   1  -5    0.27    0.06 
   6   2  -5    9.01    0.39 
   6   2  -5    8.92    0.35 
   6   3  -5    6.49    0.31 
   6   3  -5    6.56    0.27 
  -6  -4   5    8.34    0.33 
   6   4  -5    7.74    0.37 
   6   4  -5    8.57    0.34 
  -6  -5   5    2.72    0.13 
   6   5  -5    2.96    0.15 
   6   5  -5    2.66    0.18 
  -6  -6   5    0.06    0.03 
   6   6  -5    0.04    0.04 
   6   6  -5    0.00    0.04 
  -6  -7   5    0.15    0.04 
   6   7  -5    0.04    0.05 
   6   7  -5    0.14    0.05 
  -6  -8   5    0.31    0.05 
   6   8  -5    0.17    0.07 
  -6  -9   5   -0.05    0.04 
   6   9  -5    0.06    0.08 
  -6 -10   5    1.01    0.10 
   6  10  -5    0.83    0.14 
   6  11  -5    2.43    0.22 
   6  12  -5    0.03    0.10 
   6  13  -5    0.15    0.11 
   6  14  -5   -0.05    0.09 
   6  15  -5   -0.01    0.12 
   6  16  -5    0.21    0.14 
   6  17  -5   -0.12    0.12 
  -6 -18   5    0.01    0.14 
  -6 -19   5   -0.01    0.16 
   7 -18  -5    0.17    0.14 
   7 -17  -5    0.15    0.13 
   7 -16  -5    0.10    0.11 
   7 -15  -5    0.26    0.12 
   7 -14  -5    0.27    0.11 
   7 -13  -5    1.41    0.17 
   7 -12  -5    0.58    0.12 
   7 -11  -5    1.19    0.14 
   7 -10  -5    0.31    0.09 
   7  -9  -5    0.75    0.11 
   7  -9  -5    0.70    0.08 
   7  -8  -5    1.16    0.12 
   7  -8  -5    1.10    0.10 
   7  -7  -5    1.75    0.11 
   7  -7  -5    1.52    0.13 
   7  -6  -5    3.85    0.21 
   7  -6  -5    4.02    0.19 
   7  -5  -5    6.49    0.29 
   7  -5  -5    6.25    0.28 
   7  -4  -5    1.48    0.11 
   7  -4  -5    1.51    0.10 
   7  -3  -5    0.77    0.08 
   7  -3  -5    0.91    0.08 
   7  -2  -5    1.90    0.12 
   7  -2  -5    2.16    0.13 
   7  -1  -5    1.54    0.11 
   7  -1  -5    1.40    0.10 
   7   0  -5    0.04    0.04 
   7   0  -5   -0.01    0.03 
   7   1  -5    1.29    0.09 
   7   1  -5    1.38    0.11 
   7   2  -5    2.00    0.11 
   7   2  -5    2.21    0.15 
   7   3  -5    0.84    0.10 
   7   3  -5    0.77    0.07 
   7   4  -5    1.45    0.10 
   7   4  -5    1.28    0.13 
  -7  -5   5    6.51    0.27 
   7   5  -5    5.94    0.32 
   7   5  -5    6.95    0.29 
  -7  -6   5    3.84    0.18 
   7   6  -5    3.57    0.23 
   7   6  -5    3.90    0.19 
  -7  -7   5    1.48    0.10 
   7   7  -5    1.54    0.16 
   7   7  -5    1.55    0.12 
  -7  -8   5    1.17    0.09 
   7   8  -5    1.24    0.15 
  -7  -9   5    0.82    0.08 
   7   9  -5    0.77    0.14 
   7  10  -5    0.56    0.13 
   7  11  -5    1.17    0.17 
   7  12  -5    0.54    0.13 
   7  13  -5    1.67    0.21 
   7  14  -5    0.17    0.12 
   7  15  -5    0.16    0.12 
   7  16  -5    0.17    0.14 
   7  17  -5    0.10    0.15 
   7  18  -5    0.11    0.15 
   8 -18  -5    0.43    0.15 
   8 -17  -5    0.07    0.13 
   8 -16  -5   -0.01    0.11 
   8 -15  -5    0.08    0.11 
   8 -14  -5    0.10    0.10 
   8 -13  -5    0.01    0.08 
   8 -12  -5    0.10    0.09 
   8 -11  -5    0.40    0.11 
   8 -10  -5    0.22    0.10 
   8  -9  -5    0.57    0.08 
   8  -9  -5    0.32    0.09 
   8  -8  -5   -0.01    0.06 
   8  -8  -5   -0.05    0.05 
   8  -7  -5    0.69    0.08 
   8  -7  -5    0.58    0.10 
   8  -6  -5   -0.04    0.05 
   8  -6  -5    0.07    0.05 
   8  -5  -5    0.55    0.08 
   8  -5  -5    0.50    0.07 
   8  -4  -5    2.57    0.15 
   8  -4  -5    2.47    0.15 
   8  -3  -5    0.79    0.08 
   8  -3  -5    0.76    0.09 
   8  -2  -5    1.16    0.10 
   8  -2  -5    1.33    0.11 
   8  -1  -5    0.81    0.08 
   8  -1  -5    0.95    0.10 
   8   0  -5   -0.01    0.04 
   8   0  -5   -0.01    0.04 
   8   1  -5    0.82    0.10 
   8   1  -5    0.91    0.08 
   8   2  -5    1.30    0.12 
   8   2  -5    1.17    0.09 
   8   3  -5    0.59    0.07 
   8   3  -5    0.76    0.11 
   8   4  -5    1.46    0.10 
  -8  -5   5    0.49    0.06 
   8   5  -5    0.38    0.08 
  -8  -6   5    0.08    0.04 
   8   6  -5    0.03    0.06 
   8   6  -5    0.00    0.02 
  -8  -7   5    0.70    0.07 
   8   7  -5    0.48    0.11 
  -8  -8   5    0.04    0.04 
   8   8  -5    0.07    0.07 
   8   9  -5    0.16    0.09 
   8  10  -5    0.23    0.10 
   8  11  -5    0.63    0.14 
   8  12  -5    0.19    0.11 
   8  13  -5    0.19    0.11 
   8  14  -5    0.02    0.11 
   8  15  -5    0.12    0.12 
   8  16  -5    0.00    0.12 
   8  17  -5    0.03    0.13 
   8  18  -5    0.36    0.17 
   9 -17  -5    0.00    0.13 
   9 -16  -5   -0.05    0.09 
   9 -15  -5   -0.13    0.09 
   9 -14  -5    0.16    0.11 
   9 -13  -5    1.09    0.16 
   9 -12  -5   -0.02    0.08 
   9 -11  -5    0.43    0.11 
   9 -10  -5    0.66    0.12 
   9  -9  -5    6.55    0.33 
   9  -9  -5    6.11    0.30 
   9  -8  -5    0.02    0.06 
   9  -8  -5    0.06    0.07 
   9  -7  -5    3.24    0.20 
   9  -7  -5    3.44    0.19 
   9  -6  -5    0.58    0.09 
   9  -6  -5    0.56    0.09 
   9  -5  -5    1.40    0.12 
   9  -5  -5    1.25    0.12 
   9  -4  -5    0.39    0.07 
   9  -4  -5    0.41    0.08 
   9  -3  -5    0.75    0.10 
   9  -3  -5    0.67    0.08 
   9  -2  -5   12.76    0.53 
   9  -2  -5   12.63    0.50 
   9  -1  -5    1.80    0.11 
   9  -1  -5    1.69    0.13 
   9   0  -5    0.03    0.05 
   9   0  -5    0.03    0.04 
   9   1  -5    1.78    0.11 
   9   1  -5    1.90    0.14 
   9   2  -5   12.70    0.50 
   9   2  -5   10.03    0.43 
   9   3  -5    0.50    0.10 
   9   4  -5    0.12    0.04 
   9   4  -5    0.27    0.08 
  -9  -5   5    1.18    0.09 
   9   5  -5    1.27    0.15 
   9   5  -5    1.09    0.10 
  -9  -6   5    0.54    0.07 
   9   6  -5    0.53    0.07 
   9   6  -5    0.48    0.11 
  -9  -7   5    3.22    0.17 
   9   7  -5    3.37    0.23 
   9   7  -5    3.25    0.18 
   9   8  -5    0.02    0.08 
   9   9  -5    6.77    0.38 
   9  10  -5    0.70    0.15 
   9  11  -5    0.26    0.12 
   9  12  -5   -0.03    0.09 
   9  13  -5    0.91    0.17 
   9  14  -5    0.06    0.10 
   9  15  -5    0.17    0.14 
   9  16  -5   -0.09    0.12 
   9  17  -5    0.21    0.16 
  10 -17  -5   -0.06    0.08 
  10 -16  -5   -0.08    0.10 
  10 -15  -5    0.05    0.10 
  10 -14  -5   -0.04    0.09 
  10 -13  -5    0.01    0.09 
  10 -12  -5    0.15    0.09 
  10 -11  -5    0.02    0.08 
  10 -10  -5   -0.06    0.08 
  10  -9  -5    0.35    0.10 
  10  -8  -5    0.11    0.08 
  10  -8  -5    0.08    0.07 
  10  -7  -5    0.81    0.10 
  10  -7  -5    0.52    0.10 
  10  -6  -5    0.11    0.07 
  10  -6  -5   -0.02    0.07 
  10  -5  -5    0.43    0.09 
  10  -5  -5    0.37    0.08 
  10  -4  -5    0.11    0.06 
  10  -4  -5    0.07    0.06 
  10  -3  -5    0.89    0.10 
  10  -3  -5    0.67    0.10 
  10  -2  -5    1.93    0.14 
  10  -2  -5    1.76    0.12 
  10  -1  -5    2.02    0.13 
  10  -1  -5    1.86    0.15 
  10   0  -5    0.02    0.06 
  10   0  -5    0.10    0.05 
  10   1  -5    2.04    0.16 
  10   1  -5    2.02    0.12 
  10   2  -5    1.89    0.17 
  10   3  -5    0.85    0.12 
  10   3  -5    1.00    0.09 
  10   4  -5    0.12    0.05 
  10   4  -5    0.05    0.07 
  10   5  -5    0.32    0.10 
  10   5  -5    0.40    0.07 
 -10  -6   5    0.15    0.06 
  10   6  -5    0.05    0.05 
  10   6  -5    0.07    0.08 
  10   7  -5    0.55    0.08 
  10   7  -5    0.52    0.12 
  10   8  -5   -0.04    0.08 
  10   9  -5    0.34    0.11 
  10  10  -5    0.10    0.10 
  10  11  -5    0.03    0.09 
  10  12  -5   -0.02    0.10 
  10  13  -5    0.04    0.11 
  10  14  -5    0.05    0.11 
  10  15  -5   -0.14    0.11 
  10  16  -5   -0.08    0.12 
  10  17  -5   -0.03    0.14 
  11 -16  -5    0.16    0.11 
  11 -15  -5    0.28    0.13 
  11 -14  -5    0.05    0.10 
  11 -13  -5    0.05    0.10 
  11 -12  -5    0.23    0.11 
  11 -11  -5    0.02    0.09 
  11 -10  -5    0.11    0.10 
  11  -9  -5    0.78    0.13 
  11  -8  -5    0.31    0.10 
  11  -8  -5    0.41    0.09 
  11  -7  -5    0.34    0.10 
  11  -7  -5    0.06    0.07 
  11  -6  -5    0.73    0.11 
  11  -6  -5    0.87    0.11 
  11  -5  -5    0.82    0.11 
  11  -5  -5    0.77    0.11 
  11  -4  -5    0.69    0.10 
  11  -4  -5    0.62    0.10 
  11  -3  -5    0.83    0.10 
  11  -3  -5    0.84    0.11 
  11  -2  -5    4.32    0.22 
  11  -2  -5    4.30    0.24 
  11  -1  -5    0.12    0.07 
  11  -1  -5    0.03    0.05 
  11   0  -5    0.05    0.07 
  11   0  -5   -0.07    0.04 
  11   1  -5   -0.03    0.07 
  11   1  -5    0.02    0.02 
  11   2  -5    3.93    0.20 
  11   2  -5    4.66    0.27 
  11   3  -5    0.98    0.09 
  11   3  -5    0.99    0.14 
  11   4  -5    0.63    0.12 
  11   4  -5    0.45    0.07 
  11   5  -5    0.87    0.09 
  11   5  -5    0.70    0.13 
  11   6  -5    0.72    0.09 
  11   6  -5    0.62    0.13 
  11   7  -5    0.24    0.10 
  11   8  -5    0.58    0.13 
  11   9  -5    0.57    0.14 
  11  10  -5    0.14    0.10 
  11  11  -5    0.19    0.11 
  11  12  -5    0.29    0.12 
  11  13  -5    0.14    0.12 
  11  14  -5   -0.15    0.11 
  11  15  -5    0.70    0.18 
  11  16  -5    0.49    0.18 
  12 -16  -5    0.03    0.10 
  12 -15  -5   -0.13    0.10 
  12 -14  -5   -0.08    0.10 
  12 -13  -5    0.30    0.13 
  12 -12  -5    0.21    0.12 
  12 -11  -5    0.03    0.09 
  12 -10  -5    0.09    0.09 
  12  -9  -5    0.05    0.10 
  12  -8  -5   -0.02    0.07 
  12  -8  -5    0.02    0.09 
  12  -7  -5    1.84    0.16 
  12  -7  -5    1.36    0.15 
  12  -6  -5    0.58    0.10 
  12  -6  -5    0.43    0.10 
  12  -5  -5    0.58    0.10 
  12  -5  -5    0.48    0.10 
  12  -4  -5    1.66    0.16 
  12  -4  -5    1.45    0.14 
  12  -3  -5    0.05    0.07 
  12  -3  -5    0.05    0.07 
  12  -2  -5    1.00    0.11 
  12  -2  -5    0.89    0.13 
  12  -1  -5    1.66    0.12 
  12  -1  -5    1.46    0.16 
  12   0  -5    0.02    0.05 
  12   0  -5   -0.12    0.06 
  12   1  -5    0.76    0.08 
  12   1  -5    1.89    0.18 
  12   2  -5    0.78    0.14 
  12   2  -5    0.97    0.09 
  12   3  -5    0.05    0.08 
  12   3  -5   -0.01    0.05 
  12   4  -5    1.52    0.11 
  12   4  -5    1.61    0.18 
  12   5  -5    0.60    0.13 
  12   6  -5    0.52    0.13 
  12   7  -5    1.67    0.20 
  12   8  -5    0.11    0.10 
  12   9  -5    0.06    0.11 
  12  10  -5    0.06    0.10 
  12  11  -5   -0.10    0.10 
  12  12  -5    0.13    0.12 
  12  13  -5    0.02    0.12 
  12  14  -5   -0.06    0.12 
  12  15  -5    0.19    0.14 
  12  16  -5   -0.08    0.12 
  13 -15  -5    0.12    0.12 
  13 -14  -5    0.17    0.12 
  13 -13  -5    0.03    0.11 
  13 -12  -5    0.83    0.16 
  13 -11  -5    0.24    0.12 
  13 -10  -5    0.18    0.11 
  13  -9  -5    0.44    0.12 
  13  -8  -5    0.45    0.12 
  13  -8  -5    0.49    0.11 
  13  -7  -5   -0.01    0.08 
  13  -7  -5    0.04    0.09 
  13  -6  -5    0.75    0.12 
  13  -6  -5    0.76    0.13 
  13  -5  -5    0.87    0.13 
  13  -5  -5    1.07    0.13 
  13  -4  -5    0.09    0.09 
  13  -4  -5    0.07    0.09 
  13  -3  -5    1.17    0.15 
  13  -3  -5    1.14    0.12 
  13  -2  -5    0.68    0.13 
  13  -2  -5    0.54    0.09 
  13  -1  -5    0.29    0.08 
  13  -1  -5    0.37    0.11 
  13   0  -5   -0.01    0.08 
  13   0  -5    0.03    0.03 
  13   1  -5    0.43    0.12 
  13   1  -5    0.27    0.06 
  13   2  -5    0.64    0.08 
  13   2  -5    0.87    0.15 
  13   3  -5    1.30    0.17 
  13   4  -5   -0.07    0.09 
  13   5  -5    0.90    0.16 
  13   6  -5    0.78    0.15 
  13   7  -5    0.16    0.10 
  13   8  -5    0.42    0.12 
  13   9  -5    0.46    0.14 
  13  10  -5    0.30    0.13 
  13  11  -5    0.23    0.14 
  13  12  -5    0.79    0.18 
  13  13  -5   -0.04    0.11 
  13  14  -5    0.03    0.12 
  13  15  -5    0.22    0.14 
  14 -14  -5    0.11    0.12 
  14 -13  -5   -0.08    0.11 
  14 -12  -5   -0.11    0.11 
  14 -11  -5    0.04    0.11 
  14 -10  -5    0.04    0.11 
  14  -9  -5    0.10    0.10 
  14  -8  -5    0.09    0.09 
  14  -7  -5   -0.04    0.09 
  14  -7  -5   -0.12    0.08 
  14  -6  -5    0.32    0.11 
  14  -6  -5    0.53    0.11 
  14  -5  -5    0.18    0.10 
  14  -5  -5   -0.09    0.07 
  14  -4  -5    0.11    0.09 
  14  -4  -5    0.18    0.10 
  14  -3  -5    1.34    0.14 
  14  -3  -5    0.99    0.15 
  14  -2  -5   -0.12    0.06 
  14  -2  -5   -0.08    0.08 
  14  -1  -5    0.30    0.06 
  14  -1  -5    0.35    0.11 
  14   0  -5   -0.06    0.05 
  14   0  -5   -0.07    0.08 
  14   1  -5    0.35    0.11 
  14   2  -5   -0.04    0.09 
  14   3  -5    1.00    0.16 
  14   4  -5    0.09    0.09 
  14   5  -5    0.02    0.09 
  14   6  -5    0.47    0.14 
  14   7  -5    0.03    0.10 
  14   8  -5    0.24    0.12 
  14   9  -5   -0.11    0.09 
  14  10  -5   -0.02    0.11 
  14  11  -5    0.07    0.12 
  14  12  -5    0.03    0.13 
  14  13  -5   -0.02    0.12 
  14  14  -5   -0.09    0.11 
  15 -13  -5    0.12    0.13 
  15 -12  -5    0.50    0.15 
  15 -11  -5    0.06    0.12 
  15 -10  -5    0.12    0.12 
  15  -9  -5   -0.03    0.10 
  15  -8  -5    0.57    0.14 
  15  -7  -5    0.02    0.09 
  15  -7  -5    0.05    0.10 
  15  -6  -5    0.54    0.13 
  15  -6  -5    0.43    0.12 
  15  -5  -5    0.69    0.14 
  15  -5  -5    0.96    0.14 
  15  -4  -5    0.17    0.09 
  15  -4  -5    0.28    0.12 
  15  -3  -5    0.06    0.10 
  15  -3  -5    0.08    0.09 
  15  -2  -5    0.66    0.12 
  15  -2  -5    0.57    0.12 
  15  -1  -5    0.09    0.09 
  15   0  -5    0.00    0.09 
  15   1  -5   -0.03    0.09 
  15   2  -5    0.38    0.12 
  15   3  -5    0.04    0.10 
  15   4  -5    0.02    0.10 
  15   5  -5    0.86    0.16 
  15   6  -5    0.53    0.15 
  15   7  -5   -0.03    0.11 
  15   8  -5    0.81    0.18 
  15   9  -5   -0.13    0.10 
  15  10  -5    0.07    0.12 
  15  11  -5    0.05    0.13 
  15  12  -5    0.51    0.17 
  15  13  -5   -0.02    0.12 
  16 -12  -5    0.23    0.13 
  16 -11  -5    0.34    0.14 
  16 -10  -5   -0.01    0.12 
  16  -9  -5   -0.27    0.10 
  16  -8  -5    0.16    0.11 
  16  -7  -5    0.13    0.11 
  16  -7  -5    0.04    0.10 
  16  -6  -5    0.17    0.11 
  16  -6  -5    0.18    0.11 
  16  -5  -5   -0.03    0.10 
  16  -5  -5   -0.11    0.10 
  16  -4  -5    0.10    0.10 
  16  -3  -5    0.00    0.10 
  16  -2  -5    0.32    0.12 
  16  -1  -5    0.07    0.10 
  16   0  -5    0.01    0.10 
  16   1  -5   -0.05    0.09 
  16   2  -5    0.22    0.12 
  16   3  -5    0.04    0.10 
  16   4  -5   -0.05    0.10 
  16   5  -5   -0.05    0.09 
  16   6  -5   -0.03    0.11 
  16   7  -5   -0.01    0.12 
  16   8  -5    0.09    0.14 
  16   9  -5    0.03    0.12 
  16  10  -5    0.05    0.13 
  16  11  -5    0.04    0.12 
  16  12  -5    0.15    0.14 
  17 -11  -5    0.06    0.13 
  17 -10  -5   -0.04    0.13 
  17  -9  -5   -0.06    0.12 
  17  -8  -5   -0.04    0.13 
  17  -6  -5    0.16    0.13 
  17  -5  -5    0.07    0.12 
  17  -4  -5    0.47    0.14 
  17  -3  -5    0.43    0.13 
  17  -2  -5    0.16    0.13 
  17  -1  -5    0.35    0.13 
  17   0  -5    0.04    0.11 
  17   1  -5    0.06    0.11 
  17   2  -5    0.02    0.11 
  17   3  -5    0.45    0.14 
  17   4  -5    0.46    0.15 
  17   5  -5   -0.05    0.12 
  17   6  -5    0.42    0.17 
  17   7  -5    0.09    0.15 
  17   8  -5    0.10    0.15 
  17   9  -5    0.26    0.15 
  17  10  -5    0.08    0.12 
  17  11  -5    0.09    0.13 
  18  -6  -5    0.01    0.14 
  18  -5  -5    0.23    0.14 
  18  -4  -5    0.13    0.13 
  18  -3  -5    0.15    0.13 
  18  -2  -5   -0.06    0.12 
  18  -1  -5   -0.15    0.12 
  18   0  -5   -0.21    0.10 
  18   1  -5    0.02    0.12 
  18   2  -5   -0.02    0.12 
  18   3  -5    0.21    0.13 
  18   4  -5    0.07    0.13 
  18   5  -5    0.12    0.14 
  18   6  -5   -0.07    0.14 
  18   7  -5   -0.02    0.15 
  18   8  -5    0.07    0.15 
  18   9  -5    0.27    0.13 
  19  -5  -5   -0.08    0.13 
  19  -4  -5    0.27    0.15 
  19  -3  -5    0.25    0.15 
  19  -2  -5    0.24    0.15 
  19  -1  -5    0.09    0.14 
  19   0  -5   -0.09    0.12 
  19   1  -5   -0.08    0.13 
  19   2  -5    0.17    0.15 
  19   3  -5   -0.10    0.12 
  19   4  -5    0.02    0.15 
  19   5  -5   -0.17    0.14 
  19   6  -5    0.18    0.17 
  19   7  -5    0.06    0.15 
  20  -5  -5   -0.08    0.16 
  20  -4  -5    0.16    0.16 
  20  -3  -5   -0.05    0.16 
  20  -2  -5   -0.07    0.15 
  20  -1  -5    0.07    0.15 
  20   0  -5   -0.03    0.14 
  20   1  -5    0.12    0.15 
  20   2  -5    0.12    0.15 
  20   3  -5    0.03    0.15 
  20   4  -5   -0.11    0.15 
  20   5  -5    0.18    0.16 
  20   4   6    0.47    0.13 
  20   3   6    0.30    0.13 
  20   2   6    0.09    0.10 
  20   1   6    0.31    0.12 
  20   0   6    0.05    0.11 
  20  -1   6   -0.01    0.15 
  20  -2   6   -0.12    0.14 
  20  -3   6    0.12    0.17 
  20  -4   6    0.09    0.16 
  19   7   6    0.19    0.11 
 -19  -7  -6    0.07    0.15 
  19   6   6    0.16    0.12 
  19   5   6    0.09    0.11 
  19   4   6   -0.04    0.09 
  19   3   6   -0.09    0.10 
  19   2   6    0.21    0.11 
  19   1   6    0.03    0.10 
  19   0   6    0.32    0.12 
  19  -1   6    0.02    0.15 
  19  -2   6    0.15    0.16 
  19  -3   6    0.09    0.15 
  19  -4   6    0.03    0.15 
  19  -5   6    0.01    0.15 
  19  -6   6   -0.07    0.14 
  19  -7   6    0.06    0.15 
  18   9   6    0.09    0.11 
 -18  -9  -6   -0.10    0.15 
  18   8   6   -0.09    0.11 
 -18  -8  -6   -0.10    0.14 
  18   7   6    0.17    0.13 
 -18  -7  -6    0.07    0.15 
  18   6   6    0.02    0.11 
 -18  -6  -6   -0.02    0.13 
  18   5   6    0.24    0.12 
 -18  -5  -6    0.06    0.13 
  18   4   6    0.11    0.11 
  18   3   6    0.14    0.11 
  18   2   6    0.13    0.10 
  18   1   6    0.41    0.13 
  18   0   6    0.10    0.10 
  18  -1   6    0.14    0.14 
  18  -2   6    0.03    0.13 
  18  -3   6    0.33    0.15 
  18  -4   6   -0.09    0.11 
  18  -5   6    0.00    0.13 
  18  -6   6    0.03    0.14 
  18  -7   6    0.13    0.15 
  18  -8   6    0.18    0.17 
  18  -9   6   -0.09    0.15 
  17  11   6    0.22    0.13 
  17  10   6    0.35    0.14 
 -17 -10  -6    0.06    0.16 
  17   9   6    0.20    0.14 
 -17  -9  -6   -0.03    0.13 
  17   8   6    0.17    0.13 
 -17  -8  -6    0.32    0.16 
  17   7   6    0.25    0.12 
 -17  -7  -6    0.01    0.13 
  17   6   6    0.10    0.12 
 -17  -6  -6    0.31    0.14 
  17   5   6   -0.05    0.09 
 -17  -5  -6   -0.18    0.10 
  17   4   6   -0.04    0.09 
 -17  -4  -6   -0.23    0.10 
  17   3   6    0.07    0.09 
  17   2   6    0.01    0.09 
  17   1   6    0.02    0.08 
  17   0   6   -0.01    0.10 
  17  -1   6    0.12    0.11 
  17  -2   6    0.06    0.12 
  17  -3   6    0.03    0.10 
  17  -4   6    0.02    0.11 
  17  -5   6   -0.06    0.13 
  17  -6   6    0.16    0.13 
  17  -7   6   -0.04    0.13 
  17  -8   6    0.16    0.15 
  17  -9   6    0.06    0.15 
  17 -10   6    0.35    0.17 
  16  12   6   -0.02    0.12 
 -16 -12  -6   -0.03    0.15 
  16  11   6    0.14    0.13 
 -16 -11  -6    0.11    0.15 
  16  10   6   -0.06    0.11 
 -16 -10  -6    0.17    0.14 
  16   9   6    0.11    0.12 
 -16  -9  -6    0.04    0.13 
  16   8   6   -0.02    0.10 
 -16  -8  -6    0.00    0.12 
  16   7   6    0.53    0.14 
 -16  -7  -6    0.45    0.14 
  16   6   6   -0.02    0.09 
 -16  -6  -6   -0.14    0.09 
  16   5   6    0.12    0.09 
 -16  -5  -6    0.20    0.12 
  16   4   6    0.15    0.10 
 -16  -4  -6    0.02    0.10 
  16   3   6    0.51    0.13 
 -16  -3  -6    0.37    0.13 
  16   2   6    0.09    0.09 
  16   1   6    0.94    0.16 
  16   0   6    0.46    0.13 
  16  -1   6    0.66    0.13 
  16  -2   6    0.06    0.11 
  16  -3   6    0.58    0.14 
  16  -4   6    0.00    0.10 
  16  -5   6    0.01    0.11 
  16  -6   6    0.00    0.12 
  16  -7   6    0.53    0.16 
  16  -8   6    0.00    0.12 
  16  -9   6   -0.05    0.12 
  16 -10   6   -0.06    0.12 
  16 -11   6    0.10    0.15 
  16 -12   6    0.02    0.17 
  15  13   6   -0.04    0.16 
 -15 -13  -6   -0.10    0.15 
  15  12   6    0.08    0.15 
 -15 -12  -6    0.05    0.14 
  15  11   6   -0.04    0.11 
 -15 -11  -6    0.07    0.12 
  15  10   6    0.11    0.12 
 -15 -10  -6    0.24    0.13 
  15   9   6    0.15    0.11 
 -15  -9  -6   -0.04    0.10 
  15   8   6    0.14    0.11 
 -15  -8  -6    0.19    0.12 
  15   7   6    0.11    0.10 
 -15  -7  -6    0.09    0.11 
  15   6   6    0.08    0.09 
 -15  -6  -6   -0.12    0.09 
  15   5   6    0.01    0.09 
 -15  -5  -6   -0.15    0.09 
  15   4   6    0.20    0.10 
 -15  -4  -6    0.07    0.10 
  15   3   6    0.29    0.11 
 -15  -3  -6    0.24    0.11 
  15   2   6    1.25    0.17 
  15   1   6    0.55    0.13 
  15   0   6   -0.02    0.08 
  15  -1   6    0.49    0.12 
  15  -2   6    0.80    0.14 
  15  -3   6    0.60    0.14 
  15  -4   6    0.25    0.12 
  15  -5   6    0.06    0.10 
  15  -6   6   -0.03    0.10 
  15  -7   6    0.05    0.11 
  15  -8   6   -0.11    0.11 
  15  -9   6   -0.05    0.12 
  15 -10   6    0.17    0.13 
  15 -10   6    0.04    0.13 
  15 -11   6   -0.13    0.12 
  15 -11   6    0.12    0.14 
  15 -12   6   -0.18    0.12 
  15 -12   6   -0.05    0.13 
  15 -13   6    0.03    0.13 
  15 -13   6    0.05    0.15 
 -14 -14  -6   -0.18    0.13 
  14  13   6    0.20    0.16 
 -14 -13  -6    0.08    0.14 
  14  12   6   -0.07    0.12 
 -14 -12  -6   -0.15    0.11 
  14  11   6    0.43    0.14 
 -14 -11  -6    0.57    0.16 
  14  10   6    0.02    0.09 
 -14 -10  -6   -0.07    0.10 
  14   9   6    0.15    0.11 
 -14  -9  -6   -0.07    0.09 
  14   8   6   -0.01    0.08 
 -14  -8  -6    0.17    0.11 
  14   7   6    0.17    0.10 
 -14  -7  -6    0.06    0.09 
  14   6   6   -0.06    0.08 
 -14  -6  -6    0.13    0.10 
  14   5   6   -0.03    0.08 
 -14  -5  -6   -0.14    0.08 
  14   4   6    0.91    0.15 
 -14  -4  -6    0.86    0.15 
  14   3   6    0.04    0.09 
 -14  -3  -6   -0.08    0.08 
  14   2   6   -0.04    0.07 
 -14  -2  -6    0.01    0.09 
  14   1   6    0.74    0.13 
  14   0   6    0.52    0.12 
  14  -1   6    0.68    0.13 
  14  -2   6    0.09    0.10 
  14  -3   6    0.11    0.09 
  14  -4   6    1.12    0.17 
  14  -5   6   -0.03    0.08 
  14  -6   6    0.00    0.08 
  14  -7   6    0.34    0.12 
  14  -7   6    0.46    0.13 
  14  -8   6    0.21    0.11 
  14  -8   6    0.13    0.10 
  14  -9   6   -0.16    0.09 
  14  -9   6    0.09    0.11 
  14 -10   6   -0.02    0.11 
  14 -10   6   -0.04    0.11 
  14 -11   6    0.38    0.13 
  14 -11   6    0.68    0.17 
  14 -12   6   -0.03    0.12 
  14 -12   6   -0.02    0.12 
  14 -13   6    0.10    0.13 
  14 -13   6   -0.05    0.13 
  14 -14   6    0.11    0.13 
  14 -14   6    0.14    0.16 
 -13 -15  -6   -0.03    0.14 
 -13 -14  -6    0.17    0.15 
  13  13   6    0.26    0.15 
 -13 -13  -6    0.07    0.13 
  13  12   6    0.05    0.12 
 -13 -12  -6    0.03    0.12 
  13  11   6    0.00    0.10 
 -13 -11  -6   -0.08    0.09 
  13  10   6    0.06    0.10 
 -13 -10  -6    0.18    0.10 
  13   9   6    0.11    0.09 
 -13  -9  -6    0.12    0.10 
  13   8   6    0.04    0.09 
 -13  -8  -6   -0.02    0.09 
  13   7   6    0.55    0.13 
 -13  -7  -6    0.67    0.14 
  13   6   6    0.20    0.09 
 -13  -6  -6    0.35    0.11 
  13   5   6    0.06    0.09 
 -13  -5  -6    0.18    0.10 
  13   4   6    2.79    0.21 
 -13  -4  -6    2.74    0.22 
  13   3   6    0.05    0.08 
 -13  -3  -6    0.11    0.09 
  13   2   6    0.17    0.08 
 -13  -2  -6    0.26    0.10 
  13   1   6    0.23    0.08 
 -13  -1  -6    0.44    0.11 
  13   0   6    0.53    0.11 
  13  -1   6    0.44    0.11 
  13  -2   6    0.22    0.10 
  13  -3   6    0.25    0.11 
  13  -4   6    3.27    0.24 
  13  -5   6    0.03    0.05 
  13  -5   6    0.11    0.09 
  13  -6   6    0.39    0.11 
  13  -6   6    0.38    0.10 
  13  -7   6    0.61    0.12 
  13  -7   6    0.60    0.13 
  13  -8   6    0.10    0.10 
  13  -8   6   -0.10    0.09 
  13  -9   6    0.12    0.10 
  13  -9   6    0.14    0.10 
  13 -10   6    0.16    0.11 
  13 -10   6    0.15    0.11 
  13 -11   6    0.03    0.11 
  13 -11   6   -0.05    0.10 
  13 -12   6    0.08    0.12 
  13 -12   6    0.14    0.13 
  13 -13   6    0.15    0.13 
  13 -13   6    0.11    0.13 
  13 -14   6    0.25    0.14 
  13 -14   6    0.16    0.15 
  13 -15   6    0.22    0.13 
  13 -15   6   -0.03    0.15 
 -12 -15  -6    0.22    0.16 
 -12 -14  -6   -0.18    0.12 
 -12 -13  -6    0.09    0.12 
  12  12   6    0.17    0.11 
 -12 -12  -6   -0.05    0.11 
  12  11   6    0.11    0.10 
 -12 -11  -6    0.03    0.09 
  12  10   6    0.10    0.10 
 -12 -10  -6   -0.01    0.09 
  12   9   6    0.20    0.10 
 -12  -9  -6    0.20    0.11 
  12   8   6    0.05    0.08 
 -12  -8  -6    0.36    0.11 
  12   7   6    1.02    0.15 
 -12  -7  -6    0.86    0.15 
  12   6   6    0.01    0.07 
 -12  -6  -6    0.04    0.08 
  12   5   6    0.06    0.08 
 -12  -5  -6   -0.03    0.08 
  12   4   6    0.53    0.11 
 -12  -4  -6    0.65    0.12 
  12   3   6    0.49    0.11 
 -12  -3  -6    0.41    0.11 
  12   2   6    0.05    0.08 
 -12  -2  -6    0.00    0.07 
  12   1   6    0.43    0.10 
 -12  -1  -6    0.46    0.11 
  12   0   6    0.04    0.07 
  12  -1   6    0.42    0.10 
  12  -2   6   -0.01    0.07 
  12  -3   6    0.50    0.11 
  12  -3   6    0.54    0.08 
  12  -4   6    0.65    0.13 
  12  -4   6    0.64    0.09 
  12  -5   6   -0.05    0.07 
  12  -5   6    0.00    0.08 
  12  -6   6    0.02    0.08 
  12  -6   6    0.09    0.09 
  12  -7   6    1.03    0.14 
  12  -7   6    0.70    0.13 
  12  -8   6    0.07    0.09 
  12  -8   6    0.12    0.09 
  12  -9   6    0.25    0.11 
  12  -9   6    0.28    0.11 
  12 -10   6   -0.01    0.09 
  12 -10   6    0.04    0.10 
  12 -11   6   -0.07    0.09 
  12 -11   6    0.27    0.12 
  12 -12   6    0.21    0.12 
  12 -12   6    0.13    0.11 
  12 -13   6    0.20    0.12 
  12 -13   6    0.25    0.14 
  12 -14   6   -0.06    0.11 
  12 -14   6   -0.17    0.11 
  12 -15   6    0.10    0.14 
  12 -15   6    0.18    0.16 
  12 -16   6    0.18    0.14 
 -11 -16  -6    0.18    0.16 
 -11 -15  -6    0.17    0.15 
 -11 -14  -6    0.03    0.12 
 -11 -13  -6    0.75    0.16 
  11  12   6    0.01    0.10 
 -11 -12  -6    0.02    0.10 
  11  11   6   -0.10    0.08 
 -11 -11  -6   -0.03    0.10 
  11  10   6    0.37    0.12 
 -11 -10  -6    0.40    0.12 
  11   9   6    0.55    0.12 
 -11  -9  -6    0.40    0.12 
  11   8   6    0.85    0.14 
 -11  -8  -6    0.72    0.14 
  11   7   6    1.09    0.14 
 -11  -7  -6    0.86    0.14 
  11   6   6    0.16    0.08 
 -11  -6  -6    0.11    0.09 
  11   5   6    0.27    0.09 
 -11  -5  -6    0.18    0.09 
  11   4   6    0.01    0.06 
 -11  -4  -6    0.02    0.07 
  11   3   6    0.31    0.09 
 -11  -3  -6    0.40    0.10 
  11   2   6    0.02    0.06 
 -11  -2  -6    0.06    0.07 
  11   1   6    0.03    0.06 
 -11  -1  -6    0.02    0.07 
  11   0   6    0.88    0.12 
 -11   0  -6    0.73    0.12 
  11  -1   6    0.06    0.04 
  11  -1   6    0.10    0.07 
  11  -2   6    0.07    0.06 
  11  -3   6    0.42    0.10 
  11  -4   6   -0.05    0.07 
  11  -5   6    0.15    0.09 
  11  -6   6    0.02    0.08 
  11  -7   6    0.85    0.14 
  11  -8   6    0.61    0.12 
  11  -9   6    0.75    0.14 
  11 -10   6    0.35    0.12 
  11 -11   6   -0.01    0.09 
  11 -12   6    0.01    0.10 
  11 -12   6    0.04    0.10 
  11 -13   6    0.90    0.17 
  11 -13   6    0.78    0.16 
  11 -14   6   -0.03    0.12 
  11 -14   6   -0.10    0.11 
  11 -15   6    0.18    0.13 
  11 -15   6    0.23    0.14 
  11 -16   6    0.02    0.12 
  11 -16   6    0.11    0.14 
 -10 -17  -6   -0.04    0.16 
 -10 -16  -6    0.29    0.16 
 -10 -15  -6   -0.05    0.12 
 -10 -14  -6    0.47    0.15 
 -10 -13  -6    0.40    0.13 
  10  12   6    0.20    0.11 
 -10 -12  -6    0.07    0.10 
  10  11   6    0.79    0.14 
 -10 -11  -6    0.93    0.15 
  10  10   6    2.69    0.20 
 -10 -10  -6    2.22    0.21 
  10   9   6    1.24    0.15 
 -10  -9  -6    1.04    0.15 
  10   8   6    0.77    0.13 
 -10  -8  -6    0.71    0.13 
  10   7   6    3.14    0.21 
 -10  -7  -6    3.22    0.23 
  10   6   6    1.76    0.16 
 -10  -6  -6    1.92    0.17 
  10   5   6    2.33    0.17 
 -10  -5  -6    2.23    0.18 
  10   4   6    0.11    0.06 
 -10  -4  -6    0.06    0.07 
  10   3   6    2.54    0.17 
 -10  -3  -6    2.66    0.19 
  10   2   6    0.12    0.06 
 -10  -2  -6    0.11    0.07 
  10   1   6    0.01    0.05 
 -10  -1  -6   -0.08    0.06 
  10   0   6    2.40    0.17 
 -10   0  -6    2.38    0.18 
  10  -1   6    0.04    0.06 
  10  -2   6    0.15    0.07 
  10  -3   6    2.46    0.18 
  10  -4   6    0.16    0.08 
  10  -5   6    2.47    0.19 
  10  -6   6    1.90    0.18 
  10  -7   6    3.22    0.22 
  10  -8   6    0.72    0.13 
  10  -9   6    1.15    0.15 
  10 -10   6    2.21    0.20 
  10 -11   6    1.11    0.16 
  10 -12   6    0.07    0.10 
  10 -13   6    0.28    0.13 
  10 -14   6    0.48    0.15 
  10 -15   6   -0.13    0.11 
  10 -15   6    0.04    0.12 
  10 -16   6    0.11    0.11 
  10 -16   6    0.06    0.14 
  10 -17   6    0.29    0.13 
  10 -17   6    0.24    0.17 
  -9 -17  -6   -0.19    0.13 
  -9 -16  -6    0.01    0.13 
  -9 -15  -6    0.40    0.15 
  -9 -14  -6    0.15    0.11 
  -9 -13  -6    1.14    0.18 
   9  12   6    0.08    0.10 
  -9 -12  -6   -0.03    0.09 
   9  11   6   -0.11    0.08 
  -9 -11  -6    0.02    0.09 
   9  10   6    1.85    0.17 
  -9 -10  -6    1.81    0.19 
   9   9   6    1.59    0.16 
  -9  -9  -6    1.40    0.17 
   9   8   6    1.79    0.16 
  -9  -8  -6    1.55    0.17 
   9   7   6    0.55    0.10 
  -9  -7  -6    0.55    0.11 
   9   6   6    0.24    0.07 
  -9  -6  -6    0.26    0.08 
   9   5   6    0.88    0.11 
  -9  -5  -6    0.97    0.12 
   9   4   6    2.90    0.19 
  -9  -4  -6    3.21    0.20 
   9   3   6    0.01    0.04 
  -9  -3  -6   -0.07    0.05 
   9   2   6    1.05    0.11 
  -9  -2  -6    0.76    0.11 
   9   1   6    0.11    0.06 
  -9  -1  -6    0.10    0.06 
   9   0   6    2.74    0.17 
  -9   0  -6    2.39    0.17 
   9  -1   6    0.08    0.05 
  -9   1  -6    0.08    0.05 
   9  -2   6    0.97    0.11 
   9  -3   6    0.06    0.06 
   9  -4   6    2.74    0.19 
   9  -5   6    0.82    0.12 
   9  -6   6    0.21    0.08 
   9  -7   6    0.48    0.11 
   9  -8   6    1.84    0.18 
   9  -9   6    1.27    0.16 
   9 -10   6    1.90    0.19 
   9 -11   6   -0.03    0.09 
   9 -12   6    0.06    0.09 
   9 -13   6    1.07    0.17 
   9 -14   6    0.09    0.12 
   9 -15   6    0.55    0.15 
   9 -16   6    0.01    0.12 
   9 -16   6   -0.15    0.10 
   9 -17   6    0.01    0.14 
   9 -17   6    0.00    0.11 
  -8 -18  -6    0.21    0.16 
  -8 -17  -6   -0.23    0.11 
  -8 -16  -6    0.03    0.12 
  -8 -15  -6   -0.12    0.11 
  -8 -14  -6    0.53    0.14 
  -8 -13  -6   -0.07    0.08 
   8  12   6    0.18    0.10 
  -8 -12  -6    0.11    0.09 
   8  11   6    1.61    0.17 
  -8 -11  -6    1.88    0.19 
   8  10   6    4.76    0.28 
  -8 -10  -6    5.42    0.31 
   8   9   6    0.06    0.06 
  -8  -9  -6   -0.07    0.08 
   8   8   6    0.17    0.07 
  -8  -8  -6    0.02    0.08 
   8   7   6    0.00    0.04 
  -8  -7  -6    0.04    0.07 
   8   6   6    1.07    0.11 
  -8  -6  -6    0.89    0.12 
   8   5   6    1.16    0.11 
  -8  -5  -6    1.24    0.13 
   8   4   6    0.10    0.05 
  -8  -4  -6    0.10    0.06 
   8   3   6    0.25    0.06 
  -8  -3  -6    0.15    0.06 
   8   2   6    2.59    0.16 
  -8  -2  -6    2.41    0.16 
   8   1   6    1.94    0.13 
  -8  -1  -6    1.92    0.14 
   8   0   6    4.80    0.24 
  -8   0  -6    4.73    0.25 
   8  -1   6    1.79    0.13 
  -8   1  -6    1.74    0.13 
   8  -2   6    2.38    0.16 
   8  -3   6    0.24    0.07 
   8  -4   6    0.09    0.06 
   8  -5   6    1.16    0.12 
   8  -6   6    1.03    0.13 
   8  -7   6    0.16    0.08 
   8  -8   6    0.20    0.08 
   8  -9   6    0.00    0.08 
   8 -10   6    5.24    0.31 
   8 -11   6    1.87    0.19 
   8 -12   6    0.05    0.10 
   8 -13   6    0.04    0.10 
   8 -14   6    0.69    0.15 
   8 -15   6   -0.09    0.10 
   8 -16   6   -0.01    0.13 
   8 -17   6    0.20    0.15 
   8 -17   6   -0.01    0.11 
   8 -18   6    0.20    0.13 
  -7 -18  -6   -0.21    0.14 
  -7 -17  -6   -0.14    0.12 
  -7 -16  -6    0.21    0.14 
  -7 -15  -6   -0.02    0.11 
  -7 -14  -6    0.12    0.11 
  -7 -13  -6   -0.05    0.09 
   7  12   6    0.25    0.07 
  -7 -12  -6    0.21    0.10 
   7  11   6    3.07    0.20 
  -7 -11  -6    3.68    0.25 
   7  10   6    0.02    0.06 
  -7 -10  -6    0.01    0.08 
   7   9   6    2.19    0.16 
  -7  -9  -6    2.26    0.18 
   7   8   6   -0.01    0.04 
  -7  -8  -6    0.06    0.07 
   7   7   6    1.76    0.13 
  -7  -7  -6    1.62    0.09 
  -7  -7  -6    1.88    0.16 
   7   6   6    0.41    0.07 
  -7  -6  -6    0.40    0.04 
  -7  -6  -6    0.50    0.09 
   7   5   6    1.49    0.12 
  -7  -5  -6    1.47    0.13 
  -7  -5  -6    1.34    0.07 
   7   4   6    1.31    0.11 
  -7  -4  -6    1.32    0.12 
   7   3   6    0.90    0.09 
  -7  -3  -6    0.81    0.05 
  -7  -3  -6    0.78    0.10 
   7   2   6    2.41    0.15 
  -7  -2  -6    2.81    0.17 
   7   1   6    0.66    0.08 
  -7  -1  -6    0.74    0.09 
   7   0   6   18.83    0.72 
  -7   0  -6   17.58    0.73 
   7  -1   6    0.67    0.09 
  -7   1  -6    0.86    0.10 
   7  -2   6    2.69    0.16 
   7  -3   6    0.86    0.10 
   7  -4   6    1.14    0.12 
   7  -5   6    1.59    0.14 
   7  -6   6    0.52    0.09 
   7  -7   6    1.67    0.16 
   7  -8   6   -0.01    0.07 
   7  -9   6    2.38    0.18 
   7 -10   6   -0.06    0.08 
   7 -11   6    3.39    0.24 
   7 -12   6    0.49    0.13 
   7 -13   6   -0.03    0.09 
   7 -14   6    0.05    0.10 
   7 -15   6   -0.12    0.10 
   7 -16   6    0.07    0.13 
   7 -17   6   -0.13    0.12 
   7 -18   6    0.10    0.12 
   7 -18   6    0.02    0.15 
  -6 -18  -6    0.40    0.18 
  -6 -17  -6   -0.02    0.13 
  -6 -16  -6   -0.05    0.11 
  -6 -15  -6    0.13    0.11 
  -6 -14  -6    1.96    0.21 
  -6 -13  -6    0.80    0.15 
  -6 -12  -6    0.14    0.11 
   6  11   6    2.66    0.18 
   6  10   6   -0.01    0.03 
  -6 -10  -6    0.10    0.08 
  -6 -10  -6    0.12    0.05 
   6   9   6    0.08    0.04 
  -6  -9  -6    0.29    0.05 
  -6  -9  -6    0.22    0.09 
   6   8   6    0.31    0.07 
  -6  -8  -6    0.35    0.05 
  -6  -8  -6    0.26    0.09 
   6   7   6    1.59    0.12 
  -6  -7  -6    1.59    0.09 
  -6  -7  -6    1.59    0.14 
   6   6   6    1.36    0.10 
  -6  -6  -6    1.24    0.12 
  -6  -6  -6    1.04    0.07 
   6   5   6    2.88    0.16 
  -6  -5  -6    2.77    0.12 
  -6  -5  -6    2.76    0.17 
   6   4   6   12.06    0.47 
  -6  -4  -6   11.31    0.49 
  -6  -4  -6   11.33    0.42 
   6   3   6    1.13    0.09 
  -6  -3  -6    1.16    0.06 
  -6  -3  -6    1.06    0.10 
   6   2   6    0.07    0.04 
  -6  -2  -6    0.05    0.02 
  -6  -2  -6    0.05    0.04 
   6   1   6    0.76    0.08 
  -6  -1  -6    0.69    0.08 
  -6  -1  -6    0.69    0.05 
   6   0   6    4.43    0.21 
  -6   0  -6    4.35    0.22 
   6  -1   6    0.81    0.08 
  -6   1  -6    0.85    0.09 
   6  -2   6    0.11    0.05 
   6  -3   6    1.10    0.10 
   6  -4   6   11.58    0.49 
   6  -5   6    3.04    0.18 
   6  -6   6    1.14    0.12 
   6  -7   6    1.67    0.15 
   6  -8   6    0.39    0.08 
   6  -9   6    0.32    0.09 
   6 -10   6    0.10    0.09 
   6 -11   6    5.04    0.30 
   6 -12   6    0.07    0.09 
   6 -13   6    0.65    0.14 
   6 -14   6    2.30    0.22 
   6 -15   6    0.00    0.11 
   6 -16   6   -0.08    0.11 
   6 -17   6   -0.04    0.13 
   6 -18   6    0.14    0.15 
  -5 -19  -6    0.03    0.15 
  -5 -18  -6    0.55    0.18 
  -5 -17  -6    0.14    0.13 
  -5 -16  -6    0.22    0.12 
  -5 -15  -6    0.13    0.11 
  -5 -14  -6   -0.02    0.09 
  -5 -13  -6    0.71    0.14 
  -5 -12  -6    0.04    0.09 
  -5 -12  -6    0.13    0.06 
   5  11   6    3.54    0.21 
  -5 -11  -6    3.59    0.19 
  -5 -11  -6    3.68    0.24 
   5  10   6   -0.01    0.05 
  -5 -10  -6    0.00    0.07 
  -5 -10  -6    0.09    0.05 
   5   9   6    1.50    0.12 
  -5  -9  -6    1.21    0.10 
  -5  -9  -6    1.32    0.14 
   5   8   6    0.19    0.05 
  -5  -8  -6    0.21    0.05 
  -5  -8  -6    0.06    0.06 
  -5  -7  -6    1.19    0.12 
  -5  -7  -6    1.01    0.08 
  -5  -6  -6    0.72    0.09 
  -5  -6  -6    0.60    0.06 
   5   5   6    0.03    0.03 
  -5  -5  -6    0.07    0.03 
  -5  -5  -6   -0.01    0.04 
   5   4   6    1.71    0.11 
  -5  -4  -6    1.72    0.09 
  -5  -4  -6    1.74    0.12 
   5   3   6    1.13    0.08 
  -5  -3  -6    1.16    0.06 
  -5  -3  -6    1.01    0.10 
   5   2   6    0.38    0.05 
  -5  -2  -6    0.36    0.04 
  -5  -2  -6    0.36    0.06 
   5   1   6    0.04    0.03 
  -5  -1  -6    0.01    0.03 
  -5  -1  -6    0.06    0.03 
   5   0   6    0.08    0.04 
  -5   0  -6    0.06    0.03 
  -5   0  -6    0.02    0.03 
   5  -1   6   -0.04    0.03 
  -5   1  -6    0.01    0.03 
   5  -2   6    0.27    0.06 
  -5   2  -6    0.42    0.06 
   5  -3   6    1.06    0.10 
   5  -4   6    1.69    0.12 
   5  -5   6    0.09    0.05 
   5  -6   6    0.62    0.09 
   5  -7   6    0.97    0.11 
   5  -8   6    0.08    0.06 
   5  -9   6    1.43    0.15 
   5 -10   6    0.08    0.07 
   5 -11   6    3.74    0.24 
   5 -12   6    0.05    0.09 
   5 -13   6    0.77    0.14 
   5 -14   6   -0.01    0.10 
   5 -15   6   -0.02    0.10 
   5 -16   6    0.15    0.12 
   5 -17   6    0.10    0.14 
   5 -18   6    0.33    0.17 
  -4 -19  -6    0.08    0.16 
  -4 -18  -6    0.03    0.14 
  -4 -17  -6    0.16    0.14 
  -4 -16  -6   -0.03    0.10 
  -4 -15  -6    0.05    0.10 
  -4 -14  -6    3.10    0.20 
  -4 -14  -6    2.99    0.24 
  -4 -13  -6    1.33    0.17 
  -4 -13  -6    1.01    0.11 
  -4 -12  -6    0.05    0.06 
  -4 -12  -6    0.05    0.09 
   4  11   6    0.71    0.09 
  -4 -11  -6    0.62    0.12 
  -4 -11  -6    0.65    0.08 
   4  10   6    0.51    0.08 
  -4 -10  -6    0.42    0.07 
  -4 -10  -6    0.47    0.11 
   4   9   6    0.22    0.06 
  -4  -9  -6    0.11    0.08 
  -4  -9  -6    0.10    0.05 
   4   8   6    6.15    0.28 
  -4  -8  -6    6.15    0.26 
  -4  -8  -6    6.20    0.31 
   4   7   6    1.12    0.09 
  -4  -7  -6    1.22    0.12 
  -4  -7  -6    1.03    0.08 
   4   6   6    1.16    0.09 
  -4  -6  -6    1.26    0.08 
  -4  -6  -6    0.88    0.11 
   4   5   6    1.04    0.08 
  -4  -5  -6    1.07    0.10 
  -4  -5  -6    1.04    0.07 
  -4  -4  -6   11.31    0.41 
  -4  -4  -6   10.58    0.46 
   4   3   6    3.33    0.16 
  -4  -3  -6    3.43    0.14 
  -4  -3  -6    3.37    0.18 
   4   2   6    1.07    0.08 
  -4  -2  -6    1.03    0.06 
  -4  -2  -6    1.02    0.08 
   4   1   6    0.60    0.06 
  -4  -1  -6    0.56    0.05 
  -4  -1  -6    0.45    0.06 
   4   0   6    3.54    0.17 
  -4   0  -6    3.31    0.15 
  -4   0  -6    3.21    0.17 
   4  -1   6    0.63    0.07 
  -4   1  -6    0.54    0.06 
  -4   1  -6    0.53    0.06 
   4  -2   6    0.91    0.09 
  -4   2  -6    1.08    0.08 
   4  -3   6    3.38    0.18 
   4  -4   6   10.32    0.43 
   4  -5   6    0.90    0.10 
   4  -6   6    1.03    0.11 
   4  -7   6    1.10    0.12 
   4  -8   6    6.15    0.31 
   4  -9   6    0.13    0.07 
   4 -10   6    0.56    0.11 
   4 -11   6    0.54    0.11 
   4 -12   6    0.02    0.08 
   4 -13   6    0.90    0.15 
   4 -14   6    2.70    0.23 
   4 -15   6   -0.02    0.10 
   4 -16   6    0.05    0.12 
   4 -17   6    0.11    0.13 
   4 -18   6   -0.06    0.14 
   4 -19   6    0.04    0.17 
  -3 -19  -6    0.02    0.15 
  -3 -18  -6    0.45    0.16 
  -3 -17  -6    0.11    0.13 
  -3 -16  -6    0.11    0.09 
  -3 -15  -6    0.35    0.10 
  -3 -14  -6    1.17    0.13 
  -3 -13  -6    0.59    0.10 
  -3 -12  -6    2.38    0.16 
   3  11   6    0.85    0.09 
  -3 -11  -6    0.89    0.10 
   3  10   6    1.12    0.10 
  -3 -10  -6    0.99    0.10 
   3   9   6    0.44    0.06 
  -3  -9  -6    0.24    0.08 
  -3  -9  -6    0.35    0.07 
   3   8   6    1.73    0.11 
  -3  -8  -6    1.63    0.11 
  -3  -8  -6    1.83    0.14 
   3   7   6    0.03    0.03 
  -3  -7  -6    0.02    0.03 
  -3  -7  -6    0.04    0.05 
   3   6   6   10.93    0.43 
  -3  -6  -6   10.73    0.47 
  -3  -6  -6   11.01    0.42 
   3   5   6    0.77    0.06 
  -3  -5  -6    1.04    0.10 
  -3  -5  -6    0.97    0.07 
   3   4   6    1.92    0.10 
  -3  -4  -6    2.12    0.10 
  -3  -4  -6    1.73    0.12 
   3   3   6    1.46    0.09 
  -3  -3  -6    2.23    0.10 
  -3  -3  -6    2.18    0.12 
   3   2   6   19.51    0.83 
  -3  -2  -6   23.53    0.86 
  -3  -2  -6   24.33    0.81 
   3   1   6    0.81    0.07 
  -3  -1  -6    0.75    0.06 
  -3  -1  -6    0.78    0.07 
   3   0   6   53.16    1.95 
  -3   0  -6   55.51    1.90 
  -3   0  -6   52.56    1.99 
   3  -1   6    0.71    0.07 
  -3   1  -6    0.84    0.07 
  -3   1  -6    0.73    0.06 
   3  -2   6   24.95    0.93 
  -3   2  -6   23.85    0.90 
  -3   2  -6   25.02    0.94 
   3  -3   6    2.29    0.13 
   3  -4   6    1.82    0.12 
   3  -5   6    0.82    0.09 
   3  -6   6    9.87    0.42 
   3  -7   6   -0.03    0.04 
   3  -8   6    1.79    0.14 
   3  -9   6    0.29    0.07 
   3 -10   6    0.93    0.13 
   3 -11   6    0.68    0.12 
   3 -12   6    2.43    0.21 
   3 -13   6    0.68    0.14 
   3 -14   6    1.33    0.18 
   3 -15   6    0.32    0.12 
   3 -16   6    0.19    0.13 
   3 -17   6    0.15    0.13 
   3 -18   6    0.22    0.16 
   3 -19   6    0.01    0.15 
  -2 -18  -6    0.07    0.10 
  -2 -17  -6    0.07    0.09 
  -2 -16  -6    0.23    0.10 
  -2 -15  -6    0.20    0.09 
  -2 -14  -6    1.65    0.15 
  -2 -13  -6    0.95    0.12 
  -2 -12  -6    0.77    0.10 
  -2 -11  -6    0.07    0.06 
   2  10   6    0.96    0.09 
  -2 -10  -6    0.88    0.09 
   2   9   6    0.43    0.06 
  -2  -9  -6    0.46    0.07 
   2   8   6    5.66    0.24 
  -2  -8  -6    5.50    0.25 
   2   7   6    0.55    0.05 
  -2  -7  -6    0.34    0.05 
   2   6   6   12.97    0.49 
  -2  -6  -6   12.47    0.49 
   2   5   6    4.43    0.19 
  -2  -5  -6    4.69    0.20 
  -2  -5  -6    4.49    0.23 
   2   4   6    1.51    0.08 
  -2  -4  -6    1.68    0.11 
  -2  -4  -6    1.64    0.09 
   2   3   6    8.73    0.33 
  -2  -3  -6    8.48    0.32 
  -2  -3  -6    8.03    0.35 
   2   2   6    0.18    0.03 
  -2  -2  -6    0.26    0.04 
  -2  -2  -6    0.23    0.03 
   2   1   6    0.25    0.04 
  -2  -1  -6    0.28    0.04 
  -2  -1  -6    0.28    0.04 
   2   0   6    0.23    0.04 
  -2   0  -6    0.31    0.04 
  -2   0  -6    0.24    0.04 
   2  -1   6    0.34    0.05 
  -2   1  -6    0.30    0.04 
  -2   1  -6    0.29    0.04 
   2  -2   6    0.26    0.05 
  -2   2  -6    0.19    0.04 
  -2   2  -6    0.24    0.04 
   2  -3   6    8.26    0.35 
  -2   3  -6    8.36    0.34 
   2  -4   6    1.60    0.11 
   2  -5   6    4.20    0.21 
   2  -6   6   12.32    0.51 
   2  -7   6    0.42    0.08 
   2  -8   6    5.49    0.28 
   2  -9   6    0.44    0.08 
   2 -10   6    0.87    0.12 
   2 -11   6    0.08    0.07 
   2 -12   6    0.47    0.11 
   2 -13   6    0.72    0.13 
   2 -14   6    1.70    0.19 
   2 -15   6    0.21    0.11 
   2 -16   6    0.20    0.12 
   2 -17   6    0.00    0.12 
   2 -18   6    0.04    0.14 
   2 -19   6    0.13    0.16 
  -1 -19  -6    0.22    0.13 
  -1 -18  -6   -0.15    0.09 
  -1 -17  -6    0.39    0.12 
  -1 -16  -6    0.27    0.10 
  -1 -15  -6    0.18    0.09 
  -1 -14  -6    1.18    0.14 
  -1 -13  -6    0.80    0.11 
  -1 -12  -6    0.85    0.11 
  -1 -11  -6    1.44    0.13 
  -1 -10  -6    0.13    0.05 
   1   9   6    2.63    0.13 
  -1  -9  -6    2.58    0.15 
  -1  -8  -6    0.39    0.06 
   1   7   6    0.68    0.05 
  -1  -7  -6    0.67    0.07 
   1   6   6    1.13    0.07 
  -1  -6  -6    1.34    0.09 
   1   5   6   16.78    0.61 
  -1  -5  -6   16.07    0.61 
   1   4   6   12.29    0.45 
  -1  -4  -6   11.94    0.46 
   1   3   6    2.25    0.10 
  -1  -3  -6    2.19    0.11 
  -1  -3  -6    2.15    0.12 
   1   2   6    2.69    0.11 
  -1  -2  -6    2.44    0.13 
  -1  -2  -6    2.45    0.12 
  -1  -1  -6   13.40    0.52 
  -1  -1  -6   13.14    0.49 
   1   0   6   92.66    3.26 
  -1   0  -6   90.37    3.18 
  -1   0  -6   89.44    3.31 
   1  -1   6   12.63    0.49 
  -1   1  -6   12.95    0.48 
   1  -2   6    2.86    0.13 
  -1   2  -6    1.70    0.10 
  -1   2  -6    2.63    0.13 
   1  -3   6    2.09    0.13 
  -1   3  -6    2.23    0.12 
   1  -4   6   11.66    0.48 
  -1   4  -6   12.04    0.47 
   1  -5   6   15.60    0.63 
   1  -6   6    1.20    0.11 
   1  -7   6    0.85    0.10 
   1  -8   6    0.04    0.05 
   1  -9   6    2.81    0.19 
   1 -10   6    0.09    0.07 
   1 -11   6    1.51    0.16 
   1 -12   6    0.92    0.14 
   1 -13   6    0.82    0.14 
   1 -14   6    0.88    0.16 
   1 -15   6    0.27    0.12 
   1 -16   6    0.25    0.13 
   1 -17   6    0.44    0.15 
   1 -18   6   -0.10    0.13 
   1 -19   6   -0.06    0.16 
   0 -19  -6   -0.01    0.12 
   0 -18  -6   -0.04    0.11 
   0 -17  -6    0.08    0.10 
   0 -16  -6    0.18    0.10 
   0 -15  -6   -0.05    0.07 
   0 -14  -6    0.81    0.12 
   0 -13  -6    0.00    0.07 
   0 -12  -6    0.07    0.07 
   0 -11  -6    0.00    0.05 
   0 -10  -6    0.06    0.05 
   0  -9  -6    0.01    0.04 
   0  -9  -6    0.02    0.02 
   0  -8  -6    3.65    0.16 
   0  -8  -6    3.91    0.19 
   0  -7  -6    0.00    0.02 
   0  -7  -6   -0.01    0.04 
   0  -6  -6    5.94    0.26 
   0  -5  -6    0.00    0.03 
   0  -4  -6   24.88    0.91 
   0   3   6    0.02    0.01 
   0  -3  -6    0.03    0.03 
   0   2   6    2.65    0.11 
   0  -2  -6    2.57    0.13 
   0   1   6    0.04    0.02 
   0  -1  -6    0.09    0.03 
   0  -1  -6    0.07    0.03 
   0   0   6   98.91    3.94 
   0   0  -6  121.36    3.85 
   0  -1   6    0.09    0.03 
   0   1  -6    0.06    0.03 
   0   1  -6    0.07    0.02 
   0  -2   6    2.51    0.13 
   0   2  -6    2.43    0.11 
   0   2  -6    2.40    0.13 
   0  -3   6    0.01    0.03 
   0   3  -6    0.02    0.03 
   0  -4   6   24.76    0.94 
   0   4  -6   24.52    0.91 
   0  -5   6   -0.07    0.03 
   0   5  -6    0.07    0.04 
   0  -6   6    5.90    0.29 
   0  -7   6    0.03    0.05 
   0  -8   6    3.65    0.21 
   0  -9   6   -0.03    0.04 
   0 -10   6    0.00    0.06 
   0 -11   6    0.05    0.07 
   0 -12   6    0.02    0.08 
   0 -13   6    0.08    0.09 
   0 -14   6    0.64    0.14 
   0 -15   6    0.04    0.09 
   0 -16   6    0.20    0.13 
   0 -17   6   -0.03    0.12 
   0 -18   6    0.00    0.12 
   0 -19   6    0.02    0.15 
   1 -19  -6   -0.05    0.12 
   1 -18  -6   -0.09    0.10 
   1 -17  -6    0.63    0.14 
   1 -16  -6    0.10    0.10 
   1 -15  -6    0.05    0.08 
   1 -14  -6    0.99    0.13 
   1 -13  -6    0.78    0.12 
   1 -12  -6    0.90    0.12 
   1 -11  -6    1.54    0.14 
   1 -10  -6   -0.01    0.04 
   1  -9  -6    2.64    0.12 
   1  -9  -6    3.12    0.17 
   1  -8  -6    0.20    0.05 
   1  -7  -6    0.81    0.08 
   1  -6  -6    0.88    0.08 
   1  -5  -6   16.24    0.61 
   1  -4  -6   11.10    0.43 
   1  -3  -6    2.29    0.12 
  -1   2   6    2.46    0.11 
   1  -2  -6    2.42    0.12 
  -1   1   6   12.85    0.49 
   1  -1  -6   13.07    0.49 
   1   0  -6   94.85    3.38 
   1   0  -6   90.83    3.25 
   1   1  -6   13.01    0.49 
   1   1  -6   12.11    0.50 
   1   1  -6   13.24    0.48 
   1   2  -6    2.28    0.13 
   1   2  -6    2.35    0.12 
   1   2  -6    2.44    0.10 
   1   3  -6    2.18    0.12 
   1   3  -6    2.03    0.13 
   1   4  -6   11.13    0.45 
   1   4  -6   11.22    0.47 
   1   5  -6   16.73    0.66 
   1   5  -6   15.82    0.63 
   1   6  -6    0.71    0.09 
   1   7  -6    0.69    0.10 
  -1  -8   6    0.28    0.07 
  -1  -9   6    2.68    0.19 
  -1 -10   6    0.11    0.06 
  -1 -11   6    1.60    0.17 
  -1 -12   6    0.81    0.14 
  -1 -13   6    0.93    0.15 
  -1 -14   6    1.28    0.18 
  -1 -15   6    0.25    0.12 
  -1 -16   6    0.37    0.14 
  -1 -17   6    0.23    0.14 
  -1 -18   6   -0.02    0.13 
  -1 -19   6    0.03    0.16 
   2 -19  -6    0.05    0.14 
   2 -18  -6   -0.10    0.10 
   2 -17  -6    0.13    0.11 
   2 -16  -6    0.42    0.12 
   2 -15  -6    0.05    0.09 
   2 -14  -6    0.75    0.13 
   2 -13  -6    0.69    0.12 
   2 -12  -6    1.03    0.13 
   2 -11  -6    0.12    0.07 
   2 -10  -6    0.59    0.09 
   2  -9  -6    0.47    0.04 
   2  -9  -6    0.45    0.08 
   2  -8  -6    5.21    0.25 
   2  -7  -6    0.46    0.07 
   2  -6  -6   12.42    0.49 
   2  -5  -6    4.35    0.20 
   2  -4  -6    1.65    0.10 
   2  -3  -6    8.15    0.33 
   2  -3  -6    8.19    0.31 
   2  -2  -6    0.28    0.03 
   2  -2  -6    0.21    0.04 
   2  -1  -6    0.26    0.04 
   2  -1  -6    0.25    0.04 
   2   0  -6    0.26    0.04 
   2   0  -6    0.22    0.04 
   2   1  -6    0.23    0.05 
   2   1  -6    0.23    0.02 
   2   1  -6    0.25    0.04 
   2   2  -6    0.23    0.05 
   2   2  -6    0.20    0.04 
   2   3  -6    7.97    0.35 
   2   3  -6    8.17    0.33 
   2   4  -6    1.58    0.12 
   2   4  -6    1.50    0.10 
   2   5  -6    4.09    0.22 
   2   5  -6    4.37    0.21 
   2   6  -6   12.68    0.51 
   2   6  -6   12.29    0.53 
   2   7  -6    0.44    0.08 
   2   8  -6    5.61    0.30 
   2   9  -6    0.37    0.09 
   2  10  -6    0.39    0.11 
  -2 -11   6    0.06    0.07 
  -2 -12   6    1.04    0.16 
  -2 -13   6    0.76    0.15 
  -2 -14   6    0.98    0.17 
  -2 -15   6   -0.05    0.09 
  -2 -16   6    0.34    0.14 
  -2 -17   6    0.00    0.11 
  -2 -18   6    0.01    0.13 
  -2 -19   6    0.03    0.15 
   3 -19  -6    0.17    0.13 
   3 -18  -6    0.23    0.13 
   3 -17  -6    0.01    0.10 
   3 -16  -6    0.16    0.10 
   3 -15  -6    0.30    0.11 
   3 -14  -6    1.09    0.15 
   3 -13  -6    0.73    0.13 
   3 -12  -6    2.71    0.19 
   3 -11  -6    0.81    0.11 
   3 -10  -6    1.11    0.12 
   3  -9  -6    0.28    0.07 
   3  -8  -6    1.47    0.07 
   3  -8  -6    1.40    0.12 
   3  -7  -6    0.00    0.04 
   3  -6  -6   10.85    0.44 
   3  -5  -6    0.98    0.09 
   3  -4  -6    2.10    0.12 
   3  -4  -6    1.89    0.09 
   3  -3  -6    2.51    0.11 
   3  -3  -6    2.68    0.14 
   3  -2  -6   25.92    0.92 
   3  -2  -6   24.29    0.91 
   3  -1  -6    0.89    0.06 
   3  -1  -6    0.85    0.07 
   3   0  -6   53.08    1.92 
   3   0  -6   52.73    1.88 
   3   1  -6    0.90    0.08 
   3   1  -6    0.82    0.07 
   3   2  -6   23.98    0.86 
   3   2  -6   23.11    0.90 
   3   3  -6    2.64    0.14 
   3   3  -6    2.50    0.15 
   3   4  -6    1.79    0.13 
   3   4  -6    1.75    0.11 
   3   5  -6    1.10    0.11 
   3   5  -6    1.13    0.10 
   3   6  -6   10.37    0.47 
   3   6  -6   11.06    0.45 
   3   7  -6    0.00    0.04 
   3   8  -6    1.44    0.15 
   3   9  -6    0.35    0.09 
   3  10  -6    1.12    0.15 
   3  11  -6    0.85    0.15 
   3  12  -6    2.24    0.22 
  -3 -13   6    0.61    0.14 
  -3 -14   6    1.19    0.18 
  -3 -15   6    0.13    0.11 
  -3 -16   6    0.08    0.11 
  -3 -17   6   -0.02    0.12 
  -3 -18   6    0.31    0.16 
  -3 -19   6    0.27    0.17 
   4 -19  -6   -0.07    0.12 
   4 -18  -6    0.09    0.13 
   4 -17  -6    0.03    0.11 
   4 -16  -6   -0.03    0.09 
   4 -15  -6    0.22    0.10 
   4 -14  -6    2.88    0.22 
   4 -13  -6    1.22    0.15 
   4 -12  -6    0.08    0.08 
   4 -11  -6    0.73    0.11 
   4 -10  -6    0.37    0.09 
   4  -9  -6    0.09    0.07 
   4  -8  -6    5.45    0.27 
   4  -8  -6    5.63    0.22 
   4  -7  -6    0.89    0.09 
   4  -7  -6    0.78    0.05 
   4  -6  -6    1.08    0.10 
   4  -6  -6    1.23    0.07 
   4  -5  -6    0.88    0.09 
   4  -5  -6    0.85    0.05 
   4  -4  -6   11.15    0.42 
   4  -4  -6   11.15    0.44 
   4  -3  -6    3.43    0.17 
   4  -3  -6    3.46    0.15 
   4  -2  -6    0.97    0.07 
   4  -2  -6    0.95    0.07 
   4  -1  -6    0.47    0.06 
   4  -1  -6    0.49    0.06 
   4   0  -6    3.84    0.17 
   4   0  -6    3.68    0.18 
   4   1  -6    0.44    0.06 
   4   1  -6    0.36    0.05 
   4   2  -6    1.06    0.10 
   4   2  -6    1.11    0.08 
   4   3  -6    3.63    0.18 
   4   3  -6    3.67    0.20 
   4   4  -6   11.31    0.45 
   4   4  -6   11.26    0.48 
   4   5  -6    0.98    0.09 
   4   5  -6    1.09    0.12 
  -4  -6   6    1.23    0.07 
   4   6  -6    1.21    0.13 
   4   6  -6    1.20    0.11 
  -4  -7   6    0.74    0.06 
   4   7  -6    0.85    0.09 
   4   7  -6    0.73    0.11 
   4   8  -6    5.41    0.29 
   4   9  -6    0.11    0.07 
   4  10  -6    0.37    0.11 
   4  11  -6    0.60    0.13 
   4  12  -6    0.20    0.11 
   4  13  -6    1.24    0.19 
   4  14  -6    3.45    0.29 
  -4 -15   6    0.06    0.12 
  -4 -16   6    0.07    0.11 
  -4 -17   6   -0.01    0.13 
  -4 -18   6    0.14    0.15 
  -4 -19   6    0.13    0.17 
   5 -19  -6   -0.16    0.12 
   5 -18  -6    0.27    0.14 
   5 -17  -6   -0.01    0.11 
   5 -16  -6    0.11    0.10 
   5 -15  -6   -0.01    0.09 
   5 -14  -6    0.27    0.11 
   5 -13  -6    0.54    0.12 
   5 -12  -6    0.12    0.09 
   5 -11  -6    3.67    0.23 
   5 -10  -6   -0.07    0.06 
   5  -9  -6    1.02    0.12 
   5  -8  -6    0.05    0.06 
   5  -8  -6    0.12    0.04 
   5  -7  -6    1.11    0.07 
   5  -7  -6    1.06    0.11 
   5  -6  -6    0.52    0.08 
   5  -6  -6    0.61    0.05 
   5  -5  -6    0.02    0.03 
   5  -5  -6    0.13    0.04 
   5  -4  -6    1.48    0.09 
   5  -4  -6    1.49    0.11 
   5  -3  -6    1.10    0.09 
   5  -3  -6    1.15    0.08 
   5  -2  -6    0.35    0.05 
   5  -2  -6    0.34    0.05 
   5  -1  -6    0.02    0.03 
   5  -1  -6    0.04    0.03 
   5   0  -6    0.10    0.04 
   5   0  -6    0.08    0.03 
   5   1  -6   -0.04    0.03 
   5   1  -6    0.02    0.02 
   5   2  -6    0.35    0.07 
   5   2  -6    0.41    0.05 
   5   3  -6    1.21    0.11 
   5   3  -6    1.20    0.09 
   5   4  -6    1.33    0.13 
   5   4  -6    1.61    0.11 
   5   5  -6    0.03    0.04 
   5   5  -6    0.05    0.03 
  -5  -6   6    0.56    0.05 
   5   6  -6    0.58    0.10 
   5   6  -6    0.72    0.08 
  -5  -7   6    1.01    0.07 
   5   7  -6    1.03    0.10 
   5   7  -6    0.98    0.12 
  -5  -8   6    0.09    0.04 
   5   8  -6    0.06    0.06 
  -5  -9   6    1.11    0.09 
   5   9  -6    1.13    0.15 
  -5 -10   6    0.01    0.04 
   5  10  -6    0.11    0.08 
   5  11  -6    3.37    0.25 
   5  12  -6    0.21    0.11 
   5  13  -6    0.72    0.16 
   5  14  -6    0.05    0.11 
   5  15  -6   -0.10    0.10 
  -5 -16   6    0.08    0.13 
  -5 -17   6    0.02    0.12 
  -5 -18   6    0.33    0.17 
  -5 -19   6    0.02    0.16 
   6 -18  -6    0.10    0.14 
   6 -17  -6    0.03    0.11 
   6 -16  -6   -0.09    0.09 
   6 -15  -6   -0.06    0.09 
   6 -14  -6    1.97    0.19 
   6 -13  -6    0.81    0.14 
   6 -12  -6    0.13    0.09 
   6 -11  -6    4.62    0.26 
   6 -10  -6    0.12    0.08 
   6  -9  -6    0.20    0.08 
   6  -8  -6    0.38    0.09 
   6  -8  -6    0.39    0.06 
   6  -7  -6    1.64    0.13 
   6  -7  -6    1.63    0.10 
   6  -6  -6    1.14    0.11 
   6  -6  -6    1.36    0.09 
   6  -5  -6    2.90    0.14 
   6  -5  -6    2.86    0.16 
   6  -4  -6   11.98    0.47 
   6  -4  -6   11.27    0.45 
   6  -3  -6    1.32    0.10 
   6  -3  -6    1.14    0.09 
   6  -2  -6   -0.04    0.03 
   6  -2  -6    0.04    0.04 
   6  -1  -6    0.81    0.08 
   6  -1  -6    0.74    0.07 
   6   0  -6    4.84    0.24 
   6   0  -6    5.13    0.22 
   6   1  -6    0.76    0.09 
   6   1  -6    0.69    0.07 
   6   2  -6   -0.04    0.04 
   6   2  -6   -0.01    0.03 
   6   3  -6    1.16    0.09 
   6   3  -6    1.39    0.12 
   6   4  -6   11.83    0.47 
   6   4  -6   12.12    0.52 
  -6  -5   6    2.80    0.12 
   6   5  -6    2.72    0.15 
   6   5  -6    2.57    0.18 
  -6  -6   6    1.12    0.07 
   6   6  -6    1.19    0.10 
   6   6  -6    1.11    0.13 
  -6  -7   6    1.62    0.09 
   6   7  -6    1.46    0.15 
   6   7  -6    1.62    0.12 
  -6  -8   6    0.41    0.05 
   6   8  -6    0.44    0.11 
   6   9  -6    0.33    0.10 
   6  10  -6    0.21    0.10 
   6  11  -6    4.74    0.31 
   6  12  -6   -0.05    0.09 
   6  13  -6    0.71    0.16 
   6  14  -6    1.78    0.23 
   6  15  -6    0.01    0.11 
   6  16  -6   -0.09    0.12 
   6  17  -6   -0.03    0.13 
  -6 -18   6    0.33    0.17 
   7 -18  -6   -0.13    0.12 
   7 -17  -6    0.00    0.11 
   7 -16  -6    0.27    0.13 
   7 -15  -6   -0.03    0.10 
   7 -14  -6    0.01    0.10 
   7 -13  -6    0.04    0.08 
   7 -12  -6    0.21    0.09 
   7 -11  -6    3.64    0.24 
   7 -10  -6   -0.05    0.07 
   7  -9  -6    2.15    0.16 
   7  -8  -6   -0.03    0.04 
   7  -8  -6   -0.04    0.06 
   7  -7  -6    1.56    0.14 
   7  -7  -6    1.52    0.10 
   7  -6  -6    0.40    0.08 
   7  -6  -6    0.46    0.06 
   7  -5  -6    1.71    0.11 
   7  -5  -6    1.62    0.12 
   7  -4  -6    1.11    0.09 
   7  -4  -6    1.20    0.10 
   7  -3  -6    1.04    0.09 
   7  -3  -6    0.98    0.09 
   7  -2  -6    2.59    0.15 
   7  -2  -6    2.79    0.15 
   7  -1  -6    0.95    0.08 
   7  -1  -6    0.95    0.09 
   7   0  -6   19.86    0.72 
   7   0  -6   18.67    0.75 
   7   1  -6    0.92    0.08 
   7   1  -6    0.85    0.10 
   7   2  -6    2.67    0.14 
   7   2  -6    2.82    0.17 
   7   3  -6    1.05    0.09 
   7   3  -6    1.03    0.12 
   7   4  -6    1.20    0.10 
   7   4  -6    1.18    0.13 
   7   5  -6    1.73    0.12 
   7   5  -6    1.57    0.15 
  -7  -6   6    0.45    0.05 
   7   6  -6    0.43    0.09 
   7   6  -6    0.42    0.07 
  -7  -7   6    1.66    0.10 
   7   7  -6    1.62    0.12 
   7   7  -6    1.69    0.17 
   7   8  -6   -0.02    0.06 
   7   9  -6    2.06    0.20 
   7  10  -6    0.04    0.09 
   7  11  -6    3.89    0.28 
   7  12  -6    0.21    0.12 
   7  13  -6    0.05    0.09 
   7  14  -6    0.12    0.12 
   7  15  -6    0.07    0.13 
   7  16  -6    0.19    0.14 
   7  17  -6    0.19    0.16 
   7  18  -6    0.13    0.15 
   8 -18  -6    0.27    0.16 
   8 -17  -6    0.12    0.13 
   8 -16  -6   -0.09    0.11 
   8 -15  -6    0.02    0.11 
   8 -14  -6    0.49    0.13 
   8 -13  -6    0.12    0.10 
   8 -12  -6    0.16    0.09 
   8 -11  -6    1.56    0.16 
   8 -10  -6    4.63    0.27 
   8  -9  -6   -0.05    0.07 
   8  -8  -6    0.03    0.05 
   8  -8  -6    0.07    0.07 
   8  -7  -6    0.01    0.05 
   8  -7  -6   -0.08    0.06 
   8  -6  -6    0.88    0.09 
   8  -6  -6    1.02    0.11 
   8  -5  -6    1.02    0.10 
   8  -5  -6    0.94    0.10 
   8  -4  -6    0.18    0.05 
   8  -4  -6    0.15    0.06 
   8  -3  -6    0.19    0.05 
   8  -3  -6    0.14    0.05 
   8  -2  -6    2.11    0.14 
   8  -2  -6    2.63    0.14 
   8  -1  -6    1.69    0.12 
   8  -1  -6    1.43    0.11 
   8   0  -6    4.26    0.23 
   8   0  -6    4.55    0.21 
   8   1  -6    1.64    0.11 
   8   1  -6    1.57    0.13 
   8   2  -6    2.47    0.17 
   8   2  -6    2.45    0.14 
   8   3  -6    0.14    0.07 
   8   3  -6    0.20    0.05 
   8   4  -6    0.19    0.05 
   8   4  -6    0.12    0.07 
   8   5  -6    1.07    0.10 
   8   5  -6    1.19    0.14 
  -8  -6   6    0.95    0.07 
   8   6  -6    0.67    0.12 
   8   6  -6    0.98    0.10 
   8   7  -6   -0.01    0.05 
   8   7  -6   -0.01    0.06 
   8   8  -6    0.18    0.09 
   8   9  -6   -0.04    0.08 
   8  10  -6    4.07    0.28 
   8  11  -6    1.87    0.22 
   8  12  -6    0.12    0.10 
   8  13  -6   -0.02    0.10 
   8  14  -6    0.48    0.16 
   8  15  -6   -0.07    0.13 
   8  16  -6    0.07    0.14 
   8  17  -6    0.25    0.15 
   8  18  -6    0.52    0.19 
   9 -17  -6    0.20    0.14 
   9 -16  -6    0.14    0.13 
   9 -15  -6    0.56    0.14 
   9 -14  -6    0.10    0.09 
   9 -13  -6    1.02    0.16 
   9 -12  -6    0.02    0.08 
   9 -11  -6   -0.01    0.08 
   9 -10  -6    2.02    0.18 
   9  -9  -6    1.43    0.15 
   9  -8  -6    1.56    0.15 
   9  -8  -6    1.75    0.13 
   9  -7  -6    0.56    0.09 
   9  -7  -6    0.50    0.10 
   9  -6  -6    0.35    0.08 
   9  -6  -6    0.33    0.09 
   9  -5  -6    1.18    0.11 
   9  -5  -6    1.24    0.12 
   9  -4  -6    2.86    0.17 
   9  -4  -6    3.09    0.18 
   9  -3  -6    0.00    0.05 
   9  -3  -6    0.01    0.04 
   9  -2  -6    0.74    0.10 
   9  -2  -6    0.82    0.09 
   9  -1  -6   -0.02    0.04 
   9  -1  -6    0.02    0.05 
   9   0  -6    2.53    0.15 
   9   0  -6    2.59    0.17 
   9   1  -6    0.08    0.06 
   9   1  -6    0.12    0.05 
   9   2  -6    0.86    0.08 
   9   2  -6    0.63    0.10 
   9   3  -6    0.01    0.04 
   9   3  -6    0.01    0.05 
   9   4  -6    2.91    0.16 
   9   4  -6    3.02    0.20 
   9   5  -6    1.09    0.10 
   9   5  -6    1.04    0.14 
   9   6  -6    0.20    0.08 
   9   6  -6    0.30    0.06 
   9   7  -6    0.49    0.11 
   9   7  -6    0.46    0.08 
   9   8  -6    1.68    0.19 
   9   8  -6    1.47    0.13 
   9   9  -6    1.60    0.19 
   9  10  -6    1.90    0.21 
   9  11  -6    0.09    0.10 
   9  12  -6    0.13    0.11 
   9  13  -6    0.84    0.17 
   9  14  -6   -0.02    0.12 
   9  15  -6    0.61    0.18 
   9  16  -6    0.16    0.14 
   9  17  -6    0.08    0.15 
  10 -17  -6    0.16    0.11 
  10 -16  -6    0.09    0.11 
  10 -15  -6    0.00    0.10 
  10 -14  -6    0.81    0.15 
  10 -13  -6    0.24    0.10 
  10 -12  -6    0.05    0.09 
  10 -11  -6    0.81    0.14 
  10 -10  -6    2.00    0.18 
  10  -9  -6    1.06    0.14 
  10  -8  -6    0.83    0.11 
  10  -8  -6    0.73    0.12 
  10  -7  -6    2.74    0.17 
  10  -7  -6    2.81    0.19 
  10  -6  -6    1.87    0.14 
  10  -6  -6    1.78    0.15 
  10  -5  -6    2.40    0.16 
  10  -5  -6    2.63    0.17 
  10  -4  -6    0.20    0.06 
  10  -4  -6    0.14    0.07 
  10  -3  -6    2.48    0.16 
  10  -3  -6    2.51    0.16 
  10  -2  -6    0.15    0.07 
  10  -2  -6    0.10    0.06 
  10  -1  -6    0.10    0.05 
  10  -1  -6    0.03    0.06 
  10   0  -6    2.53    0.15 
  10   0  -6    2.40    0.17 
  10   1  -6    0.11    0.05 
  10   1  -6   -0.03    0.05 
  10   2  -6    0.17    0.05 
  10   2  -6    0.28    0.08 
  10   3  -6    2.23    0.17 
  10   3  -6    1.89    0.12 
  10   4  -6    0.26    0.09 
  10   5  -6    2.32    0.19 
  10   6  -6    1.73    0.18 
  10   7  -6    2.76    0.23 
  10   7  -6    2.04    0.14 
  10   8  -6    0.83    0.10 
  10   8  -6    0.84    0.16 
  10   9  -6    1.03    0.17 
  10  10  -6    1.93    0.22 
  10  11  -6    0.64    0.14 
  10  12  -6    0.23    0.12 
  10  13  -6    0.53    0.16 
  10  14  -6    0.46    0.15 
  10  15  -6    0.05    0.13 
  10  16  -6   -0.03    0.13 
  10  17  -6    0.43    0.17 
  11 -16  -6    0.02    0.10 
  11 -15  -6    0.21    0.12 
  11 -14  -6    0.02    0.10 
  11 -13  -6    0.82    0.16 
  11 -12  -6    0.09    0.10 
  11 -11  -6    0.15    0.10 
  11 -10  -6    0.40    0.11 
  11  -9  -6    0.50    0.12 
  11  -8  -6    0.76    0.13 
  11  -7  -6    1.06    0.13 
  11  -7  -6    0.92    0.12 
  11  -6  -6    0.03    0.07 
  11  -6  -6   -0.02    0.08 
  11  -5  -6    0.20    0.08 
  11  -5  -6    0.19    0.08 
  11  -4  -6    0.06    0.07 
  11  -4  -6    0.02    0.06 
  11  -3  -6    0.47    0.08 
  11  -3  -6    0.46    0.10 
  11  -2  -6    0.01    0.05 
  11  -2  -6    0.06    0.06 
  11  -1  -6   -0.08    0.05 
  11  -1  -6   -0.01    0.05 
  11   0  -6    0.69    0.08 
  11   0  -6    0.66    0.11 
  11   1  -6    0.03    0.07 
  11   1  -6   -0.04    0.04 
  11   2  -6    0.05    0.08 
  11   2  -6    0.01    0.04 
  11   3  -6    0.16    0.09 
  11   3  -6    0.03    0.03 
  11   4  -6    0.05    0.04 
  11   4  -6    0.01    0.07 
  11   5  -6    0.23    0.06 
  11   5  -6    0.11    0.09 
  11   6  -6    0.01    0.05 
  11   6  -6    0.03    0.09 
  11   7  -6    0.83    0.15 
  11   7  -6    0.91    0.11 
  11   8  -6    0.66    0.15 
  11   9  -6    0.35    0.12 
  11  10  -6    0.17    0.11 
  11  11  -6   -0.18    0.08 
  11  12  -6   -0.04    0.10 
  11  13  -6    0.94    0.19 
  11  14  -6    0.06    0.13 
  11  15  -6    0.06    0.12 
  11  16  -6    0.15    0.16 
  12 -16  -6    0.31    0.12 
  12 -15  -6    0.20    0.12 
  12 -14  -6    0.27    0.13 
  12 -13  -6    0.07    0.11 
  12 -12  -6    0.13    0.11 
  12 -11  -6   -0.05    0.09 
  12 -10  -6    0.07    0.10 
  12  -9  -6    0.17    0.10 
  12  -8  -6    0.05    0.08 
  12  -7  -6    0.89    0.12 
  12  -7  -6    0.75    0.13 
  12  -6  -6    0.25    0.10 
  12  -6  -6    0.24    0.09 
  12  -5  -6    0.01    0.07 
  12  -5  -6    0.10    0.08 
  12  -4  -6    0.73    0.12 
  12  -4  -6    0.64    0.11 
  12  -3  -6    0.25    0.09 
  12  -3  -6    0.23    0.08 
  12  -2  -6   -0.02    0.07 
  12  -2  -6    0.04    0.06 
  12  -1  -6    0.41    0.08 
  12  -1  -6    0.38    0.10 
  12   0  -6    0.02    0.05 
  12   0  -6   -0.04    0.07 
  12   1  -6    0.34    0.07 
  12   1  -6    0.37    0.11 
  12   2  -6   -0.06    0.07 
  12   2  -6    0.03    0.03 
  12   3  -6    0.40    0.12 
  12   3  -6    0.38    0.07 
  12   4  -6    0.73    0.14 
  12   4  -6    0.52    0.08 
  12   5  -6   -0.06    0.08 
  12   6  -6    0.03    0.09 
  12   7  -6    0.55    0.13 
  12   8  -6    0.05    0.08 
  12   9  -6    0.16    0.11 
  12  10  -6    0.05    0.10 
  12  11  -6   -0.01    0.10 
  12  12  -6    0.02    0.12 
  12  13  -6    0.10    0.13 
  12  14  -6   -0.04    0.12 
  12  15  -6    0.31    0.16 
  13 -15  -6    0.06    0.12 
  13 -14  -6    0.07    0.12 
  13 -13  -6    0.00    0.11 
  13 -12  -6    0.24    0.13 
  13 -11  -6   -0.04    0.10 
  13 -10  -6    0.24    0.11 
  13  -9  -6    0.10    0.09 
  13  -8  -6   -0.10    0.08 
  13  -7  -6    0.86    0.13 
  13  -7  -6    0.72    0.12 
  13  -6  -6    0.36    0.10 
  13  -6  -6    0.01    0.08 
  13  -5  -6    0.11    0.08 
  13  -5  -6    0.00    0.08 
  13  -4  -6    2.65    0.18 
  13  -4  -6    2.76    0.20 
  13  -3  -6    0.16    0.08 
  13  -3  -6    0.05    0.08 
  13  -2  -6    0.17    0.09 
  13  -2  -6    0.04    0.07 
  13  -1  -6    0.37    0.11 
  13  -1  -6    0.50    0.08 
  13   0  -6    0.61    0.09 
  13   0  -6    0.57    0.12 
  13   1  -6    0.25    0.10 
  13   2  -6    0.12    0.06 
  13   2  -6    0.18    0.10 
  13   3  -6    0.08    0.09 
  13   4  -6    2.48    0.23 
  13   5  -6   -0.06    0.09 
  13   6  -6    0.29    0.11 
  13   7  -6    0.78    0.15 
  13   8  -6    0.09    0.10 
  13   9  -6    0.04    0.10 
  13  10  -6    0.06    0.12 
  13  11  -6    0.22    0.13 
  13  12  -6   -0.13    0.10 
  13  13  -6    0.01    0.12 
  13  14  -6    0.03    0.13 
  13  15  -6    0.36    0.15 
  14 -14  -6    0.06    0.12 
  14 -13  -6    0.03    0.12 
  14 -12  -6    0.22    0.13 
  14 -11  -6    0.62    0.15 
  14 -10  -6   -0.04    0.10 
  14  -9  -6   -0.14    0.08 
  14  -8  -6    0.02    0.10 
  14  -7  -6    0.25    0.10 
  14  -7  -6    0.35    0.11 
  14  -6  -6    0.09    0.09 
  14  -6  -6    0.08    0.10 
  14  -5  -6   -0.13    0.08 
  14  -5  -6    0.05    0.09 
  14  -4  -6    1.39    0.16 
  14  -4  -6    1.08    0.14 
  14  -3  -6    0.06    0.09 
  14  -3  -6   -0.01    0.09 
  14  -2  -6    0.01    0.08 
  14  -2  -6   -0.07    0.08 
  14  -1  -6    0.90    0.15 
  14  -1  -6    0.93    0.11 
  14   0  -6    0.48    0.13 
  14   0  -6    0.42    0.07 
  14   1  -6    0.65    0.14 
  14   2  -6   -0.08    0.07 
  14   3  -6    0.02    0.09 
  14   4  -6    1.06    0.17 
  14   5  -6    0.01    0.09 
  14   6  -6   -0.09    0.09 
  14   7  -6    0.30    0.12 
  14   8  -6    0.02    0.10 
  14   9  -6    0.06    0.12 
  14  10  -6    0.00    0.11 
  14  11  -6    0.22    0.14 
  14  12  -6   -0.08    0.11 
  14  13  -6   -0.28    0.11 
  14  14  -6    0.30    0.14 
  15 -13  -6    0.11    0.13 
  15 -12  -6    0.14    0.12 
  15 -11  -6    0.08    0.11 
  15 -10  -6   -0.05    0.11 
  15  -9  -6    0.05    0.12 
  15  -8  -6    0.22    0.11 
  15  -7  -6    0.04    0.10 
  15  -6  -6    0.10    0.10 
  15  -6  -6    0.13    0.11 
  15  -5  -6    0.00    0.09 
  15  -5  -6   -0.09    0.09 
  15  -4  -6    0.17    0.10 
  15  -4  -6    0.11    0.09 
  15  -3  -6    0.33    0.11 
  15  -3  -6    0.40    0.12 
  15  -2  -6    1.00    0.16 
  15  -2  -6    1.27    0.14 
  15  -1  -6    0.28    0.11 
  15   0  -6    0.11    0.10 
  15   1  -6    0.28    0.12 
  15   2  -6    1.24    0.18 
  15   3  -6    0.42    0.13 
  15   4  -6    0.17    0.10 
  15   5  -6    0.03    0.11 
  15   6  -6   -0.11    0.09 
  15   7  -6    0.03    0.11 
  15   8  -6    0.03    0.11 
  15   9  -6    0.09    0.13 
  15  10  -6   -0.11    0.12 
  15  11  -6    0.03    0.14 
  15  12  -6    0.18    0.13 
  15  13  -6   -0.01    0.11 
  16 -12  -6    0.10    0.12 
  16 -11  -6   -0.03    0.13 
  16 -10  -6    0.03    0.12 
  16  -9  -6    0.05    0.12 
  16  -8  -6   -0.01    0.11 
  16  -7  -6    0.52    0.13 
  16  -6  -6   -0.06    0.09 
  16  -6  -6    0.00    0.10 
  16  -5  -6    0.11    0.10 
  16  -5  -6    0.00    0.10 
  16  -4  -6   -0.14    0.09 
  16  -4  -6   -0.10    0.10 
  16  -3  -6    0.55    0.13 
  16  -2  -6    0.26    0.11 
  16  -1  -6    0.86    0.16 
  16   0  -6    0.11    0.11 
  16   1  -6    0.94    0.17 
  16   2  -6    0.03    0.10 
  16   3  -6    0.34    0.12 
  16   4  -6   -0.06    0.10 
  16   5  -6    0.08    0.12 
  16   6  -6   -0.15    0.10 
  16   7  -6    0.18    0.14 
  16   8  -6   -0.04    0.12 
  16   9  -6    0.03    0.12 
  16  10  -6    0.09    0.13 
  16  11  -6    0.02    0.12 
  16  12  -6    0.20    0.14 
  17 -11  -6    0.22    0.14 
  17 -10  -6    0.22    0.14 
  17  -9  -6    0.01    0.13 
  17  -8  -6   -0.10    0.11 
  17  -7  -6    0.05    0.13 
  17  -5  -6    0.02    0.11 
  17  -4  -6   -0.01    0.11 
  17  -3  -6    0.22    0.12 
  17  -2  -6   -0.10    0.10 
  17  -1  -6   -0.02    0.11 
  17   0  -6    0.11    0.11 
  17   1  -6    0.16    0.12 
  17   2  -6   -0.18    0.09 
  17   3  -6    0.03    0.11 
  17   4  -6    0.01    0.11 
  17   5  -6   -0.07    0.12 
  17   6  -6    0.17    0.15 
  17   7  -6    0.13    0.15 
  17   8  -6    0.01    0.14 
  17   9  -6   -0.07    0.14 
  17  10  -6    0.17    0.14 
  17  11  -6    0.09    0.13 
  18  -5  -6    0.26    0.15 
  18  -4  -6    0.18    0.13 
  18  -3  -6    0.06    0.13 
  18  -2  -6   -0.05    0.13 
  18  -1  -6    0.57    0.16 
  18   0  -6    0.04    0.13 
  18   1  -6    0.30    0.15 
  18   2  -6   -0.04    0.12 
  18   3  -6    0.22    0.15 
  18   4  -6    0.14    0.15 
  18   5  -6   -0.09    0.12 
  18   6  -6   -0.02    0.14 
  18   7  -6   -0.03    0.15 
  18   8  -6    0.20    0.17 
  18   9  -6    0.02    0.15 
  19  -5  -6    0.00    0.15 
  19  -4  -6   -0.07    0.13 
  19  -3  -6    0.00    0.13 
  19  -2  -6    0.11    0.14 
  19  -1  -6    0.09    0.14 
  19   0  -6    0.10    0.14 
  19   1  -6   -0.04    0.13 
  19   2  -6    0.06    0.13 
  19   3  -6   -0.07    0.14 
  19   4  -6    0.00    0.15 
  19   5  -6   -0.09    0.14 
  19   6  -6   -0.01    0.16 
  19   7  -6   -0.11    0.15 
  20  -4  -6   -0.01    0.16 
  20  -3  -6    0.11    0.16 
  20  -2  -6    0.19    0.17 
  20  -1  -6    0.09    0.15 
  20   0  -6   -0.06    0.15 
  20   1  -6   -0.13    0.13 
  20   2  -6    0.02    0.15 
  20   3  -6    0.08    0.16 
  20   4  -6    0.01    0.16 
  20   3   7    0.13    0.11 
  20   2   7    0.19    0.12 
  20   1   7    0.51    0.13 
  20   0   7    0.17    0.11 
  20  -1   7    0.23    0.11 
  20  -2   7   -0.02    0.15 
  20  -3   7   -0.01    0.14 
  19   6   7    0.07    0.10 
 -19  -6  -7   -0.06    0.15 
  19   5   7    0.17    0.10 
  19   4   7    0.12    0.11 
  19   3   7    0.07    0.12 
  19   2   7    0.30    0.11 
  19   1   7    0.02    0.10 
  19   0   7    0.07    0.10 
  19  -1   7    0.00    0.10 
  19  -2   7    0.11    0.16 
  19  -3   7   -0.03    0.15 
  19  -4   7   -0.07    0.13 
  19  -5   7    0.11    0.17 
  19  -6   7    0.05    0.15 
  18   8   7    0.06    0.11 
 -18  -8  -7    0.15    0.15 
  18   7   7    0.18    0.11 
 -18  -7  -7   -0.13    0.13 
  18   6   7    0.12    0.11 
 -18  -6  -7   -0.06    0.13 
  18   5   7    0.25    0.13 
 -18  -5  -7    0.02    0.13 
  18   4   7    0.17    0.11 
  18   3   7    0.49    0.14 
  18   2   7    0.06    0.10 
  18   1   7    0.44    0.13 
  18   0   7    0.11    0.10 
  18  -1   7    0.37    0.13 
  18  -2   7    0.17    0.15 
  18  -3   7    0.22    0.15 
  18  -4   7    0.04    0.12 
  18  -5   7    0.24    0.15 
  18  -6   7   -0.03    0.14 
  18  -7   7    0.00    0.16 
  18  -8   7   -0.06    0.15 
  17  10   7    0.09    0.12 
 -17 -10  -7    0.36    0.18 
  17   9   7    0.16    0.13 
 -17  -9  -7   -0.10    0.14 
  17   8   7    0.18    0.13 
 -17  -8  -7    0.31    0.16 
  17   7   7    0.09    0.11 
 -17  -7  -7   -0.09    0.13 
  17   6   7    0.10    0.10 
 -17  -6  -7    0.05    0.13 
  17   5   7    0.15    0.11 
 -17  -5  -7    0.01    0.12 
  17   4   7    0.15    0.11 
 -17  -4  -7    0.05    0.12 
  17   3   7   -0.05    0.09 
  17   2   7    0.04    0.10 
  17   1   7    0.06    0.10 
  17   0   7    0.11    0.10 
  17  -1   7    0.00    0.08 
  17  -2   7    0.00    0.11 
  17  -3   7   -0.04    0.12 
  17  -4   7    0.17    0.14 
  17  -5   7    0.23    0.14 
  17  -6   7    0.04    0.12 
  17  -7   7   -0.03    0.14 
  17  -8   7    0.14    0.15 
  17  -9   7    0.04    0.15 
  17 -10   7   -0.11    0.14 
  16  11   7    0.30    0.15 
 -16 -11  -7    0.13    0.15 
  16  10   7    0.04    0.13 
 -16 -10  -7   -0.03    0.14 
  16   9   7    0.83    0.17 
 -16  -9  -7    0.36    0.15 
  16   8   7    0.01    0.10 
 -16  -8  -7    0.09    0.13 
  16   7   7   -0.01    0.10 
 -16  -7  -7   -0.08    0.11 
  16   6   7    0.05    0.10 
 -16  -6  -7    0.18    0.12 
  16   5   7    0.27    0.11 
 -16  -5  -7    0.10    0.11 
  16   4   7    0.07    0.10 
 -16  -4  -7    0.09    0.11 
  16   3   7    0.07    0.10 
 -16  -3  -7    0.03    0.10 
  16   2   7    0.54    0.13 
  16   1   7    0.33    0.11 
  16   0   7    0.04    0.09 
  16  -1   7    0.34    0.12 
  16  -2   7    0.53    0.13 
  16  -3   7    0.08    0.11 
  16  -4   7   -0.09    0.10 
  16  -5   7    0.27    0.14 
  16  -6   7   -0.02    0.12 
  16  -7   7    0.15    0.14 
  16  -8   7    0.12    0.13 
  16  -9   7    0.32    0.16 
  16 -10   7    0.18    0.15 
  16 -11   7    0.17    0.16 
 -15 -13  -7    0.17    0.16 
  15  12   7    0.21    0.15 
 -15 -12  -7   -0.05    0.14 
  15  11   7    0.20    0.13 
 -15 -11  -7   -0.03    0.13 
  15  10   7   -0.17    0.10 
 -15 -10  -7    0.10    0.12 
  15   9   7    0.22    0.12 
 -15  -9  -7    0.08    0.11 
  15   8   7    0.44    0.13 
 -15  -8  -7    0.47    0.14 
  15   7   7    0.13    0.10 
 -15  -7  -7    0.05    0.11 
  15   6   7   -0.25    0.07 
 -15  -6  -7   -0.05    0.09 
  15   5   7    0.06    0.09 
 -15  -5  -7    0.28    0.13 
  15   4   7    0.05    0.09 
 -15  -4  -7    0.11    0.11 
  15   3   7   -0.04    0.08 
 -15  -3  -7   -0.04    0.09 
  15   2   7    0.42    0.12 
 -15  -2  -7    0.10    0.10 
  15   1   7    0.03    0.09 
  15   0   7    0.01    0.08 
  15  -1   7   -0.06    0.07 
  15  -2   7    0.29    0.11 
  15  -3   7    0.04    0.10 
  15  -4   7    0.13    0.11 
  15  -5   7    0.05    0.11 
  15  -6   7   -0.05    0.10 
  15  -7   7    0.01    0.09 
  15  -8   7    0.59    0.15 
  15  -9   7    0.05    0.12 
  15 -10   7    0.00    0.12 
  15 -11   7   -0.09    0.13 
  15 -11   7   -0.10    0.12 
  15 -12   7    0.33    0.15 
  15 -12   7    0.00    0.14 
  15 -13   7    0.07    0.16 
  15 -13   7    0.18    0.15 
 -14 -13  -7    0.13    0.15 
  14  12   7    0.16    0.14 
 -14 -12  -7   -0.01    0.13 
  14  11   7   -0.09    0.10 
 -14 -11  -7    0.10    0.12 
  14  10   7    0.19    0.12 
 -14 -10  -7   -0.03    0.12 
  14   9   7    0.11    0.10 
 -14  -9  -7   -0.10    0.10 
  14   8   7    0.32    0.11 
 -14  -8  -7    0.25    0.12 
  14   7   7    0.46    0.12 
 -14  -7  -7    0.38    0.13 
  14   6   7    0.02    0.09 
 -14  -6  -7   -0.05    0.09 
  14   5   7    0.37    0.11 
 -14  -5  -7    0.34    0.12 
  14   4   7   -0.06    0.08 
 -14  -4  -7   -0.04    0.09 
  14   3   7    0.57    0.12 
 -14  -3  -7    0.64    0.14 
  14   2   7    0.23    0.10 
 -14  -2  -7   -0.09    0.08 
  14   1   7    0.09    0.09 
  14   0   7   -0.06    0.08 
  14  -1   7    0.18    0.09 
  14  -2   7    0.10    0.08 
  14  -3   7    0.59    0.14 
  14  -4   7    0.01    0.09 
  14  -5   7    0.31    0.11 
  14  -6   7    0.03    0.10 
  14  -7   7    0.26    0.12 
  14  -8   7    0.19    0.12 
  14  -8   7    0.24    0.12 
  14  -9   7    0.10    0.12 
  14  -9   7    0.41    0.14 
  14 -10   7   -0.04    0.12 
  14 -10   7   -0.02    0.12 
  14 -11   7    0.27    0.14 
  14 -11   7    0.14    0.13 
  14 -12   7    0.13    0.14 
  14 -12   7   -0.05    0.12 
  14 -13   7    0.16    0.15 
  14 -13   7   -0.05    0.13 
  14 -14   7   -0.01    0.13 
  14 -14   7    0.06    0.15 
 -13 -14  -7   -0.08    0.13 
 -13 -13  -7    0.01    0.14 
  13  12   7    0.14    0.14 
 -13 -12  -7   -0.04    0.12 
  13  11   7    0.15    0.11 
 -13 -11  -7    0.16    0.13 
  13  10   7    0.01    0.10 
 -13 -10  -7    0.11    0.10 
  13   9   7    0.00    0.09 
 -13  -9  -7    0.14    0.12 
  13   8   7    0.13    0.10 
 -13  -8  -7    0.10    0.10 
  13   7   7    0.34    0.10 
 -13  -7  -7    0.26    0.11 
  13   6   7    0.17    0.10 
 -13  -6  -7    0.27    0.11 
  13   5   7    0.29    0.10 
 -13  -5  -7    0.34    0.12 
  13   4   7    0.55    0.12 
 -13  -4  -7    0.49    0.12 
  13   3   7    0.13    0.08 
 -13  -3  -7    0.08    0.09 
  13   2   7    0.24    0.10 
 -13  -2  -7    0.31    0.11 
  13   1   7    0.09    0.08 
 -13  -1  -7   -0.03    0.08 
  13   0   7    0.01    0.08 
  13  -1   7    0.11    0.09 
  13  -2   7    0.08    0.09 
  13  -3   7    0.00    0.09 
  13  -4   7    0.73    0.14 
  13  -5   7    0.38    0.11 
  13  -6   7    0.34    0.11 
  13  -6   7    0.19    0.09 
  13  -7   7    0.22    0.12 
  13  -7   7    0.48    0.12 
  13  -8   7   -0.01    0.09 
  13  -8   7    0.01    0.10 
  13  -9   7    0.09    0.10 
  13  -9   7    0.10    0.10 
  13 -10   7    0.03    0.11 
  13 -10   7    0.14    0.12 
  13 -11   7    0.06    0.11 
  13 -11   7    0.00    0.11 
  13 -12   7    0.23    0.14 
  13 -12   7    0.12    0.11 
  13 -13   7    0.07    0.13 
  13 -13   7    0.23    0.13 
  13 -14   7   -0.03    0.14 
  13 -14   7   -0.01    0.13 
 -12 -15  -7   -0.06    0.14 
 -12 -14  -7   -0.01    0.14 
 -12 -13  -7    0.03    0.13 
  12  12   7    0.26    0.14 
 -12 -12  -7    0.21    0.13 
  12  11   7    0.07    0.10 
 -12 -11  -7    0.16    0.11 
  12  10   7    0.01    0.10 
 -12 -10  -7   -0.06    0.09 
  12   9   7    0.68    0.14 
 -12  -9  -7    0.71    0.15 
  12   8   7    0.14    0.09 
 -12  -8  -7    0.25    0.11 
  12   7   7    0.10    0.09 
 -12  -7  -7    0.26    0.11 
  12   6   7    0.56    0.12 
 -12  -6  -7    0.45    0.12 
  12   5   7    0.37    0.10 
 -12  -5  -7    0.40    0.11 
  12   4   7    0.10    0.08 
 -12  -4  -7    0.06    0.09 
  12   3   7    0.53    0.11 
 -12  -3  -7    0.62    0.12 
  12   2   7    0.69    0.12 
 -12  -2  -7    0.66    0.12 
  12   1   7    3.25    0.22 
 -12  -1  -7    3.31    0.23 
  12   0   7   -0.08    0.06 
 -12   0  -7   -0.09    0.07 
  12  -1   7    3.43    0.23 
  12  -2   7    0.66    0.12 
  12  -3   7    0.60    0.11 
  12  -4   7    0.00    0.08 
  12  -5   7    0.32    0.10 
  12  -6   7    0.45    0.12 
  12  -7   7    0.06    0.08 
  12  -8   7    0.21    0.10 
  12  -9   7    0.94    0.16 
  12 -10   7   -0.04    0.09 
  12 -11   7    0.09    0.11 
  12 -12   7    0.13    0.12 
  12 -12   7   -0.03    0.12 
  12 -13   7   -0.06    0.12 
  12 -13   7   -0.09    0.12 
  12 -14   7    0.12    0.13 
  12 -14   7    0.10    0.14 
  12 -15   7   -0.19    0.13 
  12 -15   7    0.01    0.12 
 -11 -16  -7    0.23    0.16 
 -11 -15  -7    0.38    0.16 
 -11 -14  -7    0.05    0.14 
 -11 -13  -7    0.02    0.10 
  11  12   7    0.29    0.14 
 -11 -12  -7    0.51    0.15 
  11  11   7    0.05    0.09 
 -11 -11  -7   -0.05    0.09 
  11  10   7    0.18    0.10 
 -11 -10  -7    0.10    0.10 
  11   9   7    0.23    0.10 
 -11  -9  -7    0.23    0.10 
  11   8   7    0.08    0.08 
 -11  -8  -7    0.09    0.09 
  11   7   7    0.65    0.12 
 -11  -7  -7    0.68    0.13 
  11   6   7    1.21    0.15 
 -11  -6  -7    1.63    0.17 
  11   5   7    0.56    0.11 
 -11  -5  -7    0.52    0.12 
  11   4   7    0.33    0.09 
 -11  -4  -7    0.37    0.10 
  11   3   7    0.20    0.07 
 -11  -3  -7    0.05    0.09 
  11   2   7    0.18    0.08 
 -11  -2  -7    0.17    0.09 
  11   1   7    0.26    0.08 
 -11  -1  -7    0.09    0.08 
  11   0   7   -0.05    0.07 
 -11   0  -7    0.02    0.07 
  11  -1   7    0.29    0.09 
  11  -2   7    0.06    0.06 
  11  -3   7    0.33    0.09 
  11  -4   7    0.35    0.10 
  11  -5   7    0.36    0.10 
  11  -6   7    1.49    0.16 
  11  -7   7    0.54    0.12 
  11  -8   7    0.04    0.09 
  11  -9   7    0.18    0.11 
  11 -10   7    0.25    0.11 
  11 -11   7    0.10    0.10 
  11 -12   7    0.17    0.12 
  11 -13   7    0.11    0.13 
  11 -14   7    0.03    0.12 
  11 -14   7    0.01    0.12 
  11 -15   7    0.14    0.15 
  11 -15   7    0.23    0.13 
  11 -16   7    0.07    0.12 
  11 -16   7   -0.18    0.14 
 -10 -16  -7    0.37    0.17 
 -10 -15  -7   -0.05    0.13 
 -10 -14  -7    0.07    0.12 
 -10 -13  -7    0.20    0.12 
 -10 -12  -7    0.48    0.14 
  10  11   7   -0.03    0.08 
 -10 -11  -7    0.09    0.10 
  10  10   7   -0.04    0.08 
 -10 -10  -7    0.12    0.09 
  10   9   7    0.77    0.13 
 -10  -9  -7    0.58    0.13 
  10   8   7    0.09    0.08 
 -10  -8  -7    0.07    0.09 
  10   7   7    1.72    0.16 
 -10  -7  -7    1.67    0.17 
  10   6   7    0.81    0.12 
 -10  -6  -7    0.69    0.13 
  10   5   7    2.17    0.16 
 -10  -5  -7    2.03    0.18 
  10   4   7    0.64    0.11 
 -10  -4  -7    0.82    0.12 
  10   3   7    0.30    0.08 
 -10  -3  -7    0.63    0.11 
  10   2   7    3.03    0.20 
 -10  -2  -7    3.47    0.22 
  10   1   7    1.48    0.14 
 -10  -1  -7    1.56    0.15 
  10   0   7   -0.03    0.06 
 -10   0  -7   -0.03    0.07 
  10  -1   7    1.82    0.16 
  10  -2   7    3.08    0.20 
  10  -3   7    0.33    0.09 
  10  -4   7    0.58    0.11 
  10  -5   7    1.63    0.16 
  10  -6   7    0.54    0.11 
  10  -7   7    1.85    0.18 
  10  -8   7    0.09    0.09 
  10  -9   7    0.50    0.12 
  10 -10   7   -0.01    0.09 
  10 -11   7    0.02    0.09 
  10 -12   7    0.28    0.12 
  10 -13   7   -0.03    0.11 
  10 -14   7   -0.07    0.11 
  10 -15   7    0.03    0.13 
  10 -16   7    0.17    0.15 
  10 -16   7    0.16    0.13 
  -9 -17  -7   -0.23    0.14 
  -9 -16  -7    0.35    0.16 
  -9 -15  -7    0.10    0.13 
  -9 -14  -7    0.24    0.12 
  -9 -13  -7    0.52    0.14 
  -9 -12  -7    0.17    0.11 
   9  11   7    0.11    0.09 
  -9 -11  -7    0.20    0.10 
   9  10   7    0.16    0.09 
  -9 -10  -7    0.00    0.08 
   9   9   7    0.20    0.09 
  -9  -9  -7    0.07    0.08 
   9   8   7    0.01    0.06 
  -9  -8  -7   -0.05    0.08 
   9   7   7    0.18    0.07 
  -9  -7  -7    0.29    0.10 
   9   6   7    1.79    0.15 
  -9  -6  -7    1.90    0.17 
   9   5   7    2.36    0.16 
  -9  -5  -7    2.30    0.18 
   9   4   7    0.34    0.08 
  -9  -4  -7    0.37    0.09 
   9   3   7    2.43    0.16 
  -9  -3  -7    1.92    0.17 
   9   2   7    0.19    0.06 
  -9  -2  -7    0.32    0.08 
   9   1   7    0.11    0.06 
  -9  -1  -7    0.20    0.07 
   9   0   7    0.01    0.04 
  -9   0  -7    0.04    0.05 
   9  -1   7    0.23    0.07 
  -9   1  -7    0.19    0.07 
   9  -2   7    0.20    0.06 
   9  -3   7    2.16    0.16 
   9  -4   7    0.42    0.09 
   9  -5   7    2.67    0.19 
   9  -6   7    1.78    0.17 
   9  -7   7    0.24    0.10 
   9  -8   7    0.15    0.10 
   9  -9   7    0.06    0.09 
   9 -10   7    0.01    0.09 
   9 -11   7    0.12    0.10 
   9 -12   7    0.18    0.11 
   9 -13   7    0.81    0.16 
   9 -14   7    0.02    0.11 
   9 -15   7   -0.03    0.12 
   9 -16   7    0.30    0.15 
   9 -17   7    0.05    0.15 
   9 -17   7   -0.01    0.11 
  -8 -17  -7   -0.14    0.13 
  -8 -16  -7    0.27    0.14 
  -8 -15  -7   -0.15    0.10 
  -8 -14  -7    0.11    0.12 
  -8 -13  -7    0.41    0.12 
  -8 -12  -7    1.46    0.19 
   8  11   7   -0.01    0.07 
  -8 -11  -7   -0.09    0.08 
   8  10   7    0.24    0.08 
  -8 -10  -7    0.27    0.10 
   8   9   7    4.19    0.24 
  -8  -9  -7    4.23    0.27 
   8   8   7    5.85    0.29 
  -8  -8  -7    5.40    0.31 
   8   7   7    0.21    0.07 
  -8  -7  -7    0.36    0.10 
   8   6   7   -0.06    0.04 
  -8  -6  -7    0.01    0.07 
   8   5   7    0.00    0.05 
  -8  -5  -7    0.04    0.06 
   8   4   7    3.53    0.20 
  -8  -4  -7    3.59    0.21 
   8   3   7    0.13    0.05 
  -8  -3  -7    0.00    0.05 
   8   2   7    2.21    0.14 
  -8  -2  -7    1.90    0.15 
   8   1   7    0.89    0.10 
  -8  -1  -7    0.96    0.11 
   8   0   7   -0.07    0.03 
  -8   0  -7   -0.05    0.04 
   8  -1   7    1.08    0.11 
  -8   1  -7    0.89    0.11 
   8  -2   7    2.23    0.16 
   8  -3   7    0.23    0.07 
   8  -4   7    3.69    0.22 
   8  -5   7    0.01    0.06 
   8  -6   7   -0.08    0.06 
   8  -7   7    0.12    0.08 
   8  -8   7    5.43    0.30 
   8  -9   7    3.83    0.25 
   8 -10   7    0.30    0.11 
   8 -11   7   -0.01    0.09 
   8 -12   7    1.58    0.19 
   8 -13   7    0.23    0.12 
   8 -14   7   -0.09    0.10 
   8 -15   7    0.12    0.13 
   8 -16   7    0.59    0.17 
   8 -17   7   -0.19    0.14 
  -7 -18  -7   -0.12    0.15 
  -7 -17  -7    0.02    0.15 
  -7 -16  -7    0.08    0.14 
  -7 -15  -7    0.44    0.14 
  -7 -14  -7    0.00    0.11 
  -7 -13  -7    0.10    0.10 
  -7 -12  -7    0.10    0.10 
   7  11   7    0.13    0.06 
  -7 -11  -7    0.52    0.13 
  -7 -10  -7    1.87    0.19 
   7   9   7    0.03    0.05 
  -7  -9  -7    0.02    0.08 
   7   8   7   -0.01    0.05 
  -7  -8  -7   -0.02    0.07 
   7   7   7    0.49    0.08 
  -7  -7  -7    0.51    0.10 
   7   6   7    1.53    0.12 
  -7  -6  -7    1.84    0.15 
  -7  -6  -7    1.60    0.08 
   7   5   7   -0.03    0.04 
  -7  -5  -7    0.08    0.06 
  -7  -5  -7    0.04    0.02 
   7   4   7    0.59    0.08 
  -7  -4  -7    0.63    0.09 
  -7  -4  -7    0.65    0.05 
   7   3   7    6.31    0.29 
  -7  -3  -7    6.48    0.25 
  -7  -3  -7    6.16    0.31 
   7   2   7    4.48    0.22 
  -7  -2  -7    4.35    0.23 
  -7  -2  -7    4.49    0.19 
   7   1   7    0.66    0.08 
  -7  -1  -7    0.58    0.09 
   7   0   7   -0.01    0.04 
  -7   0  -7    0.05    0.05 
   7  -1   7    0.77    0.09 
  -7   1  -7    0.85    0.10 
   7  -2   7    4.65    0.24 
   7  -3   7    6.38    0.30 
   7  -4   7    0.75    0.10 
   7  -5   7   -0.01    0.05 
   7  -6   7    1.60    0.15 
   7  -7   7    0.60    0.11 
   7  -8   7   -0.03    0.07 
   7  -9   7    0.03    0.08 
   7 -10   7    1.60    0.17 
   7 -11   7    0.45    0.12 
   7 -12   7    0.08    0.09 
   7 -13   7   -0.09    0.10 
   7 -14   7   -0.05    0.09 
   7 -15   7    0.46    0.15 
   7 -16   7    0.07    0.13 
   7 -17   7   -0.06    0.14 
   7 -18   7   -0.09    0.16 
  -6 -18  -7    0.00    0.14 
  -6 -17  -7    0.14    0.15 
  -6 -16  -7    0.79    0.17 
  -6 -15  -7    0.08    0.11 
  -6 -14  -7    0.24    0.12 
  -6 -13  -7    0.83    0.15 
  -6 -12  -7    3.97    0.27 
   6  11   7   -0.01    0.06 
  -6 -11  -7    0.02    0.08 
   6  10   7    0.83    0.10 
  -6 -10  -7    0.78    0.13 
   6   9   7    3.91    0.23 
  -6  -9  -7    5.22    0.28 
  -6  -9  -7    4.81    0.21 
  -6  -8  -7    4.33    0.20 
  -6  -8  -7    4.69    0.26 
   6   7   7    0.03    0.03 
  -6  -7  -7    0.07    0.03 
  -6  -7  -7    0.08    0.06 
   6   6   7   -0.04    0.03 
  -6  -6  -7    0.01    0.03 
  -6  -6  -7    0.09    0.06 
   6   5   7    1.91    0.12 
  -6  -5  -7    1.93    0.14 
  -6  -5  -7    1.92    0.10 
   6   4   7    0.34    0.06 
  -6  -4  -7    0.40    0.04 
  -6  -4  -7    0.32    0.07 
   6   3   7    0.01    0.03 
  -6  -3  -7    0.02    0.04 
  -6  -3  -7    0.06    0.02 
   6   2   7    0.05    0.04 
  -6  -2  -7    0.04    0.04 
  -6  -2  -7    0.07    0.03 
   6   1   7    9.08    0.37 
  -6  -1  -7    8.52    0.38 
  -6  -1  -7    8.23    0.33 
   6   0   7   -0.02    0.03 
  -6   0  -7    0.01    0.03 
  -6   0  -7   -0.04    0.04 
   6  -1   7    9.46    0.39 
  -6   1  -7    8.69    0.40 
   6  -2   7    0.14    0.05 
  -6   2  -7    0.03    0.04 
   6  -3   7   -0.01    0.04 
   6  -4   7    0.35    0.07 
   6  -5   7    2.18    0.15 
   6  -6   7    0.07    0.06 
   6  -7   7    0.16    0.06 
   6  -8   7    4.22    0.25 
   6  -9   7    5.30    0.30 
   6 -10   7    0.91    0.13 
   6 -11   7    0.05    0.09 
   6 -12   7    3.61    0.26 
   6 -13   7    0.75    0.15 
   6 -14   7    0.00    0.09 
   6 -15   7    0.09    0.11 
   6 -16   7    0.66    0.17 
   6 -17   7   -0.04    0.14 
   6 -18   7   -0.17    0.15 
  -5 -18  -7    0.02    0.14 
  -5 -17  -7    0.01    0.13 
  -5 -16  -7    0.03    0.12 
  -5 -15  -7    0.56    0.15 
  -5 -14  -7    0.41    0.13 
  -5 -13  -7    0.49    0.13 
  -5 -12  -7   -0.08    0.08 
  -5 -12  -7    0.05    0.05 
  -5 -11  -7    0.04    0.05 
  -5 -11  -7   -0.19    0.08 
   5  10   7    0.10    0.06 
  -5 -10  -7    0.22    0.09 
  -5 -10  -7    0.13    0.06 
   5   9   7    0.49    0.08 
  -5  -9  -7    0.57    0.11 
  -5  -9  -7    0.46    0.07 
   5   8   7    0.08    0.04 
  -5  -8  -7    0.02    0.04 
  -5  -8  -7   -0.04    0.06 
   5   7   7    0.85    0.08 
  -5  -7  -7    0.84    0.11 
  -5  -7  -7    0.64    0.06 
   5   6   7    0.26    0.05 
  -5  -6  -7    0.23    0.07 
  -5  -6  -7    0.43    0.05 
  -5  -5  -7    1.12    0.07 
  -5  -5  -7    1.02    0.11 
   5   4   7    0.67    0.07 
  -5  -4  -7    0.77    0.09 
  -5  -4  -7    0.82    0.06 
   5   3   7    0.05    0.03 
  -5  -3  -7    0.00    0.02 
  -5  -3  -7    0.05    0.04 
   5   2   7    4.46    0.21 
  -5  -2  -7    4.71    0.23 
  -5  -2  -7    4.65    0.19 
   5   1   7    7.70    0.34 
  -5  -1  -7    8.34    0.32 
  -5  -1  -7    8.14    0.35 
   5   0   7   -0.05    0.03 
  -5   0  -7    0.02    0.03 
  -5   0  -7   -0.01    0.03 
   5  -1   7    8.53    0.36 
  -5   1  -7    7.85    0.33 
  -5   1  -7    8.52    0.36 
   5  -2   7    4.62    0.22 
  -5   2  -7    4.44    0.22 
   5  -3   7    0.02    0.04 
   5  -4   7    0.79    0.09 
   5  -5   7    1.13    0.11 
   5  -6   7    0.38    0.08 
   5  -7   7    0.66    0.10 
   5  -8   7    0.01    0.06 
   5  -9   7    0.57    0.11 
   5 -10   7    0.10    0.09 
   5 -11   7    0.10    0.09 
   5 -12   7   -0.05    0.09 
   5 -13   7    0.48    0.13 
   5 -14   7    0.33    0.12 
   5 -15   7    0.22    0.12 
   5 -16   7    0.07    0.12 
   5 -17   7    0.06    0.13 
   5 -18   7   -0.05    0.14 
  -4 -19  -7   -0.01    0.14 
  -4 -18  -7    0.52    0.18 
  -4 -17  -7   -0.31    0.10 
  -4 -16  -7    0.60    0.17 
  -4 -15  -7   -0.02    0.10 
  -4 -14  -7    0.14    0.08 
  -4 -14  -7    0.01    0.11 
  -4 -13  -7    0.45    0.13 
  -4 -13  -7    0.47    0.09 
  -4 -12  -7    3.50    0.25 
  -4 -12  -7    3.32    0.19 
  -4 -11  -7    0.14    0.06 
  -4 -11  -7    0.12    0.08 
   4  10   7    1.27    0.11 
  -4 -10  -7    1.29    0.15 
  -4 -10  -7    1.13    0.10 
   4   9   7    3.46    0.19 
  -4  -9  -7    3.33    0.23 
  -4  -9  -7    4.06    0.19 
   4   8   7    2.62    0.15 
  -4  -8  -7    2.80    0.15 
  -4  -8  -7    2.78    0.19 
   4   7   7    1.94    0.12 
  -4  -7  -7    2.06    0.15 
  -4  -7  -7    1.86    0.11 
   4   6   7    6.05    0.26 
  -4  -6  -7    5.62    0.29 
  -4  -6  -7    6.01    0.25 
   4   5   7    4.89    0.22 
  -4  -5  -7    4.95    0.21 
  -4  -5  -7    4.82    0.25 
   4   4   7    0.23    0.04 
  -4  -4  -7    0.35    0.04 
  -4  -4  -7    0.38    0.07 
   4   3   7    4.79    0.23 
  -4  -3  -7    5.73    0.26 
  -4  -3  -7    5.64    0.22 
   4   2   7    1.47    0.09 
  -4  -2  -7    1.52    0.10 
  -4  -2  -7    1.42    0.08 
   4   1   7    0.07    0.03 
  -4  -1  -7    0.11    0.03 
  -4  -1  -7    0.02    0.04 
   4   0   7   -0.01    0.03 
  -4   0  -7    0.00    0.03 
  -4   0  -7   -0.03    0.03 
   4  -1   7    0.06    0.03 
  -4   1  -7    0.03    0.03 
  -4   1  -7    0.05    0.04 
   4  -2   7    1.32    0.10 
  -4   2  -7    1.35    0.10 
  -4   2  -7    1.12    0.09 
   4  -3   7    5.78    0.27 
   4  -4   7    0.35    0.07 
   4  -5   7    4.59    0.24 
   4  -6   7    6.32    0.31 
   4  -7   7    2.28    0.16 
   4  -8   7    2.67    0.18 
   4  -9   7    3.90    0.24 
   4 -10   7    1.04    0.13 
   4 -11   7    0.01    0.08 
   4 -12   7    3.48    0.25 
   4 -13   7    0.44    0.12 
   4 -14   7    0.20    0.11 
   4 -15   7   -0.01    0.10 
   4 -16   7    0.75    0.17 
   4 -17   7   -0.08    0.12 
   4 -18   7    0.37    0.17 
   4 -19   7   -0.17    0.15 
  -3 -19  -7    0.26    0.18 
  -3 -18  -7    0.05    0.16 
  -3 -17  -7   -0.05    0.13 
  -3 -16  -7    0.13    0.12 
  -3 -15  -7    0.70    0.12 
  -3 -15  -7    0.52    0.15 
  -3 -14  -7    0.02    0.07 
  -3 -13  -7    0.26    0.08 
  -3 -12  -7    0.63    0.09 
  -3 -11  -7    0.41    0.11 
  -3 -11  -7    0.43    0.08 
   3  10   7    1.89    0.13 
  -3 -10  -7    2.28    0.18 
  -3 -10  -7    2.32    0.14 
   3   9   7    1.25    0.10 
  -3  -9  -7    1.39    0.15 
  -3  -9  -7    1.35    0.10 
   3   8   7    0.59    0.06 
  -3  -8  -7    0.74    0.11 
  -3  -8  -7    0.48    0.07 
   3   7   7    3.42    0.16 
  -3  -7  -7    3.04    0.16 
  -3  -7  -7    2.92    0.19 
   3   6   7    8.41    0.33 
  -3  -6  -7    8.19    0.33 
  -3  -6  -7    7.69    0.37 
   3   5   7    2.88    0.14 
  -3  -5  -7    2.85    0.17 
  -3  -5  -7    2.86    0.14 
   3   4   7    0.52    0.05 
  -3  -4  -7    0.52    0.07 
  -3  -4  -7    0.56    0.05 
   3   3   7    3.80    0.17 
  -3  -3  -7    4.14    0.20 
  -3  -3  -7    4.07    0.17 
  -3  -2  -7   13.51    0.50 
  -3  -2  -7   13.27    0.54 
   3   1   7    3.61    0.17 
  -3  -1  -7    3.55    0.16 
  -3  -1  -7    3.53    0.18 
   3   0   7   -0.03    0.03 
  -3   0  -7    0.01    0.03 
  -3   0  -7    0.00    0.03 
   3  -1   7    3.54    0.17 
  -3   1  -7    3.41    0.17 
  -3   1  -7    3.55    0.17 
   3  -2   7   13.58    0.55 
  -3   2  -7   13.97    0.54 
  -3   2  -7   14.29    0.55 
   3  -3   7    3.99    0.20 
  -3   3  -7    3.86    0.19 
   3  -4   7    0.55    0.08 
   3  -5   7    2.69    0.16 
   3  -6   7    7.16    0.33 
   3  -7   7    3.27    0.20 
   3  -8   7    0.46    0.09 
   3  -9   7    1.36    0.15 
   3 -10   7    2.03    0.18 
   3 -11   7    0.57    0.11 
   3 -12   7    0.49    0.11 
   3 -13   7    0.30    0.12 
   3 -14   7    0.06    0.09 
   3 -15   7    0.67    0.15 
   3 -16   7    0.00    0.11 
   3 -17   7    0.21    0.15 
   3 -18   7    0.17    0.15 
   3 -19   7   -0.02    0.17 
  -2 -17  -7    0.21    0.11 
  -2 -16  -7    0.58    0.12 
  -2 -15  -7    0.31    0.10 
  -2 -14  -7   -0.03    0.06 
  -2 -13  -7    0.84    0.11 
  -2 -12  -7    1.48    0.13 
  -2 -11  -7    1.01    0.10 
  -2 -10  -7    0.90    0.10 
   2   9   7    3.91    0.17 
  -2  -9  -7    3.21    0.18 
   2   8   7    0.00    0.03 
  -2  -8  -7    0.01    0.04 
   2   7   7    1.37    0.08 
  -2  -7  -7    1.46    0.10 
   2   6   7   20.53    0.75 
  -2  -6  -7   20.25    0.75 
  -2  -6  -7   19.62    0.81 
   2   5   7    4.01    0.17 
  -2  -5  -7    3.72    0.21 
  -2  -5  -7    4.20    0.19 
   2   4   7    3.32    0.15 
  -2  -4  -7    3.33    0.18 
  -2  -4  -7    3.43    0.16 
   2   3   7    1.28    0.07 
  -2  -3  -7    1.27    0.10 
  -2  -3  -7    1.26    0.08 
   2   2   7   34.35    1.26 
  -2  -2  -7   34.89    1.23 
  -2  -2  -7   34.30    1.30 
  -2  -1  -7   28.76    1.07 
  -2  -1  -7   28.10    1.02 
   2   0   7    0.01    0.02 
  -2   0  -7   -0.01    0.03 
  -2   0  -7   -0.03    0.02 
   2  -1   7   29.73    1.07 
  -2   1  -7   28.17    1.07 
  -2   1  -7   28.06    1.04 
   2  -2   7   35.15    1.27 
  -2   2  -7   34.03    1.28 
  -2   2  -7   33.35    1.23 
   2  -3   7    1.26    0.09 
  -2   3  -7    1.39    0.10 
   2  -4   7    3.55    0.18 
  -2   4  -7    3.21    0.18 
   2  -5   7    3.80    0.20 
   2  -6   7   18.23    0.73 
   2  -7   7    1.44    0.13 
   2  -8   7    0.06    0.05 
   2  -9   7    3.36    0.21 
   2 -10   7    0.98    0.13 
   2 -11   7    0.97    0.14 
   2 -12   7    1.06    0.15 
   2 -13   7    0.69    0.14 
   2 -14   7    0.09    0.09 
   2 -15   7    0.53    0.15 
   2 -16   7    0.31    0.13 
   2 -17   7    0.26    0.14 
   2 -18   7    0.08    0.15 
   2 -19   7    0.06    0.16 
  -1 -19  -7   -0.13    0.12 
  -1 -18  -7    0.09    0.11 
  -1 -17  -7    0.05    0.09 
  -1 -16  -7   -0.09    0.07 
  -1 -15  -7   -0.05    0.08 
  -1 -14  -7    0.10    0.08 
  -1 -13  -7    2.44    0.18 
  -1 -12  -7    0.27    0.07 
  -1 -11  -7    0.08    0.06 
  -1 -10  -7    0.19    0.06 
   1   9   7    3.10    0.15 
  -1  -9  -7    3.28    0.18 
   1   8   7    0.41    0.04 
  -1  -8  -7    0.36    0.06 
   1   7   7    2.82    0.12 
  -1  -7  -7    2.58    0.15 
   1   6   7   12.09    0.44 
  -1  -6  -7   11.54    0.46 
   1   5   7    0.06    0.02 
  -1  -5  -7    0.10    0.04 
   1   4   7    2.22    0.10 
  -1  -4  -7    2.23    0.14 
  -1  -4  -7    2.18    0.12 
   1   3   7    1.14    0.06 
  -1  -3  -7    0.96    0.08 
  -1  -3  -7    0.97    0.07 
   1   2   7    0.07    0.03 
  -1  -2  -7    0.06    0.03 
  -1  -2  -7    0.07    0.03 
  -1  -1  -7    3.26    0.15 
  -1  -1  -7    3.16    0.15 
   1   0   7    0.04    0.03 
  -1   0  -7    0.01    0.02 
  -1   0  -7    0.01    0.03 
   1  -1   7    3.19    0.16 
  -1   1  -7    3.33    0.16 
   1  -2   7    0.02    0.03 
  -1   2  -7    0.08    0.03 
  -1   2  -7    0.07    0.04 
   1  -3   7    1.06    0.09 
  -1   3  -7    1.06    0.09 
   1  -4   7    2.23    0.14 
  -1   4  -7    2.26    0.14 
   1  -5   7    0.03    0.04 
  -1   5  -7    0.02    0.04 
   1  -6   7   11.37    0.49 
   1  -7   7    2.76    0.18 
   1  -8   7    0.34    0.08 
   1  -9   7    3.34    0.21 
   1 -10   7    0.13    0.08 
   1 -11   7    0.01    0.08 
   1 -12   7    0.34    0.11 
   1 -13   7    2.68    0.23 
   1 -14   7    0.09    0.10 
   1 -15   7    0.04    0.10 
   1 -16   7    0.15    0.11 
   1 -17   7    0.00    0.12 
   1 -18   7    0.03    0.14 
   1 -19   7   -0.03    0.15 
   0 -19  -7    0.03    0.11 
   0 -18  -7    0.06    0.11 
   0 -17  -7    0.04    0.09 
   0 -16  -7   -0.10    0.07 
   0 -15  -7   -0.06    0.07 
   0 -14  -7    0.55    0.11 
   0 -13  -7    0.01    0.07 
   0 -12  -7    0.30    0.08 
   0 -11  -7    0.06    0.06 
   0 -10  -7    0.77    0.10 
   0  -9  -7    0.03    0.04 
   0  -8  -7    0.08    0.05 
   0  -7  -7    0.00    0.04 
   0  -6  -7   13.39    0.52 
   0  -5  -7    0.04    0.04 
   0  -4  -7    6.42    0.27 
   0   3   7    0.01    0.01 
   0  -3  -7    0.00    0.03 
   0   2   7   20.07    0.72 
   0  -2  -7   19.99    0.76 
   0  -2  -7   18.56    0.72 
   0   1   7    0.03    0.02 
   0  -1  -7    0.03    0.02 
   0  -1  -7    0.01    0.02 
   0   0   7    0.01    0.02 
   0   0  -7    0.02    0.03 
   0   0  -7   -0.02    0.01 
   0  -1   7   -0.01    0.03 
   0   1  -7    0.01    0.03 
   0   1  -7    0.01    0.02 
   0  -2   7   18.85    0.74 
   0   2  -7   19.48    0.72 
   0   2  -7   19.53    0.72 
   0  -3   7    0.03    0.03 
   0   3  -7   -0.01    0.03 
   0  -4   7    6.77    0.31 
   0   4  -7    6.65    0.30 
   0  -5   7    0.00    0.04 
   0   5  -7    0.03    0.03 
   0  -6   7   13.11    0.55 
   0  -7   7   -0.05    0.04 
   0  -8   7    0.01    0.04 
   0  -9   7   -0.03    0.05 
   0 -10   7    0.92    0.13 
   0 -11   7    0.02    0.08 
   0 -12   7    0.37    0.11 
   0 -13   7    0.02    0.09 
   0 -14   7    0.72    0.15 
   0 -15   7   -0.15    0.09 
   0 -16   7   -0.03    0.11 
   0 -17   7   -0.01    0.13 
   0 -18   7    0.08    0.14 
   0 -19   7    0.05    0.15 
   1 -19  -7   -0.09    0.12 
   1 -18  -7   -0.08    0.10 
   1 -17  -7    0.08    0.11 
   1 -16  -7   -0.05    0.09 
   1 -15  -7   -0.03    0.08 
   1 -14  -7    0.19    0.09 
   1 -13  -7    2.61    0.19 
   1 -12  -7    0.19    0.08 
   1 -11  -7    0.05    0.06 
   1 -10  -7    0.24    0.06 
   1  -9  -7    3.39    0.19 
   1  -8  -7    0.64    0.09 
   1  -7  -7    2.85    0.16 
   1  -6  -7   12.08    0.48 
   1  -5  -7    0.04    0.04 
   1  -4  -7    2.11    0.12 
  -1   3   7    0.90    0.05 
   1  -3  -7    1.00    0.08 
  -1   2   7    0.09    0.03 
   1  -2  -7    0.06    0.03 
  -1   1   7    3.53    0.16 
   1  -1  -7    3.42    0.16 
  -1   0   7    0.01    0.02 
   1   0  -7    0.00    0.02 
   1   0  -7    0.00    0.03 
  -1  -1   7    3.43    0.17 
   1   1  -7    3.56    0.17 
   1   1  -7    3.72    0.15 
  -1  -2   7    0.06    0.04 
   1   2  -7    0.07    0.02 
   1   2  -7    0.12    0.04 
   1   3  -7    1.06    0.10 
   1   3  -7    0.85    0.08 
   1   4  -7    2.37    0.15 
   1   4  -7    2.03    0.13 
  -1  -5   7    0.10    0.05 
   1   5  -7    0.04    0.04 
  -1  -6   7   11.67    0.50 
   1   6  -7   11.70    0.48 
  -1  -7   7    2.69    0.18 
  -1  -8   7    0.64    0.10 
  -1  -9   7    3.86    0.24 
  -1 -10   7    0.11    0.08 
  -1 -11   7    0.02    0.07 
  -1 -12   7    0.24    0.10 
  -1 -13   7    2.68    0.24 
  -1 -14   7    0.28    0.12 
  -1 -15   7    0.05    0.11 
  -1 -16   7   -0.02    0.11 
  -1 -17   7    0.22    0.14 
  -1 -18   7    0.18    0.15 
  -1 -19   7   -0.02    0.15 
   2 -19  -7    0.13    0.13 
   2 -18  -7   -0.08    0.11 
   2 -17  -7    0.26    0.12 
   2 -16  -7    0.20    0.11 
   2 -15  -7    0.57    0.12 
   2 -14  -7    0.01    0.07 
   2 -13  -7    0.60    0.11 
   2 -12  -7    1.32    0.14 
   2 -11  -7    1.03    0.12 
   2 -10  -7    1.07    0.12 
   2  -9  -7    3.53    0.20 
   2  -8  -7    0.06    0.05 
   2  -7  -7    1.50    0.11 
   2  -6  -7   20.22    0.77 
   2  -5  -7    3.90    0.19 
   2  -4  -7    3.53    0.17 
  -2   3   7    1.04    0.06 
   2  -3  -7    1.24    0.09 
   2  -2  -7   35.94    1.33 
   2  -2  -7   37.22    1.31 
   2  -1  -7   30.43    1.11 
   2  -1  -7   29.90    1.09 
   2   0  -7   -0.04    0.02 
   2   0  -7    0.01    0.03 
   2   1  -7   30.01    1.12 
   2   1  -7   29.96    1.10 
   2   1  -7   29.70    1.08 
   2   2  -7   33.51    1.28 
   2   2  -7   35.30    1.25 
   2   3  -7    1.09    0.09 
   2   3  -7    1.12    0.10 
   2   4  -7    3.32    0.18 
   2   4  -7    3.56    0.19 
   2   5  -7    3.99    0.20 
   2   5  -7    3.63    0.21 
   2   6  -7   20.81    0.83 
   2   6  -7   20.45    0.79 
   2   7  -7    1.54    0.15 
   2   8  -7    0.03    0.05 
   2   9  -7    2.65    0.19 
  -2 -10   7    0.73    0.12 
  -2 -11   7    1.18    0.16 
  -2 -12   7    1.26    0.17 
  -2 -13   7    0.94    0.16 
  -2 -14   7   -0.01    0.09 
  -2 -15   7    0.49    0.15 
  -2 -16   7    0.57    0.16 
  -2 -17   7    0.22    0.14 
  -2 -18   7    0.16    0.15 
  -2 -19   7   -0.03    0.15 
   3 -19  -7    0.03    0.13 
   3 -18  -7   -0.08    0.11 
   3 -17  -7    0.05    0.11 
   3 -16  -7    0.09    0.10 
   3 -15  -7    0.49    0.12 
   3 -14  -7    0.08    0.08 
   3 -13  -7    0.07    0.08 
   3 -12  -7    0.60    0.11 
   3 -11  -7    0.39    0.10 
   3 -10  -7    1.92    0.15 
   3  -9  -7    1.16    0.12 
   3  -8  -7    0.62    0.09 
   3  -7  -7    3.73    0.20 
   3  -6  -7    7.62    0.33 
   3  -5  -7    2.33    0.14 
   3  -4  -7    0.48    0.04 
   3  -4  -7    0.70    0.07 
   3  -3  -7    3.73    0.18 
   3  -3  -7    3.93    0.16 
   3  -2  -7   13.91    0.53 
   3  -2  -7   14.01    0.54 
   3  -1  -7    4.46    0.20 
   3  -1  -7    4.43    0.20 
   3   0  -7    0.03    0.03 
   3   0  -7    0.02    0.03 
   3   1  -7    4.43    0.21 
   3   1  -7    3.96    0.19 
   3   2  -7   13.67    0.55 
   3   2  -7   13.69    0.53 
   3   3  -7    3.70    0.20 
   3   3  -7    3.78    0.18 
   3   4  -7    0.61    0.07 
   3   4  -7    0.56    0.08 
   3   5  -7    2.67    0.15 
   3   5  -7    2.32    0.16 
   3   6  -7    7.27    0.33 
   3   6  -7    7.19    0.35 
   3   7  -7    3.50    0.20 
   3   7  -7    3.57    0.22 
   3   8  -7    0.55    0.10 
   3   9  -7    1.27    0.16 
   3  10  -7    2.41    0.21 
   3  11  -7    0.49    0.13 
   3  12  -7    0.56    0.13 
  -3 -13   7    0.40    0.12 
  -3 -14   7    0.12    0.10 
  -3 -15   7    0.77    0.16 
  -3 -16   7   -0.08    0.11 
  -3 -17   7    0.07    0.13 
  -3 -18   7    0.04    0.14 
  -3 -19   7   -0.12    0.15 
   4 -19  -7    0.07    0.13 
   4 -18  -7    0.25    0.14 
   4 -17  -7    0.02    0.10 
   4 -16  -7    0.52    0.14 
   4 -15  -7   -0.08    0.08 
   4 -14  -7    0.08    0.09 
   4 -13  -7    0.11    0.09 
   4 -12  -7    2.93    0.20 
   4 -11  -7    0.02    0.07 
   4 -10  -7    1.45    0.14 
   4  -9  -7    3.60    0.21 
   4  -8  -7    2.66    0.17 
   4  -7  -7    1.91    0.14 
   4  -6  -7    6.15    0.28 
   4  -5  -7    5.30    0.21 
   4  -5  -7    5.11    0.24 
   4  -4  -7    0.39    0.04 
   4  -4  -7    0.36    0.06 
   4  -3  -7    5.20    0.24 
   4  -3  -7    5.47    0.22 
   4  -2  -7    1.53    0.09 
   4  -2  -7    1.46    0.10 
   4  -1  -7    0.13    0.04 
   4  -1  -7    0.11    0.04 
   4   0  -7    0.02    0.03 
   4   0  -7   -0.02    0.03 
   4   1  -7    0.06    0.03 
   4   1  -7    0.06    0.04 
   4   2  -7    1.61    0.12 
   4   2  -7    1.55    0.10 
   4   3  -7    5.14    0.26 
   4   3  -7    5.34    0.24 
   4   4  -7    0.39    0.08 
   4   4  -7    0.45    0.07 
   4   5  -7    5.15    0.25 
   4   5  -7    5.39    0.27 
   4   6  -7    6.17    0.29 
   4   6  -7    6.31    0.32 
  -4  -7   7    1.78    0.09 
   4   7  -7    1.93    0.17 
   4   7  -7    1.87    0.14 
  -4  -8   7    2.68    0.13 
   4   8  -7    2.94    0.20 
   4   9  -7    3.34    0.24 
   4  10  -7    1.32    0.17 
   4  11  -7    0.33    0.11 
   4  12  -7    2.81    0.25 
   4  13  -7    0.29    0.11 
  -4 -15   7   -0.03    0.10 
  -4 -16   7    0.64    0.16 
  -4 -17   7    0.02    0.13 
  -4 -18   7    0.30    0.17 
  -4 -19   7    0.02    0.16 
   5 -18  -7   -0.02    0.12 
   5 -17  -7    0.05    0.12 
   5 -16  -7   -0.01    0.10 
   5 -15  -7    0.44    0.12 
   5 -14  -7    0.32    0.10 
   5 -13  -7    0.48    0.11 
   5 -12  -7    0.05    0.08 
   5 -11  -7    0.10    0.07 
   5 -10  -7    0.11    0.08 
   5  -9  -7    0.27    0.08 
   5  -8  -7    0.10    0.07 
   5  -7  -7    0.79    0.10 
   5  -7  -7    0.71    0.06 
   5  -6  -7    0.29    0.04 
   5  -6  -7    0.33    0.07 
   5  -5  -7    0.91    0.06 
   5  -5  -7    1.06    0.10 
   5  -4  -7    0.49    0.07 
   5  -4  -7    0.72    0.06 
   5  -3  -7   -0.05    0.03 
   5  -3  -7    0.00    0.03 
   5  -2  -7    4.34    0.20 
   5  -2  -7    4.05    0.19 
   5  -1  -7    8.43    0.34 
   5  -1  -7    8.34    0.35 
   5   0  -7   -0.01    0.03 
   5   0  -7   -0.05    0.02 
   5   1  -7    8.42    0.35 
   5   1  -7    9.06    0.38 
   5   2  -7    4.34    0.20 
   5   2  -7    4.30    0.22 
   5   3  -7    0.04    0.05 
   5   3  -7    0.03    0.03 
   5   4  -7    0.71    0.08 
   5   4  -7    0.63    0.09 
   5   5  -7    0.97    0.12 
   5   5  -7    1.08    0.10 
   5   6  -7    0.41    0.07 
   5   6  -7    0.32    0.08 
  -5  -7   7    0.74    0.05 
   5   7  -7    0.78    0.10 
   5   7  -7    0.73    0.11 
  -5  -8   7    0.07    0.03 
   5   8  -7    0.04    0.07 
   5   9  -7    0.38    0.10 
   5  10  -7    0.20    0.10 
   5  11  -7    0.05    0.10 
   5  12  -7    0.03    0.09 
   5  13  -7    0.48    0.13 
   5  14  -7    0.15    0.12 
   5  15  -7    0.59    0.16 
  -5 -16   7    0.06    0.12 
  -5 -17   7   -0.01    0.13 
  -5 -18   7    0.06    0.16 
   6 -18  -7    0.13    0.14 
   6 -17  -7    0.10    0.13 
   6 -16  -7    0.51    0.14 
   6 -15  -7    0.22    0.11 
   6 -14  -7    0.14    0.09 
   6 -13  -7    0.60    0.12 
   6 -12  -7    3.18    0.22 
   6 -11  -7   -0.01    0.08 
   6 -10  -7    0.90    0.13 
   6  -9  -7    4.82    0.26 
   6  -8  -7    4.03    0.23 
   6  -7  -7   -0.01    0.05 
   6  -7  -7    0.11    0.04 
   6  -6  -7    0.00    0.04 
   6  -6  -7    0.01    0.03 
   6  -5  -7    1.91    0.11 
   6  -5  -7    1.72    0.12 
   6  -4  -7    0.27    0.06 
   6  -4  -7    0.44    0.06 
   6  -3  -7    0.01    0.03 
   6  -3  -7    0.01    0.04 
   6  -2  -7    0.00    0.04 
   6  -2  -7   -0.02    0.03 
   6  -1  -7    8.71    0.36 
   6  -1  -7    9.01    0.38 
   6   0  -7    0.03    0.04 
   6   0  -7    0.00    0.03 
   6   1  -7    8.99    0.39 
   6   1  -7    8.98    0.37 
   6   2  -7    0.04    0.04 
   6   2  -7    0.07    0.04 
   6   3  -7   -0.02    0.04 
   6   3  -7   -0.01    0.03 
   6   4  -7    0.41    0.07 
   6   4  -7    0.37    0.08 
   6   5  -7    1.77    0.12 
   6   5  -7    2.00    0.15 
   6   6  -7    0.05    0.04 
   6   6  -7    0.03    0.04 
   6   7  -7    0.01    0.04 
   6   7  -7    0.07    0.06 
   6   8  -7    4.22    0.23 
   6   8  -7    4.26    0.27 
   6   9  -7    4.62    0.29 
   6  10  -7    0.89    0.16 
   6  11  -7   -0.02    0.08 
   6  12  -7    3.34    0.28 
   6  13  -7    0.82    0.17 
   6  14  -7    0.11    0.11 
   6  15  -7    0.22    0.13 
   6  16  -7    0.86    0.20 
  -6 -17   7   -0.22    0.11 
  -6 -18   7    0.16    0.17 
   7 -18  -7    0.06    0.14 
   7 -17  -7    0.12    0.12 
   7 -16  -7   -0.01    0.11 
   7 -15  -7    0.49    0.13 
   7 -14  -7   -0.04    0.08 
   7 -13  -7   -0.07    0.08 
   7 -12  -7    0.10    0.09 
   7 -11  -7    0.41    0.11 
   7 -10  -7    1.53    0.15 
   7  -9  -7   -0.08    0.07 
   7  -8  -7   -0.03    0.07 
   7  -7  -7    0.60    0.07 
   7  -7  -7    0.61    0.10 
   7  -6  -7    1.63    0.11 
   7  -6  -7    1.67    0.13 
   7  -5  -7    0.03    0.04 
   7  -5  -7    0.09    0.05 
   7  -4  -7    0.76    0.09 
   7  -4  -7    0.83    0.08 
   7  -3  -7    6.92    0.31 
   7  -3  -7    6.96    0.30 
   7  -2  -7    4.19    0.21 
   7  -2  -7    4.16    0.21 
   7  -1  -7    0.96    0.10 
   7  -1  -7    0.93    0.09 
   7   0  -7    0.01    0.05 
   7   0  -7   -0.02    0.03 
   7   1  -7    0.92    0.09 
   7   1  -7    0.70    0.09 
   7   2  -7    4.20    0.20 
   7   2  -7    4.34    0.23 
   7   3  -7    6.64    0.34 
   7   3  -7    7.40    0.31 
   7   4  -7    0.73    0.08 
   7   4  -7    0.65    0.10 
   7   5  -7    0.00    0.04 
   7   5  -7    0.05    0.06 
   7   6  -7    1.63    0.17 
   7   6  -7    1.65    0.12 
   7   7  -7    0.45    0.10 
   7   7  -7    0.64    0.09 
   7   8  -7    0.06    0.06 
   7   8  -7    0.03    0.07 
   7   9  -7    0.03    0.08 
   7  10  -7    2.13    0.21 
   7  11  -7    0.72    0.15 
   7  12  -7    0.04    0.10 
   7  13  -7   -0.03    0.10 
   7  14  -7    0.06    0.11 
   7  15  -7    0.59    0.17 
   7  16  -7    0.06    0.14 
   7  17  -7   -0.06    0.12 
  -7 -18   7   -0.09    0.14 
   8 -17  -7   -0.04    0.12 
   8 -16  -7    0.37    0.14 
   8 -15  -7   -0.10    0.09 
   8 -14  -7   -0.13    0.09 
   8 -13  -7    0.36    0.12 
   8 -12  -7    1.58    0.17 
   8 -11  -7   -0.09    0.08 
   8 -10  -7    0.38    0.10 
   8  -9  -7    3.56    0.23 
   8  -8  -7    5.34    0.28 
   8  -7  -7    0.20    0.06 
   8  -7  -7    0.16    0.08 
   8  -6  -7   -0.01    0.05 
   8  -6  -7    0.09    0.07 
   8  -5  -7    0.04    0.05 
   8  -5  -7   -0.08    0.04 
   8  -4  -7    3.71    0.19 
   8  -4  -7    3.79    0.20 
   8  -3  -7    0.23    0.06 
   8  -3  -7    0.22    0.06 
   8  -2  -7    2.13    0.13 
   8  -2  -7    2.07    0.14 
   8  -1  -7    0.71    0.09 
   8  -1  -7    0.99    0.09 
   8   0  -7   -0.01    0.03 
   8   0  -7   -0.02    0.04 
   8   1  -7    0.94    0.11 
   8   1  -7    0.71    0.08 
   8   2  -7    2.05    0.13 
   8   2  -7    2.11    0.16 
   8   3  -7    0.17    0.05 
   8   3  -7    0.30    0.08 
   8   4  -7    3.40    0.22 
   8   4  -7    3.52    0.19 
   8   5  -7    0.09    0.05 
   8   5  -7   -0.03    0.06 
   8   6  -7    0.07    0.05 
   8   6  -7    0.05    0.07 
   8   7  -7    0.31    0.07 
   8   7  -7    0.13    0.08 
   8   8  -7    5.61    0.28 
   8   8  -7    4.92    0.31 
   8   9  -7    3.33    0.25 
   8  10  -7    0.24    0.12 
   8  11  -7    0.15    0.10 
   8  12  -7    2.16    0.24 
   8  13  -7    0.25    0.14 
   8  14  -7   -0.09    0.12 
   8  15  -7    0.06    0.12 
   8  16  -7    0.52    0.18 
   8  17  -7    0.08    0.15 
   9 -17  -7    0.05    0.13 
   9 -16  -7    0.36    0.15 
   9 -15  -7    0.10    0.12 
   9 -14  -7   -0.07    0.09 
   9 -13  -7    0.50    0.12 
   9 -12  -7    0.20    0.10 
   9 -11  -7    0.17    0.09 
   9 -10  -7    0.12    0.08 
   9  -9  -7    0.03    0.08 
   9  -8  -7    0.01    0.08 
   9  -7  -7    0.30    0.09 
   9  -7  -7    0.30    0.07 
   9  -6  -7    1.81    0.13 
   9  -6  -7    2.04    0.15 
   9  -5  -7    2.56    0.16 
   9  -5  -7    2.34    0.17 
   9  -4  -7    0.36    0.07 
   9  -4  -7    0.41    0.08 
   9  -3  -7    2.38    0.16 
   9  -3  -7    2.71    0.16 
   9  -2  -7    0.13    0.05 
   9  -2  -7    0.31    0.07 
   9  -1  -7    0.21    0.06 
   9  -1  -7    0.13    0.06 
   9   0  -7   -0.02    0.04 
   9   0  -7   -0.09    0.04 
   9   1  -7    0.22    0.07 
   9   1  -7    0.17    0.05 
   9   2  -7    0.31    0.06 
   9   2  -7    0.28    0.08 
   9   3  -7    2.42    0.14 
   9   3  -7    2.15    0.17 
   9   4  -7    0.14    0.08 
   9   4  -7    0.50    0.07 
   9   5  -7    2.43    0.16 
   9   5  -7    2.37    0.19 
   9   6  -7    2.09    0.14 
   9   6  -7    2.18    0.20 
   9   7  -7    0.36    0.08 
   9   7  -7    0.21    0.09 
   9   8  -7    0.03    0.08 
   9   8  -7    0.12    0.06 
   9   9  -7   -0.04    0.08 
   9  10  -7   -0.01    0.09 
   9  11  -7    0.22    0.12 
   9  12  -7   -0.05    0.09 
   9  13  -7    0.40    0.15 
   9  14  -7   -0.08    0.11 
   9  15  -7    0.16    0.14 
   9  16  -7    0.22    0.14 
   9  17  -7    0.04    0.14 
  10 -16  -7    0.24    0.12 
  10 -15  -7    0.06    0.11 
  10 -14  -7    0.13    0.11 
  10 -13  -7    0.01    0.10 
  10 -12  -7    0.37    0.11 
  10 -11  -7    0.01    0.09 
  10 -10  -7    0.07    0.09 
  10  -9  -7    0.48    0.12 
  10  -8  -7    0.06    0.08 
  10  -7  -7    1.68    0.14 
  10  -7  -7    1.62    0.15 
  10  -6  -7    0.81    0.12 
  10  -6  -7    0.80    0.11 
  10  -5  -7    1.91    0.14 
  10  -5  -7    2.12    0.16 
  10  -4  -7    0.66    0.10 
  10  -4  -7    0.73    0.11 
  10  -3  -7    0.45    0.08 
  10  -3  -7    0.61    0.10 
  10  -2  -7    3.37    0.19 
  10  -2  -7    3.40    0.21 
  10  -1  -7    1.56    0.14 
  10  -1  -7    1.60    0.12 
  10   0  -7   -0.06    0.05 
  10   0  -7   -0.03    0.04 
  10   1  -7    1.34    0.11 
  10   1  -7    1.48    0.15 
  10   2  -7    3.28    0.21 
  10   2  -7    3.33    0.18 
  10   3  -7    0.62    0.08 
  10   3  -7    0.66    0.12 
  10   4  -7    0.66    0.09 
  10   4  -7    0.69    0.12 
  10   5  -7    2.50    0.16 
  10   5  -7    2.22    0.20 
  10   6  -7    0.65    0.09 
  10   6  -7    0.77    0.13 
  10   7  -7    1.78    0.14 
  10   7  -7    1.79    0.20 
  10   8  -7    0.02    0.09 
  10   8  -7    0.15    0.06 
  10   9  -7    0.48    0.13 
  10  10  -7    0.00    0.10 
  10  11  -7    0.17    0.11 
  10  12  -7    0.45    0.14 
  10  13  -7    0.15    0.12 
  10  14  -7    0.21    0.15 
  10  15  -7   -0.09    0.11 
  10  16  -7    0.22    0.15 
  11 -16  -7    0.18    0.12 
  11 -15  -7    0.08    0.11 
  11 -14  -7    0.05    0.10 
  11 -13  -7   -0.05    0.10 
  11 -12  -7    0.39    0.12 
  11 -11  -7    0.08    0.10 
  11 -10  -7    0.21    0.10 
  11  -9  -7    0.26    0.10 
  11  -8  -7    0.06    0.08 
  11  -7  -7    0.47    0.11 
  11  -7  -7    0.49    0.10 
  11  -6  -7    1.40    0.15 
  11  -6  -7    1.74    0.15 
  11  -5  -7    0.39    0.10 
  11  -5  -7    0.59    0.10 
  11  -4  -7    0.15    0.07 
  11  -4  -7    0.27    0.09 
  11  -3  -7    0.27    0.08 
  11  -3  -7    0.39    0.09 
  11  -2  -7    0.09    0.07 
  11  -2  -7    0.14    0.06 
  11  -1  -7    0.20    0.08 
  11  -1  -7    0.21    0.07 
  11   0  -7   -0.02    0.05 
  11   0  -7   -0.12    0.05 
  11   1  -7    0.25    0.06 
  11   1  -7    0.24    0.08 
  11   2  -7    0.10    0.05 
  11   2  -7    0.16    0.08 
  11   3  -7    0.28    0.07 
  11   3  -7    0.35    0.10 
  11   4  -7    0.34    0.07 
  11   4  -7    0.27    0.10 
  11   5  -7    0.36    0.11 
  11   6  -7    1.72    0.19 
  11   7  -7    0.47    0.12 
  11   8  -7   -0.05    0.08 
  11   9  -7    0.20    0.11 
  11  10  -7    0.06    0.10 
  11  11  -7   -0.04    0.10 
  11  12  -7    0.39    0.15 
  11  13  -7    0.04    0.11 
  11  14  -7    0.11    0.13 
  11  15  -7    0.42    0.17 
  11  16  -7    0.21    0.15 
  12 -15  -7   -0.11    0.10 
  12 -14  -7    0.04    0.10 
  12 -13  -7    0.02    0.11 
  12 -12  -7    0.10    0.12 
  12 -11  -7    0.04    0.09 
  12 -10  -7    0.17    0.10 
  12  -9  -7    0.66    0.13 
  12  -8  -7    0.11    0.10 
  12  -7  -7    0.05    0.09 
  12  -6  -7    0.36    0.10 
  12  -6  -7    0.34    0.09 
  12  -5  -7    0.23    0.10 
  12  -5  -7    0.32    0.08 
  12  -4  -7    0.03    0.07 
  12  -4  -7    0.05    0.08 
  12  -3  -7    0.50    0.11 
  12  -3  -7    0.44    0.10 
  12  -2  -7    0.71    0.11 
  12  -2  -7    0.86    0.13 
  12  -1  -7    3.38    0.22 
  12  -1  -7    3.24    0.19 
  12   0  -7   -0.03    0.05 
  12   0  -7    0.04    0.08 
  12   1  -7    3.63    0.20 
  12   1  -7    3.57    0.24 
  12   2  -7    0.78    0.13 
  12   2  -7    0.82    0.09 
  12   3  -7    0.43    0.07 
  12   3  -7    0.67    0.13 
  12   4  -7   -0.05    0.07 
  12   4  -7    0.01    0.03 
  12   5  -7    0.43    0.12 
  12   5  -7    0.30    0.07 
  12   6  -7    0.54    0.13 
  12   7  -7    0.15    0.10 
  12   8  -7    0.23    0.10 
  12   9  -7    0.40    0.14 
  12  10  -7    0.05    0.11 
  12  11  -7    0.05    0.11 
  12  12  -7    0.19    0.13 
  12  13  -7   -0.02    0.12 
  12  14  -7    0.01    0.12 
  12  15  -7   -0.03    0.12 
  13 -14  -7    0.00    0.11 
  13 -13  -7    0.17    0.12 
  13 -12  -7    0.36    0.13 
  13 -11  -7    0.24    0.11 
  13 -10  -7    0.00    0.10 
  13  -9  -7   -0.06    0.09 
  13  -8  -7   -0.04    0.09 
  13  -7  -7    0.33    0.11 
  13  -6  -7    0.17    0.10 
  13  -6  -7    0.21    0.09 
  13  -5  -7    0.47    0.10 
  13  -5  -7    0.35    0.11 
  13  -4  -7    0.58    0.12 
  13  -4  -7    0.75    0.13 
  13  -3  -7   -0.08    0.08 
  13  -3  -7    0.07    0.09 
  13  -2  -7    0.09    0.08 
  13  -2  -7    0.15    0.09 
  13  -1  -7    0.05    0.08 
  13  -1  -7    0.03    0.07 
  13   0  -7   -0.10    0.07 
  13   0  -7    0.06    0.06 
  13   1  -7    0.00    0.05 
  13   1  -7   -0.06    0.07 
  13   2  -7    0.13    0.05 
  13   2  -7    0.11    0.09 
  13   3  -7    0.04    0.09 
  13   3  -7    0.12    0.05 
  13   4  -7    0.44    0.12 
  13   5  -7    0.29    0.12 
  13   6  -7    0.07    0.09 
  13   7  -7    0.18    0.11 
  13   8  -7    0.04    0.09 
  13   9  -7    0.03    0.11 
  13  10  -7    0.04    0.11 
  13  11  -7    0.08    0.11 
  13  12  -7   -0.06    0.11 
  13  13  -7    0.18    0.14 
  13  14  -7    0.14    0.13 
  14 -14  -7    0.25    0.12 
  14 -13  -7    0.20    0.12 
  14 -12  -7    0.09    0.11 
  14 -11  -7    0.24    0.13 
  14 -10  -7   -0.07    0.10 
  14  -9  -7    0.34    0.12 
  14  -8  -7    0.26    0.11 
  14  -7  -7    0.30    0.11 
  14  -6  -7   -0.11    0.08 
  14  -6  -7   -0.03    0.09 
  14  -5  -7    0.60    0.13 
  14  -5  -7    0.46    0.12 
  14  -4  -7    0.04    0.09 
  14  -4  -7    0.10    0.08 
  14  -3  -7    0.77    0.12 
  14  -3  -7    0.86    0.14 
  14  -2  -7   -0.03    0.08 
  14  -2  -7    0.15    0.09 
  14  -1  -7    0.13    0.09 
  14  -1  -7    0.12    0.10 
  14   0  -7   -0.15    0.07 
  14   0  -7    0.00    0.07 
  14   1  -7    0.05    0.05 
  14   1  -7    0.14    0.11 
  14   2  -7   -0.03    0.08 
  14   3  -7    0.48    0.13 
  14   4  -7    0.03    0.10 
  14   5  -7    0.67    0.15 
  14   6  -7   -0.05    0.09 
  14   7  -7    0.38    0.14 
  14   8  -7    0.39    0.14 
  14   9  -7    0.06    0.11 
  14  10  -7    0.03    0.11 
  14  11  -7    0.29    0.15 
  14  12  -7   -0.04    0.11 
  14  13  -7    0.03    0.12 
  14  14  -7    0.03    0.13 
  15 -13  -7   -0.04    0.11 
  15 -12  -7   -0.16    0.11 
  15 -11  -7   -0.23    0.10 
  15 -10  -7    0.01    0.11 
  15  -9  -7   -0.05    0.10 
  15  -8  -7    0.54    0.13 
  15  -7  -7   -0.11    0.10 
  15  -6  -7   -0.09    0.09 
  15  -5  -7    0.01    0.09 
  15  -5  -7    0.31    0.11 
  15  -4  -7    0.16    0.10 
  15  -4  -7    0.26    0.11 
  15  -3  -7    0.11    0.09 
  15  -3  -7    0.01    0.09 
  15  -2  -7    0.14    0.10 
  15  -2  -7    0.08    0.09 
  15  -1  -7   -0.02    0.09 
  15  -1  -7   -0.07    0.09 
  15   0  -7   -0.06    0.09 
  15   1  -7   -0.14    0.07 
  15   2  -7    0.18    0.11 
  15   3  -7    0.03    0.10 
  15   4  -7    0.09    0.11 
  15   5  -7    0.11    0.12 
  15   6  -7   -0.03    0.11 
  15   7  -7    0.05    0.12 
  15   8  -7    0.64    0.17 
  15   9  -7    0.04    0.14 
  15  10  -7    0.08    0.12 
  15  11  -7   -0.04    0.12 
  15  12  -7    0.00    0.12 
  15  13  -7    0.04    0.14 
  16 -12  -7    0.08    0.12 
  16 -11  -7    0.30    0.13 
  16 -10  -7    0.00    0.12 
  16  -9  -7    0.41    0.14 
  16  -8  -7    0.00    0.11 
  16  -7  -7   -0.09    0.10 
  16  -6  -7    0.10    0.11 
  16  -5  -7    0.23    0.11 
  16  -5  -7    0.42    0.12 
  16  -4  -7    0.00    0.10 
  16  -4  -7   -0.13    0.08 
  16  -3  -7    0.12    0.11 
  16  -2  -7    0.49    0.13 
  16  -1  -7    0.53    0.15 
  16   0  -7   -0.06    0.09 
  16   1  -7    0.23    0.12 
  16   2  -7    0.33    0.12 
  16   3  -7   -0.12    0.10 
  16   4  -7    0.18    0.12 
  16   5  -7    0.18    0.13 
  16   6  -7    0.13    0.13 
  16   7  -7    0.05    0.13 
  16   8  -7   -0.08    0.12 
  16   9  -7    0.24    0.17 
  16  10  -7   -0.04    0.12 
  16  11  -7    0.02    0.13 
  17 -10  -7    0.25    0.14 
  17  -9  -7    0.04    0.12 
  17  -8  -7    0.01    0.12 
  17  -7  -7   -0.06    0.12 
  17  -5  -7    0.04    0.12 
  17  -4  -7    0.11    0.11 
  17  -3  -7   -0.07    0.09 
  17  -2  -7    0.01    0.10 
  17  -1  -7   -0.05    0.10 
  17   0  -7   -0.02    0.11 
  17   1  -7   -0.12    0.10 
  17   2  -7   -0.09    0.11 
  17   3  -7    0.07    0.12 
  17   4  -7    0.05    0.12 
  17   5  -7   -0.08    0.12 
  17   6  -7    0.08    0.13 
  17   7  -7    0.11    0.15 
  17   8  -7   -0.19    0.14 
  17   9  -7   -0.04    0.14 
  17  10  -7   -0.01    0.15 
  18  -4  -7    0.02    0.13 
  18  -3  -7    0.33    0.15 
  18  -2  -7    0.04    0.13 
  18  -1  -7    0.19    0.14 
  18   0  -7   -0.09    0.11 
  18   1  -7    0.47    0.16 
  18   2  -7   -0.08    0.12 
  18   3  -7   -0.18    0.11 
  18   4  -7    0.10    0.15 
  18   5  -7    0.17    0.16 
  18   6  -7    0.04    0.15 
  18   7  -7    0.23    0.17 
  18   8  -7   -0.08    0.15 
  19  -4  -7   -0.04    0.14 
  19  -3  -7    0.08    0.14 
  19  -2  -7   -0.03    0.13 
  19  -1  -7    0.09    0.14 
  19   0  -7    0.03    0.14 
  19   1  -7   -0.09    0.13 
  19   2  -7    0.21    0.15 
  19   3  -7   -0.09    0.13 
  19   4  -7    0.07    0.16 
  19   5  -7   -0.07    0.15 
  19   6  -7   -0.21    0.14 
  20  -3  -7   -0.10    0.15 
  20  -2  -7    0.05    0.16 
  20  -1  -7    0.00    0.15 
  20   0  -7    0.05    0.16 
  20   1  -7    0.14    0.16 
  20   2  -7    0.00    0.17 
  20   3  -7   -0.01    0.16 
  20   0   8    0.14    0.10 
  19   6   8    0.25    0.12 
  19   5   8   -0.08    0.09 
  19   4   8    0.47    0.14 
  19   3   8    0.15    0.11 
  19   2   8    0.09    0.11 
  19   1   8    0.17    0.12 
  19   0   8    0.19    0.11 
  19  -1   8    0.05    0.10 
  19  -2   8    0.32    0.12 
  19  -3   8    0.13    0.15 
  19  -4   8    0.44    0.18 
  19  -5   8   -0.12    0.13 
  19  -6   8    0.00    0.15 
  18   8   8    0.07    0.11 
 -18  -8  -8   -0.03    0.16 
  18   7   8    0.23    0.13 
 -18  -7  -8    0.02    0.15 
  18   6   8   -0.10    0.09 
 -18  -6  -8    0.10    0.14 
  18   5   8   -0.08    0.09 
 -18  -5  -8    0.06    0.14 
  18   4   8    0.09    0.12 
  18   3   8    0.11    0.11 
  18   2   8    0.28    0.12 
  18   1   8    0.07    0.10 
  18   0   8    0.01    0.10 
  18  -1   8    0.16    0.12 
  18  -2   8    0.06    0.10 
  18  -3   8   -0.21    0.12 
  18  -4   8   -0.17    0.12 
  18  -5   8    0.29    0.16 
  18  -6   8   -0.05    0.15 
  18  -7   8    0.14    0.16 
  18  -8   8   -0.01    0.15 
  17  10   8    0.43    0.15 
 -17 -10  -8    0.13    0.16 
  17   9   8    0.08    0.12 
 -17  -9  -8    0.18    0.16 
  17   8   8    0.21    0.12 
 -17  -8  -8    0.26    0.16 
  17   7   8    0.07    0.12 
 -17  -7  -8    0.09    0.14 
  17   6   8    0.09    0.10 
 -17  -6  -8   -0.13    0.13 
  17   5   8    0.19    0.11 
 -17  -5  -8   -0.01    0.12 
  17   4   8    0.59    0.14 
 -17  -4  -8    0.24    0.14 
  17   3   8    0.04    0.10 
  17   2   8    0.02    0.10 
  17   1   8    0.10    0.10 
  17   0   8    0.36    0.13 
  17  -1   8   -0.15    0.07 
  17  -2   8    0.23    0.11 
  17  -3   8    0.03    0.12 
  17  -4   8    0.51    0.15 
  17  -5   8   -0.10    0.13 
  17  -6   8   -0.01    0.14 
  17  -7   8   -0.10    0.13 
  17  -8   8    0.02    0.15 
  17  -9   8    0.10    0.15 
  17 -10   8    0.07    0.16 
  16  11   8    0.37    0.15 
 -16 -11  -8   -0.04    0.15 
  16  10   8    0.24    0.12 
 -16 -10  -8    0.01    0.13 
  16   9   8    0.12    0.12 
 -16  -9  -8    0.02    0.13 
  16   8   8    0.11    0.11 
 -16  -8  -8    0.00    0.13 
  16   7   8    0.13    0.10 
 -16  -7  -8    0.07    0.12 
  16   6   8    0.26    0.11 
 -16  -6  -8    0.13    0.13 
  16   5   8    0.06    0.10 
 -16  -5  -8    0.07    0.12 
  16   4   8    0.12    0.10 
 -16  -4  -8    0.02    0.12 
  16   3   8    0.09    0.10 
 -16  -3  -8    0.03    0.11 
  16   2   8    0.03    0.09 
  16   1   8    0.13    0.10 
  16   0   8    0.69    0.15 
  16  -1   8    0.13    0.10 
  16  -2   8   -0.04    0.08 
  16  -3   8    0.18    0.11 
  16  -4   8    0.11    0.13 
  16  -5   8    0.11    0.13 
  16  -6   8   -0.12    0.11 
  16  -7   8    0.03    0.12 
  16  -8   8    0.00    0.13 
  16  -9   8    0.08    0.14 
  16 -10   8   -0.12    0.14 
  16 -11   8    0.03    0.15 
 -15 -12  -8   -0.01    0.14 
  15  11   8    0.09    0.13 
 -15 -11  -8   -0.04    0.14 
  15  10   8    0.23    0.13 
 -15 -10  -8    0.33    0.14 
  15   9   8    0.04    0.11 
 -15  -9  -8    0.15    0.13 
  15   8   8    0.31    0.13 
 -15  -8  -8    0.17    0.12 
  15   7   8    0.02    0.09 
 -15  -7  -8   -0.03    0.10 
  15   6   8    0.64    0.14 
 -15  -6  -8    0.69    0.17 
  15   5   8   -0.02    0.09 
 -15  -5  -8    0.00    0.11 
  15   4   8    0.56    0.13 
 -15  -4  -8    0.65    0.15 
  15   3   8    0.04    0.09 
 -15  -3  -8    0.10    0.10 
  15   2   8   -0.10    0.08 
 -15  -2  -8    0.06    0.10 
  15   1   8    0.02    0.09 
  15   0   8    0.63    0.14 
  15  -1   8   -0.03    0.08 
  15  -2   8    0.00    0.09 
  15  -3   8    0.05    0.09 
  15  -4   8    0.69    0.16 
  15  -5   8    0.05    0.11 
  15  -6   8    0.53    0.15 
  15  -7   8    0.06    0.12 
  15  -8   8   -0.06    0.12 
  15  -9   8   -0.03    0.12 
  15 -10   8    0.22    0.14 
  15 -11   8    0.04    0.14 
  15 -12   8    0.36    0.18 
  15 -12   8    0.14    0.16 
 -14 -13  -8    0.08    0.15 
 -14 -12  -8    0.16    0.14 
  14  11   8    0.17    0.13 
 -14 -11  -8    0.01    0.13 
  14  10   8    0.14    0.12 
 -14 -10  -8   -0.09    0.11 
  14   9   8    0.31    0.12 
 -14  -9  -8    0.31    0.14 
  14   8   8    0.12    0.10 
 -14  -8  -8    0.13    0.11 
  14   7   8    0.14    0.10 
 -14  -7  -8    0.12    0.11 
  14   6   8    0.02    0.09 
 -14  -6  -8    0.09    0.10 
  14   5   8    0.09    0.09 
 -14  -5  -8    0.00    0.10 
  14   4   8    0.25    0.11 
 -14  -4  -8    0.23    0.11 
  14   3   8    0.04    0.09 
 -14  -3  -8    0.01    0.09 
  14   2   8   -0.11    0.07 
 -14  -2  -8    0.04    0.09 
  14   1   8    0.20    0.09 
 -14  -1  -8    0.29    0.12 
  14   0   8    0.09    0.08 
  14  -1   8    0.42    0.12 
  14  -2   8    0.06    0.09 
  14  -3   8    0.20    0.10 
  14  -4   8    0.14    0.11 
  14  -5   8    0.11    0.10 
  14  -6   8    0.03    0.10 
  14  -7   8    0.05    0.11 
  14  -8   8    0.14    0.11 
  14  -9   8    0.13    0.13 
  14  -9   8    0.41    0.13 
  14 -10   8    0.00    0.11 
  14 -10   8    0.11    0.12 
  14 -11   8   -0.08    0.12 
  14 -11   8   -0.03    0.13 
  14 -12   8   -0.04    0.12 
  14 -12   8   -0.12    0.13 
  14 -13   8    0.01    0.13 
  14 -13   8   -0.12    0.14 
 -13 -14  -8    0.12    0.14 
 -13 -13  -8   -0.03    0.14 
 -13 -12  -8   -0.13    0.12 
  13  11   8    0.05    0.12 
 -13 -11  -8    0.02    0.13 
  13  10   8    0.75    0.15 
 -13 -10  -8    0.75    0.16 
  13   9   8   -0.09    0.08 
 -13  -9  -8    0.01    0.10 
  13   8   8    0.59    0.12 
 -13  -8  -8    0.36    0.13 
  13   7   8    0.45    0.11 
 -13  -7  -8    0.35    0.12 
  13   6   8    0.22    0.10 
 -13  -6  -8    0.53    0.13 
  13   5   8    0.06    0.09 
 -13  -5  -8    0.05    0.09 
  13   4   8    1.31    0.16 
 -13  -4  -8    1.62    0.19 
  13   3   8    1.24    0.16 
 -13  -3  -8    0.84    0.15 
  13   2   8   -0.08    0.07 
 -13  -2  -8   -0.03    0.08 
  13   1   8    0.59    0.12 
 -13  -1  -8    0.43    0.12 
  13   0   8    3.94    0.25 
  13  -1   8    0.69    0.13 
  13  -2   8    0.06    0.08 
  13  -3   8    0.88    0.14 
  13  -4   8    1.56    0.19 
  13  -5   8    0.04    0.09 
  13  -6   8    0.37    0.12 
  13  -7   8    0.26    0.11 
  13  -8   8    0.30    0.12 
  13  -9   8   -0.06    0.10 
  13 -10   8    0.73    0.16 
  13 -11   8   -0.01    0.12 
  13 -11   8    0.15    0.13 
  13 -12   8    0.12    0.13 
  13 -12   8    0.15    0.13 
  13 -13   8    0.01    0.13 
  13 -13   8    0.07    0.14 
  13 -14   8    0.07    0.14 
  13 -14   8    0.08    0.15 
 -12 -15  -8   -0.11    0.13 
 -12 -14  -8    0.14    0.15 
 -12 -13  -8   -0.06    0.12 
 -12 -12  -8    0.01    0.12 
  12  11   8    0.18    0.11 
 -12 -11  -8   -0.08    0.09 
  12  10   8    0.31    0.11 
 -12 -10  -8    0.10    0.12 
  12   9   8    0.20    0.10 
 -12  -9  -8   -0.15    0.08 
  12   8   8    0.04    0.09 
 -12  -8  -8    0.32    0.11 
  12   7   8   -0.12    0.07 
 -12  -7  -8    0.08    0.10 
  12   6   8    1.44    0.16 
 -12  -6  -8    1.21    0.16 
  12   5   8    0.05    0.08 
 -12  -5  -8    0.37    0.11 
  12   4   8    0.36    0.10 
 -12  -4  -8    0.29    0.11 
  12   3   8   -0.02    0.07 
 -12  -3  -8    0.07    0.08 
  12   2   8    0.04    0.07 
 -12  -2  -8    0.00    0.08 
  12   1   8    0.53    0.11 
 -12  -1  -8    0.37    0.11 
  12   0   8    0.56    0.11 
 -12   0  -8    0.49    0.12 
  12  -1   8    0.51    0.11 
  12  -2   8    0.04    0.07 
  12  -3   8    0.07    0.07 
  12  -4   8    0.29    0.10 
  12  -5   8    0.32    0.11 
  12  -6   8    1.35    0.17 
  12  -7   8    0.04    0.09 
  12  -8   8    0.08    0.11 
  12  -9   8   -0.03    0.09 
  12 -10   8    0.24    0.13 
  12 -11   8    0.02    0.11 
  12 -12   8    0.22    0.13 
  12 -13   8   -0.02    0.13 
  12 -14   8    0.02    0.14 
  12 -14   8    0.08    0.13 
  12 -15   8   -0.09    0.15 
  12 -15   8   -0.10    0.12 
 -11 -15  -8    0.14    0.15 
 -11 -14  -8    0.22    0.16 
 -11 -13  -8   -0.15    0.11 
 -11 -12  -8    0.08    0.11 
  11  11   8    1.10    0.16 
 -11 -11  -8    1.11    0.18 
  11  10   8    0.18    0.10 
 -11 -10  -8    0.01    0.09 
  11   9   8    0.53    0.12 
 -11  -9  -8    0.32    0.11 
  11   8   8    0.87    0.13 
 -11  -8  -8    0.79    0.15 
  11   7   8    1.56    0.17 
 -11  -7  -8    1.70    0.18 
  11   6   8   -0.06    0.07 
 -11  -6  -8    0.22    0.11 
  11   5   8    0.09    0.08 
 -11  -5  -8    0.02    0.08 
  11   4   8    0.28    0.09 
 -11  -4  -8    0.46    0.11 
  11   3   8    0.66    0.11 
 -11  -3  -8    0.77    0.13 
  11   2   8    0.03    0.06 
 -11  -2  -8    0.10    0.08 
  11   1   8    0.66    0.11 
 -11  -1  -8    0.63    0.12 
  11   0   8    0.00    0.07 
 -11   0  -8   -0.01    0.07 
  11  -1   8    0.85    0.12 
  11  -2   8    0.11    0.08 
  11  -3   8    0.64    0.12 
  11  -4   8    0.30    0.09 
  11  -5   8   -0.02    0.08 
  11  -6   8    0.19    0.10 
  11  -7   8    1.62    0.18 
  11  -8   8    0.78    0.15 
  11  -9   8    0.18    0.11 
  11 -10   8   -0.01    0.09 
  11 -11   8    1.13    0.18 
  11 -12   8    0.16    0.12 
  11 -13   8    0.09    0.12 
  11 -14   8    0.50    0.17 
  11 -15   8   -0.02    0.14 
  11 -16   8   -0.06    0.11 
  11 -16   8    0.03    0.16 
 -10 -16  -8   -0.04    0.15 
 -10 -15  -8    0.00    0.13 
 -10 -14  -8    0.13    0.14 
 -10 -13  -8    0.14    0.13 
 -10 -12  -8    0.27    0.13 
  10  11   8    0.42    0.13 
 -10 -11  -8    0.51    0.13 
  10  10   8    0.19    0.10 
 -10 -10  -8    0.10    0.10 
  10   9   8    0.77    0.13 
 -10  -9  -8    0.40    0.13 
  10   8   8   -0.02    0.08 
 -10  -8  -8    0.07    0.10 
  10   7   8   -0.07    0.06 
 -10  -7  -8    0.15    0.09 
  10   6   8    0.05    0.07 
 -10  -6  -8    0.09    0.08 
  10   5   8    0.04    0.07 
 -10  -5  -8    0.01    0.07 
  10   4   8    0.05    0.06 
 -10  -4  -8    0.05    0.07 
  10   3   8   -0.06    0.05 
 -10  -3  -8    0.00    0.07 
  10   2   8   -0.06    0.06 
 -10  -2  -8   -0.07    0.06 
  10   1   8    0.26    0.08 
 -10  -1  -8    0.25    0.09 
  10   0   8   -0.04    0.05 
 -10   0  -8    0.07    0.07 
  10  -1   8    0.17    0.07 
 -10   1  -8    0.03    0.07 
  10  -2   8   -0.10    0.06 
  10  -3   8    0.05    0.07 
  10  -4   8   -0.05    0.06 
  10  -5   8    0.04    0.08 
  10  -6   8   -0.01    0.08 
  10  -7   8   -0.04    0.08 
  10  -8   8   -0.02    0.08 
  10  -9   8    0.59    0.13 
  10 -10   8    0.05    0.10 
  10 -11   8    0.25    0.12 
  10 -12   8    0.14    0.12 
  10 -13   8    0.21    0.13 
  10 -14   8    0.07    0.14 
  10 -15   8    0.29    0.16 
  10 -16   8   -0.08    0.14 
  -9 -17  -8    0.53    0.19 
  -9 -16  -8    0.17    0.15 
  -9 -15  -8    0.29    0.15 
  -9 -14  -8    1.58    0.22 
  -9 -13  -8   -0.04    0.10 
  -9 -12  -8    0.05    0.10 
  -9 -11  -8    0.91    0.16 
   9  10   8    0.04    0.08 
  -9 -10  -8   -0.17    0.08 
   9   9   8    0.09    0.08 
  -9  -9  -8    0.07    0.09 
   9   8   8    0.12    0.07 
  -9  -8  -8    0.25    0.10 
   9   7   8    1.85    0.16 
  -9  -7  -8    1.82    0.18 
   9   6   8    0.99    0.12 
  -9  -6  -8    1.05    0.14 
   9   5   8   -0.03    0.05 
  -9  -5  -8   -0.01    0.08 
   9   4   8    3.51    0.21 
  -9  -4  -8    3.57    0.23 
   9   3   8    0.04    0.06 
  -9  -3  -8    0.04    0.07 
   9   2   8    1.40    0.13 
  -9  -2  -8    1.39    0.14 
   9   1   8    0.05    0.05 
  -9  -1  -8    0.04    0.07 
   9   0   8    1.11    0.12 
  -9   0  -8    1.06    0.13 
   9  -1   8   -0.05    0.05 
  -9   1  -8   -0.01    0.05 
   9  -2   8    1.34    0.14 
   9  -3   8   -0.01    0.06 
   9  -4   8    3.39    0.22 
   9  -5   8   -0.08    0.07 
   9  -6   8    1.06    0.14 
   9  -7   8    1.61    0.17 
   9  -8   8    0.10    0.09 
   9  -9   8    0.04    0.09 
   9 -10   8    0.09    0.09 
   9 -11   8    0.90    0.15 
   9 -12   8    0.16    0.11 
   9 -13   8    0.09    0.12 
   9 -14   8    1.48    0.21 
   9 -15   8    0.14    0.14 
   9 -16   8   -0.01    0.14 
   9 -17   8    0.25    0.17 
  -8 -17  -8    0.08    0.17 
  -8 -16  -8    0.12    0.15 
  -8 -15  -8    0.02    0.12 
  -8 -14  -8    0.36    0.14 
  -8 -13  -8    0.40    0.13 
  -8 -12  -8   -0.04    0.09 
  -8 -11  -8    1.01    0.16 
   8  10   8    0.61    0.10 
  -8 -10  -8    0.94    0.15 
   8   9   8    1.00    0.12 
  -8  -9  -8    1.07    0.15 
   8   8   8    0.67    0.10 
  -8  -8  -8    0.79    0.13 
   8   7   8    1.26    0.13 
  -8  -7  -8    1.11    0.14 
   8   6   8    3.92    0.22 
  -8  -6  -8    3.94    0.24 
   8   5   8    2.56    0.16 
  -8  -5  -8    2.36    0.18 
   8   4   8    0.97    0.11 
  -8  -4  -8    1.07    0.13 
   8   3   8    0.02    0.05 
  -8  -3  -8    0.06    0.03 
  -8  -3  -8    0.06    0.06 
   8   2   8    0.73    0.10 
  -8  -2  -8    0.70    0.10 
   8   1   8    0.76    0.09 
  -8  -1  -8    0.67    0.10 
   8   0   8    2.15    0.15 
  -8   0  -8    2.54    0.17 
   8  -1   8    0.83    0.10 
  -8   1  -8    0.71    0.10 
   8  -2   8    0.90    0.11 
   8  -3   8   -0.03    0.05 
   8  -4   8    0.83    0.11 
   8  -5   8    2.62    0.19 
   8  -6   8    4.26    0.26 
   8  -7   8    1.09    0.14 
   8  -8   8    0.47    0.11 
   8  -9   8    0.95    0.14 
   8 -10   8    0.86    0.14 
   8 -11   8    0.91    0.15 
   8 -12   8    0.06    0.10 
   8 -13   8    0.37    0.13 
   8 -14   8    0.48    0.15 
   8 -15   8   -0.10    0.12 
   8 -16   8   -0.01    0.13 
   8 -17   8    0.01    0.16 
  -7 -17  -8    0.15    0.17 
  -7 -16  -8   -0.06    0.12 
  -7 -15  -8    0.43    0.15 
  -7 -14  -8    0.90    0.17 
  -7 -13  -8    0.84    0.16 
  -7 -12  -8    1.20    0.17 
  -7 -11  -8    0.44    0.13 
   7  10   8    0.02    0.05 
  -7 -10  -8    0.01    0.09 
   7   9   8    0.03    0.04 
  -7  -9  -8    0.23    0.10 
   7   8   8    0.20    0.06 
  -7  -8  -8    0.24    0.09 
   7   7   8    6.87    0.32 
  -7  -7  -8    6.68    0.35 
   7   6   8    0.13    0.06 
  -7  -6  -8    0.17    0.08 
  -7  -6  -8    0.13    0.04 
   7   5   8    0.18    0.06 
  -7  -5  -8    0.29    0.08 
  -7  -5  -8    0.16    0.03 
   7   4   8    5.16    0.25 
  -7  -4  -8    4.85    0.26 
  -7  -4  -8    5.05    0.21 
   7   3   8    6.64    0.31 
  -7  -3  -8    6.80    0.33 
  -7  -3  -8    7.02    0.27 
   7   2   8    2.23    0.14 
  -7  -2  -8    1.97    0.15 
  -7  -2  -8    2.13    0.11 
   7   1   8    1.65    0.12 
  -7  -1  -8    1.63    0.14 
  -7  -1  -8    1.59    0.10 
   7   0   8    2.53    0.16 
  -7   0  -8    2.50    0.17 
   7  -1   8    1.72    0.13 
  -7   1  -8    1.74    0.13 
   7  -2   8    2.02    0.15 
  -7   2  -8    2.32    0.16 
   7  -3   8    6.67    0.32 
   7  -4   8    4.71    0.25 
   7  -5   8    0.13    0.07 
   7  -6   8    0.13    0.07 
   7  -7   8    7.21    0.36 
   7  -8   8    0.15    0.08 
   7  -9   8    0.29    0.10 
   7 -10   8    0.19    0.09 
   7 -11   8    0.48    0.13 
   7 -12   8    1.10    0.16 
   7 -13   8    1.03    0.17 
   7 -14   8    1.16    0.19 
   7 -15   8    0.16    0.13 
   7 -16   8   -0.07    0.13 
   7 -17   8    0.00    0.15 
   7 -18   8   -0.01    0.16 
  -6 -18  -8    0.12    0.16 
  -6 -17  -8   -0.11    0.12 
  -6 -16  -8    0.09    0.13 
  -6 -15  -8   -0.08    0.11 
  -6 -14  -8    0.15    0.12 
  -6 -13  -8    0.01    0.10 
  -6 -12  -8   -0.01    0.09 
  -6 -11  -8    0.02    0.09 
   6  10   8    2.13    0.16 
  -6 -10  -8    2.70    0.20 
   6   9   8    0.91    0.10 
  -6  -9  -8    0.85    0.13 
  -6  -9  -8    0.80    0.08 
   6   8   8    0.08    0.06 
  -6  -8  -8    0.05    0.08 
  -6  -8  -8    0.04    0.04 
   6   7   8    0.31    0.06 
  -6  -7  -8    0.73    0.07 
  -6  -7  -8    0.72    0.11 
  -6  -6  -8    0.82    0.07 
  -6  -6  -8    0.98    0.12 
   6   5   8    1.62    0.11 
  -6  -5  -8    1.63    0.09 
  -6  -5  -8    1.59    0.14 
   6   4   8    2.42    0.14 
  -6  -4  -8    2.18    0.15 
  -6  -4  -8    2.44    0.12 
   6   3   8    2.99    0.17 
  -6  -3  -8    3.33    0.19 
  -6  -3  -8    3.25    0.15 
   6   2   8    0.33    0.06 
  -6  -2  -8    0.29    0.07 
  -6  -2  -8    0.32    0.05 
   6   1   8    0.34    0.06 
  -6  -1  -8    0.48    0.05 
  -6  -1  -8    0.30    0.06 
   6   0   8    0.15    0.05 
  -6   0  -8    0.24    0.06 
  -6   0  -8    0.12    0.04 
   6  -1   8    0.45    0.07 
  -6   1  -8    0.29    0.06 
   6  -2   8    0.31    0.07 
  -6   2  -8    0.36    0.07 
   6  -3   8    2.85    0.17 
   6  -4   8    2.93    0.18 
   6  -5   8    1.61    0.14 
   6  -6   8    0.92    0.12 
   6  -7   8    0.63    0.11 
   6  -8   8   -0.01    0.07 
   6  -9   8    0.87    0.14 
   6 -10   8    2.69    0.21 
   6 -11   8    0.09    0.09 
   6 -12   8    0.20    0.11 
   6 -13   8    0.05    0.10 
   6 -14   8    0.15    0.12 
   6 -15   8    0.03    0.11 
   6 -16   8    0.07    0.13 
   6 -17   8    0.05    0.14 
   6 -18   8    0.06    0.16 
  -5 -18  -8   -0.10    0.15 
  -5 -17  -8    0.18    0.16 
  -5 -16  -8    0.30    0.15 
  -5 -15  -8    0.48    0.14 
  -5 -14  -8    0.66    0.16 
  -5 -13  -8    1.09    0.17 
  -5 -12  -8    0.13    0.10 
  -5 -11  -8    0.06    0.08 
  -5 -11  -8    0.03    0.05 
  -5 -10  -8    0.28    0.10 
  -5 -10  -8    0.17    0.06 
   5   9   8    0.04    0.05 
  -5  -9  -8    0.07    0.08 
  -5  -9  -8    0.04    0.05 
   5   8   8    0.83    0.09 
  -5  -8  -8    0.79    0.12 
  -5  -8  -8    0.87    0.08 
   5   7   8    2.03    0.13 
  -5  -7  -8    1.83    0.16 
  -5  -7  -8    2.22    0.12 
   5   6   8    0.64    0.07 
  -5  -6  -8    0.56    0.09 
  -5  -6  -8    0.63    0.06 
  -5  -5  -8    0.29    0.07 
  -5  -5  -8    0.37    0.05 
   5   4   8    0.00    0.03 
  -5  -4  -8    0.00    0.04 
  -5  -4  -8    0.11    0.03 
   5   3   8    5.47    0.24 
  -5  -3  -8    4.98    0.26 
  -5  -3  -8    5.49    0.22 
   5   2   8    2.05    0.12 
  -5  -2  -8    1.95    0.11 
  -5  -2  -8    2.23    0.14 
   5   1   8    7.17    0.30 
  -5  -1  -8    6.40    0.27 
  -5  -1  -8    6.58    0.31 
   5   0   8    1.74    0.11 
  -5   0  -8    1.55    0.10 
  -5   0  -8    1.74    0.12 
   5  -1   8    6.70    0.30 
  -5   1  -8    6.71    0.30 
  -5   1  -8    6.45    0.28 
   5  -2   8    2.09    0.14 
  -5   2  -8    2.13    0.14 
  -5   2  -8    2.06    0.13 
   5  -3   8    5.49    0.27 
   5  -4   8    0.11    0.05 
   5  -5   8    0.25    0.07 
   5  -6   8    0.51    0.09 
   5  -7   8    1.84    0.15 
   5  -8   8    0.68    0.11 
   5  -9   8    0.02    0.07 
   5 -10   8    0.14    0.09 
   5 -11   8    0.02    0.08 
   5 -12   8    0.13    0.09 
   5 -13   8    1.23    0.18 
   5 -14   8    0.81    0.16 
   5 -15   8    0.21    0.13 
   5 -16   8    0.07    0.13 
   5 -17   8    0.19    0.15 
   5 -18   8   -0.06    0.15 
  -4 -18  -8   -0.09    0.14 
  -4 -17  -8   -0.12    0.13 
  -4 -16  -8    0.00    0.12 
  -4 -15  -8    0.10    0.12 
  -4 -14  -8   -0.02    0.10 
  -4 -13  -8    0.27    0.08 
  -4 -13  -8    0.24    0.12 
  -4 -12  -8    0.31    0.08 
  -4 -12  -8    0.38    0.12 
  -4 -11  -8    0.27    0.10 
  -4 -11  -8    0.19    0.06 
  -4 -10  -8    5.20    0.25 
  -4 -10  -8    6.00    0.32 
   4   9   8    0.41    0.07 
  -4  -9  -8    0.36    0.10 
  -4  -9  -8    0.30    0.06 
   4   8   8    0.77    0.08 
  -4  -8  -8    1.03    0.13 
  -4  -8  -8    0.68    0.08 
   4   7   8    2.07    0.12 
  -4  -7  -8    1.76    0.15 
  -4  -7  -8    1.99    0.12 
   4   6   8    0.59    0.06 
  -4  -6  -8    0.47    0.06 
  -4  -6  -8    0.57    0.09 
   4   5   8    0.80    0.07 
  -4  -5  -8    0.54    0.06 
  -4  -5  -8    0.52    0.08 
   4   4   8    7.88    0.31 
  -4  -4  -8    7.28    0.30 
  -4  -4  -8    7.46    0.34 
  -4  -3  -8    0.99    0.07 
  -4  -3  -8    1.21    0.10 
   4   2   8    1.97    0.11 
  -4  -2  -8    1.86    0.12 
  -4  -2  -8    1.88    0.11 
   4   1   8    1.15    0.09 
  -4  -1  -8    1.29    0.08 
  -4  -1  -8    1.25    0.10 
   4   0   8    2.53    0.15 
  -4   0  -8    2.89    0.15 
  -4   0  -8    2.98    0.16 
   4  -1   8    1.38    0.10 
  -4   1  -8    1.30    0.10 
  -4   1  -8    1.25    0.10 
   4  -2   8    1.84    0.12 
  -4   2  -8    1.57    0.11 
  -4   2  -8    1.74    0.12 
   4  -3   8    0.97    0.10 
  -4   3  -8    1.37    0.11 
   4  -4   8    7.49    0.34 
   4  -5   8    0.47    0.08 
   4  -6   8    0.44    0.08 
   4  -7   8    2.11    0.16 
   4  -8   8    0.61    0.11 
   4  -9   8    0.25    0.08 
   4 -10   8    5.43    0.30 
   4 -11   8    0.12    0.09 
   4 -12   8    0.48    0.12 
   4 -13   8    0.13    0.10 
   4 -14   8    0.15    0.11 
   4 -15   8    0.01    0.11 
   4 -16   8   -0.09    0.11 
   4 -17   8   -0.04    0.13 
   4 -18   8    0.02    0.16 
  -3 -18  -8    0.11    0.15 
  -3 -17  -8    0.64    0.19 
  -3 -16  -8    0.04    0.12 
  -3 -15  -8    0.41    0.11 
  -3 -15  -8    0.31    0.13 
  -3 -14  -8    0.73    0.16 
  -3 -14  -8    0.58    0.11 
  -3 -13  -8    0.19    0.08 
  -3 -13  -8    0.25    0.11 
  -3 -12  -8    0.05    0.09 
  -3 -12  -8    0.02    0.06 
  -3 -11  -8    3.08    0.23 
  -3 -11  -8    3.30    0.19 
  -3 -10  -8    0.63    0.12 
  -3 -10  -8    0.33    0.07 
   3   9   8    1.66    0.11 
  -3  -9  -8    1.86    0.17 
  -3  -9  -8    1.66    0.12 
   3   8   8    0.61    0.06 
  -3  -8  -8    0.53    0.07 
  -3  -8  -8    0.48    0.10 
   3   7   8    2.65    0.13 
  -3  -7  -8    2.15    0.16 
  -3  -7  -8    2.43    0.14 
   3   6   8    0.31    0.04 
  -3  -6  -8    0.26    0.05 
  -3  -6  -8    0.37    0.07 
   3   5   8    0.03    0.03 
  -3  -5  -8    0.00    0.03 
  -3  -5  -8    0.03    0.04 
   3   4   8    5.58    0.24 
  -3  -4  -8    6.01    0.28 
  -3  -4  -8    5.67    0.24 
   3   3   8    1.18    0.08 
  -3  -3  -8    1.25    0.08 
  -3  -3  -8    1.32    0.10 
  -3  -2  -8    8.56    0.37 
  -3  -2  -8    8.46    0.33 
   3   1   8    2.39    0.13 
  -3  -1  -8    2.31    0.14 
  -3  -1  -8    2.52    0.13 
   3   0   8   20.29    0.75 
  -3   0  -8   19.45    0.76 
  -3   0  -8   19.07    0.73 
   3  -1   8    2.26    0.13 
  -3   1  -8    2.21    0.13 
  -3   1  -8    2.22    0.13 
   3  -2   8    8.78    0.37 
  -3   2  -8    8.44    0.36 
  -3   2  -8    8.96    0.37 
   3  -3   8    1.18    0.11 
  -3   3  -8    1.56    0.11 
   3  -4   8    5.07    0.26 
  -3   4  -8    5.53    0.26 
   3  -5   8    0.05    0.05 
   3  -6   8    0.24    0.07 
   3  -7   8    2.58    0.17 
   3  -8   8    0.39    0.09 
   3  -9   8    1.55    0.16 
   3 -10   8    0.55    0.12 
   3 -11   8    3.03    0.23 
   3 -12   8    0.05    0.09 
   3 -13   8    0.22    0.11 
   3 -14   8    0.59    0.15 
   3 -15   8    0.37    0.14 
   3 -16   8   -0.09    0.12 
   3 -17   8    0.58    0.17 
   3 -18   8   -0.06    0.14 
  -2 -19  -8   -0.07    0.14 
  -2 -17  -8    0.11    0.10 
  -2 -16  -8    0.01    0.09 
  -2 -15  -8    0.08    0.09 
  -2 -14  -8    0.15    0.08 
  -2 -13  -8    0.10    0.08 
  -2 -12  -8    0.10    0.07 
  -2 -11  -8    0.21    0.07 
  -2 -10  -8    0.11    0.05 
  -2  -9  -8    0.50    0.08 
   2   8   8    1.79    0.10 
  -2  -8  -8    2.01    0.13 
   2   7   8    1.85    0.10 
  -2  -7  -8    1.88    0.12 
  -2  -7  -8    1.57    0.14 
   2   6   8    0.44    0.04 
  -2  -6  -8    0.44    0.08 
  -2  -6  -8    0.49    0.06 
   2   5   8    1.05    0.07 
  -2  -5  -8    1.10    0.09 
  -2  -5  -8    1.10    0.11 
   2   4   8   21.13    0.77 
  -2  -4  -8   21.09    0.82 
  -2  -4  -8   20.06    0.76 
   2   3   8    2.19    0.11 
  -2  -3  -8    2.33    0.12 
  -2  -3  -8    2.24    0.14 
   2   2   8    0.72    0.06 
  -2  -2  -8    0.62    0.06 
  -2  -2  -8    0.74    0.08 
  -2  -1  -8    2.62    0.13 
  -2  -1  -8    2.64    0.14 
   2   0   8    5.89    0.26 
  -2   0  -8    6.04    0.26 
  -2   0  -8    5.86    0.25 
   2  -1   8    2.52    0.14 
  -2   1  -8    2.26    0.14 
  -2   1  -8    2.74    0.14 
   2  -2   8    0.58    0.07 
  -2   2  -8    0.61    0.07 
  -2   2  -8    0.61    0.06 
   2  -3   8    2.29    0.14 
  -2   3  -8    2.27    0.14 
   2  -4   8   20.12    0.79 
  -2   4  -8   20.17    0.77 
   2  -5   8    1.09    0.11 
   2  -6   8    0.35    0.07 
   2  -7   8    1.70    0.14 
   2  -8   8    1.50    0.14 
   2  -9   8    0.42    0.10 
   2 -10   8    0.10    0.08 
   2 -11   8    0.23    0.10 
   2 -12   8    0.04    0.09 
   2 -13   8    0.20    0.11 
   2 -14   8   -0.04    0.09 
   2 -15   8    0.13    0.12 
   2 -16   8    0.02    0.12 
   2 -17   8    0.01    0.14 
   2 -18   8   -0.01    0.15 
   2 -19   8   -0.10    0.15 
  -1 -18  -8    0.01    0.11 
  -1 -17  -8    1.76    0.19 
  -1 -16  -8    0.05    0.09 
  -1 -15  -8    0.09    0.08 
  -1 -14  -8    0.01    0.08 
  -1 -13  -8   -0.01    0.07 
  -1 -12  -8    0.08    0.07 
  -1 -11  -8    7.39    0.34 
  -1 -10  -8    0.33    0.07 
  -1  -9  -8    0.95    0.10 
  -1  -8  -8    0.06    0.04 
  -1  -7  -8    0.09    0.05 
   1   6   8    1.05    0.06 
  -1  -6  -8    0.86    0.08 
   1   5   8    9.06    0.33 
  -1  -5  -8    8.32    0.35 
  -1  -5  -8    8.23    0.38 
   1   4   8    5.66    0.22 
  -1  -4  -8    5.28    0.26 
  -1  -4  -8    5.30    0.24 
   1   3   8    0.77    0.05 
  -1  -3  -8    0.74    0.08 
  -1  -3  -8    0.74    0.07 
   1   2   8    5.11    0.21 
  -1  -2  -8    4.96    0.22 
  -1  -2  -8    5.25    0.24 
  -1  -1  -8    9.03    0.37 
  -1  -1  -8    8.83    0.35 
   1   0   8    0.34    0.05 
  -1   0  -8    0.34    0.05 
  -1   0  -8    0.44    0.05 
   1  -1   8    9.38    0.38 
  -1   1  -8    9.09    0.37 
   1  -2   8    4.89    0.23 
  -1   2  -8    5.12    0.23 
  -1   2  -8    5.17    0.22 
   1  -3   8    0.88    0.09 
  -1   3  -8    0.90    0.09 
   1  -4   8    5.24    0.26 
  -1   4  -8    5.25    0.25 
   1  -5   8    8.92    0.39 
  -1   5  -8    8.29    0.37 
   1  -6   8    0.99    0.11 
   1  -7   8    0.04    0.05 
   1  -8   8    0.03    0.05 
   1  -9   8    1.26    0.14 
   1 -10   8    0.44    0.11 
   1 -11   8    7.35    0.39 
   1 -12   8    0.28    0.10 
   1 -13   8    0.11    0.09 
   1 -14   8   -0.02    0.09 
   1 -15   8    0.03    0.11 
   1 -16   8   -0.18    0.10 
   1 -17   8    1.92    0.25 
   1 -18   8    0.09    0.15 
   1 -19   8    0.16    0.17 
   0 -19  -8   -0.03    0.13 
   0 -18  -8   -0.09    0.11 
   0 -17  -8   -0.01    0.10 
   0 -16  -8    0.00    0.09 
   0 -15  -8    0.08    0.09 
   0 -14  -8    0.32    0.10 
   0 -13  -8   -0.02    0.07 
   0 -12  -8    1.28    0.13 
   0 -11  -8    0.03    0.06 
   0 -10  -8    1.16    0.12 
   0  -9  -8   -0.03    0.04 
   0  -8  -8   13.32    0.53 
   0  -7  -8    0.03    0.04 
   0  -6  -8   20.54    0.77 
   0  -5  -8    0.17    0.05 
   0   4   8   41.51    1.48 
   0  -4  -8   40.45    1.47 
   0   3   8   -0.02    0.02 
   0  -3  -8    0.06    0.04 
   0  -3  -8   -0.08    0.03 
   0   2   8   26.64    0.97 
   0  -2  -8   26.41    1.00 
   0  -2  -8   25.98    0.96 
   0   1   8    0.04    0.03 
   0  -1  -8    0.04    0.03 
   0  -1  -8    0.00    0.03 
   0   0   8   59.02    2.25 
   0   0  -8   65.37    2.21 
   0  -1   8    0.02    0.03 
   0   1  -8    0.03    0.03 
   0   1  -8   -0.04    0.03 
   0  -2   8   25.73    0.99 
   0   2  -8   26.32    0.97 
   0   2  -8   26.38    0.98 
   0  -3   8   -0.05    0.03 
   0   3  -8    0.00    0.04 
   0  -4   8   39.81    1.50 
   0   4  -8   40.30    1.46 
   0  -5   8    0.15    0.06 
   0   5  -8    0.18    0.06 
   0  -6   8   19.72    0.79 
   0   6  -8   19.68    0.77 
   0  -7   8   -0.07    0.03 
   0  -8   8   13.06    0.57 
   0  -9   8   -0.02    0.07 
   0 -10   8    0.89    0.14 
   0 -11   8   -0.01    0.08 
   0 -12   8    1.07    0.16 
   0 -13   8   -0.14    0.08 
   0 -14   8    0.09    0.11 
   0 -15   8    0.01    0.11 
   0 -16   8    0.00    0.11 
   0 -17   8    0.08    0.14 
   0 -18   8   -0.05    0.14 
   0 -19   8   -0.02    0.16 
   1 -19  -8    0.06    0.13 
   1 -18  -8    0.08    0.12 
   1 -17  -8    1.92    0.20 
   1 -16  -8   -0.01    0.08 
   1 -15  -8    0.00    0.08 
   1 -14  -8    0.04    0.08 
   1 -13  -8    0.05    0.07 
   1 -12  -8    0.12    0.07 
   1 -11  -8    7.09    0.34 
   1 -10  -8    0.52    0.09 
   1  -9  -8    0.80    0.10 
   1  -8  -8    0.06    0.05 
   1  -7  -8    0.01    0.04 
   1  -6  -8    1.07    0.10 
   1  -5  -8    7.36    0.31 
   1  -4  -8    5.55    0.25 
  -1   3   8    0.66    0.05 
   1  -3  -8    0.72    0.07 
  -1   2   8    5.53    0.22 
   1  -2  -8    5.17    0.23 
  -1   1   8    9.84    0.38 
   1  -1  -8    9.17    0.38 
  -1   0   8    0.13    0.03 
   1   0  -8    0.23    0.05 
   1   0  -8    0.21    0.03 
  -1  -1   8    9.56    0.39 
   1   1  -8    9.43    0.38 
   1   1  -8    9.28    0.37 
  -1  -2   8    5.15    0.25 
   1   2  -8    5.67    0.25 
   1   2  -8    5.68    0.22 
  -1  -3   8    0.69    0.08 
   1   3  -8    0.65    0.08 
  -1  -4   8    4.88    0.25 
   1   4  -8    5.35    0.25 
  -1  -5   8    7.24    0.34 
   1   5  -8    7.52    0.33 
  -1  -6   8    0.75    0.10 
   1   6  -8    0.75    0.09 
  -1  -7   8    0.02    0.04 
  -1  -8   8    0.02    0.06 
  -1  -9   8    0.89    0.13 
  -1 -10   8    0.44    0.10 
  -1 -11   8    7.27    0.39 
  -1 -12   8    0.13    0.10 
  -1 -13   8    0.03    0.10 
  -1 -14   8    0.12    0.11 
  -1 -15   8    0.05    0.11 
  -1 -16   8   -0.01    0.12 
  -1 -17   8    1.75    0.24 
  -1 -18   8   -0.06    0.15 
  -1 -19   8    0.29    0.18 
   2 -19  -8    0.02    0.14 
   2 -18  -8    0.09    0.12 
   2 -17  -8    0.06    0.10 
   2 -16  -8    0.03    0.09 
   2 -15  -8    0.18    0.09 
   2 -14  -8    0.06    0.08 
   2 -13  -8    0.17    0.09 
   2 -12  -8    0.06    0.07 
   2 -11  -8    0.29    0.09 
   2 -10  -8    0.10    0.06 
   2  -9  -8    0.40    0.08 
   2  -8  -8    1.67    0.13 
   2  -7  -8    1.56    0.12 
   2  -6  -8    0.41    0.07 
   2  -5  -8    0.88    0.09 
   2  -4  -8   20.78    0.78 
  -2   3   8    2.35    0.11 
   2  -3  -8    2.64    0.14 
  -2   2   8    0.49    0.05 
   2  -2  -8    0.48    0.06 
   2  -1  -8    2.68    0.14 
   2  -1  -8    2.74    0.14 
   2   0  -8    6.86    0.26 
   2   0  -8    5.79    0.27 
   2   0  -8    6.09    0.27 
   2   1  -8    2.72    0.15 
   2   1  -8    2.82    0.12 
   2   1  -8    2.58    0.14 
   2   2  -8    0.54    0.04 
   2   2  -8    0.46    0.06 
   2   2  -8    0.45    0.07 
   2   3  -8    2.20    0.14 
   2   3  -8    2.50    0.15 
   2   4  -8   19.81    0.78 
   2   4  -8   19.57    0.75 
   2   5  -8    1.11    0.11 
   2   5  -8    1.12    0.12 
   2   6  -8    0.38    0.07 
   2   6  -8    0.55    0.09 
   2   7  -8    1.67    0.16 
   2   7  -8    1.67    0.14 
   2   8  -8    1.75    0.17 
  -2  -9   8    0.37    0.09 
  -2 -10   8   -0.08    0.06 
  -2 -11   8    0.14    0.10 
  -2 -12   8    0.09    0.09 
  -2 -13   8    0.23    0.11 
  -2 -14   8    0.10    0.11 
  -2 -15   8    0.21    0.13 
  -2 -16   8   -0.11    0.11 
  -2 -17   8    0.00    0.14 
  -2 -18   8    0.08    0.14 
  -2 -19   8    0.12    0.18 
   3 -19  -8    0.08    0.14 
   3 -18  -8    0.08    0.12 
   3 -17  -8    0.71    0.15 
   3 -16  -8   -0.01    0.09 
   3 -15  -8    0.38    0.12 
   3 -14  -8    0.48    0.11 
   3 -13  -8    0.06    0.08 
   3 -12  -8    0.11    0.08 
   3 -11  -8    2.91    0.20 
   3 -10  -8    0.32    0.09 
   3  -9  -8    1.40    0.13 
   3  -8  -8    0.59    0.09 
   3  -7  -8    2.51    0.15 
   3  -6  -8    0.22    0.06 
   3  -5  -8   -0.01    0.04 
   3  -4  -8    5.75    0.22 
   3  -4  -8    5.82    0.26 
   3  -3  -8    1.13    0.07 
   3  -3  -8    1.25    0.10 
   3  -2  -8    8.95    0.37 
   3  -2  -8    9.17    0.36 
   3  -1  -8    2.59    0.14 
   3  -1  -8    2.37    0.13 
   3   0  -8   18.02    0.70 
   3   0  -8   18.29    0.68 
   3   1  -8    2.48    0.14 
   3   1  -8    2.51    0.11 
   3   1  -8    2.39    0.13 
   3   2  -8    8.48    0.35 
   3   2  -8    8.44    0.37 
   3   3  -8    1.29    0.11 
   3   3  -8    1.18    0.10 
   3   4  -8    5.90    0.29 
   3   4  -8    6.23    0.28 
   3   5  -8   -0.02    0.04 
   3   5  -8    0.01    0.04 
   3   6  -8    0.36    0.08 
   3   6  -8    0.35    0.07 
   3   7  -8    2.55    0.18 
   3   7  -8    2.35    0.16 
   3   8  -8    0.69    0.11 
   3   9  -8    1.53    0.17 
   3  10  -8    0.25    0.10 
   3  11  -8    2.55    0.23 
  -3 -12   8    0.06    0.08 
  -3 -13   8    0.04    0.10 
  -3 -14   8    0.44    0.14 
  -3 -15   8    0.29    0.14 
  -3 -16   8    0.10    0.12 
  -3 -17   8    0.73    0.19 
  -3 -18   8    0.11    0.15 
   4 -18  -8    0.03    0.13 
   4 -17  -8    0.02    0.11 
   4 -16  -8    0.04    0.11 
   4 -15  -8    0.15    0.10 
   4 -14  -8    0.05    0.09 
   4 -13  -8    0.10    0.09 
   4 -12  -8    0.40    0.10 
   4 -11  -8    0.17    0.08 
   4 -10  -8    5.50    0.29 
   4  -9  -8    0.40    0.09 
   4  -8  -8    0.66    0.10 
   4  -7  -8    1.98    0.14 
   4  -6  -8    0.64    0.09 
   4  -5  -8    0.55    0.04 
   4  -5  -8    0.77    0.09 
   4  -4  -8    7.38    0.32 
   4  -4  -8    7.21    0.29 
   4  -3  -8    1.05    0.09 
   4  -3  -8    1.16    0.08 
   4  -2  -8    1.66    0.11 
   4  -2  -8    1.87    0.11 
   4  -1  -8    1.23    0.09 
   4  -1  -8    1.38    0.09 
   4   0  -8    3.01    0.16 
   4   0  -8    2.94    0.15 
   4   1  -8    1.14    0.09 
   4   1  -8    1.31    0.11 
   4   2  -8    1.76    0.13 
   4   2  -8    1.80    0.12 
   4   3  -8    1.11    0.11 
   4   3  -8    1.06    0.10 
   4   4  -8    6.91    0.31 
   4   4  -8    6.89    0.33 
   4   5  -8    0.72    0.09 
   4   5  -8    0.59    0.09 
   4   6  -8    0.50    0.08 
   4   6  -8    0.57    0.10 
   4   7  -8    1.84    0.17 
   4   7  -8    1.86    0.14 
   4   8  -8    0.58    0.12 
   4   9  -8    0.36    0.10 
   4  10  -8    5.41    0.33 
   4  11  -8    0.24    0.10 
   4  12  -8    0.58    0.14 
   4  13  -8    0.08    0.11 
  -4 -14   8    0.02    0.10 
  -4 -15   8    0.05    0.11 
  -4 -16   8    0.06    0.13 
  -4 -17   8    0.08    0.14 
  -4 -18   8    0.09    0.16 
   5 -18  -8    0.08    0.13 
   5 -17  -8    0.06    0.12 
   5 -16  -8    0.11    0.11 
   5 -15  -8    0.26    0.12 
   5 -14  -8    0.82    0.14 
   5 -13  -8    1.21    0.15 
   5 -12  -8    0.01    0.08 
   5 -11  -8   -0.03    0.07 
   5 -10  -8    0.18    0.08 
   5  -9  -8    0.12    0.08 
   5  -8  -8    0.73    0.11 
   5  -7  -8    2.13    0.15 
   5  -6  -8    0.64    0.05 
   5  -6  -8    0.63    0.09 
   5  -5  -8    0.26    0.06 
   5  -5  -8    0.31    0.04 
   5  -4  -8    0.03    0.04 
   5  -4  -8    0.11    0.03 
   5  -3  -8    6.00    0.25 
   5  -3  -8    5.81    0.27 
   5  -2  -8    1.90    0.12 
   5  -2  -8    2.19    0.13 
   5  -1  -8    6.76    0.29 
   5  -1  -8    6.92    0.30 
   5   0  -8    1.82    0.12 
   5   0  -8    1.68    0.11 
   5   1  -8    6.41    0.31 
   5   1  -8    7.10    0.29 
   5   2  -8    2.10    0.14 
   5   2  -8    2.21    0.13 
   5   3  -8    5.94    0.27 
   5   3  -8    5.88    0.29 
   5   4  -8    0.11    0.06 
   5   4  -8    0.03    0.04 
   5   5  -8    0.30    0.06 
   5   5  -8    0.18    0.06 
   5   6  -8    0.67    0.11 
   5   6  -8    0.59    0.09 
   5   7  -8    2.62    0.17 
   5   7  -8    2.20    0.18 
   5   8  -8    0.71    0.13 
   5   8  -8    0.60    0.10 
   5   9  -8    0.02    0.08 
   5  10  -8    0.25    0.11 
   5  11  -8   -0.02    0.08 
   5  12  -8    0.15    0.11 
   5  13  -8    1.47    0.21 
   5  14  -8    0.75    0.17 
  -5 -15   8    0.40    0.14 
  -5 -16   8   -0.02    0.12 
  -5 -17   8   -0.01    0.14 
  -5 -18   8    0.10    0.15 
   6 -18  -8   -0.03    0.13 
   6 -17  -8    0.18    0.13 
   6 -16  -8    0.08    0.12 
   6 -15  -8   -0.04    0.09 
   6 -14  -8    0.19    0.10 
   6 -13  -8    0.16    0.10 
   6 -12  -8    0.10    0.09 
   6 -11  -8    0.03    0.08 
   6 -10  -8    2.64    0.19 
   6  -9  -8    0.72    0.11 
   6  -8  -8    0.03    0.07 
   6  -7  -8    0.58    0.10 
   6  -6  -8    0.96    0.07 
   6  -6  -8    1.06    0.11 
   6  -5  -8    1.53    0.09 
   6  -5  -8    1.55    0.12 
   6  -4  -8    2.23    0.12 
   6  -4  -8    2.23    0.14 
   6  -3  -8    3.07    0.17 
   6  -3  -8    3.15    0.16 
   6  -2  -8    0.28    0.06 
   6  -2  -8    0.43    0.07 
   6  -1  -8    0.34    0.06 
   6  -1  -8    0.38    0.06 
   6   0  -8    0.20    0.06 
   6   0  -8    0.21    0.06 
   6   1  -8    0.43    0.06 
   6   1  -8    0.36    0.07 
   6   2  -8    0.38    0.08 
   6   2  -8    0.35    0.06 
   6   3  -8    3.42    0.18 
   6   3  -8    3.36    0.20 
   6   4  -8    1.94    0.15 
   6   4  -8    2.02    0.13 
   6   5  -8    1.57    0.15 
   6   5  -8    1.61    0.12 
   6   6  -8    1.11    0.11 
   6   6  -8    1.03    0.14 
   6   7  -8    0.69    0.12 
   6   7  -8    0.94    0.11 
   6   8  -8    0.06    0.06 
   6   8  -8    0.04    0.08 
   6   9  -8    0.73    0.13 
   6  10  -8    1.93    0.21 
   6  11  -8    0.03    0.10 
   6  12  -8    0.11    0.10 
   6  13  -8    0.38    0.13 
   6  14  -8    0.10    0.12 
   6  15  -8    0.16    0.13 
   6  16  -8    0.17    0.14 
  -6 -17   8   -0.12    0.13 
  -6 -18   8    0.11    0.17 
   7 -18  -8   -0.02    0.13 
   7 -17  -8    0.00    0.13 
   7 -16  -8   -0.03    0.11 
   7 -15  -8    0.26    0.12 
   7 -14  -8    0.74    0.15 
   7 -13  -8    0.99    0.15 
   7 -12  -8    0.89    0.14 
   7 -11  -8    0.63    0.12 
   7 -10  -8    0.07    0.09 
   7  -9  -8    0.24    0.09 
   7  -8  -8    0.12    0.08 
   7  -7  -8    7.17    0.34 
   7  -6  -8    0.10    0.06 
   7  -6  -8    0.15    0.05 
   7  -5  -8    0.09    0.04 
   7  -5  -8    0.12    0.06 
   7  -4  -8    5.66    0.26 
   7  -4  -8    5.30    0.25 
   7  -3  -8    7.79    0.33 
   7  -3  -8    6.91    0.32 
   7  -2  -8    2.12    0.14 
   7  -2  -8    2.07    0.13 
   7  -1  -8    1.79    0.13 
   7  -1  -8    1.89    0.12 
   7   0  -8    3.19    0.17 
   7   0  -8    2.84    0.17 
   7   1  -8    1.86    0.12 
   7   1  -8    1.76    0.13 
   7   2  -8    1.93    0.13 
   7   2  -8    2.09    0.15 
   7   3  -8    7.67    0.33 
   7   3  -8    7.28    0.36 
   7   4  -8    5.13    0.29 
   7   4  -8    5.47    0.26 
   7   5  -8    0.07    0.05 
   7   5  -8    0.04    0.06 
   7   6  -8    0.23    0.08 
   7   6  -8    0.16    0.06 
   7   7  -8    6.96    0.37 
   7   7  -8    7.13    0.33 
   7   8  -8    0.07    0.06 
   7   8  -8    0.13    0.09 
   7   9  -8    0.07    0.09 
   7  10  -8    0.06    0.08 
   7  11  -8    0.63    0.15 
   7  12  -8    0.90    0.17 
   7  13  -8    0.87    0.19 
   7  14  -8    0.96    0.19 
   7  15  -8    0.50    0.17 
   7  16  -8    0.01    0.14 
   7  17  -8    0.06    0.14 
   8 -17  -8    0.02    0.13 
   8 -16  -8   -0.10    0.11 
   8 -15  -8    0.06    0.11 
   8 -14  -8    0.45    0.14 
   8 -13  -8    0.26    0.12 
   8 -12  -8    0.22    0.10 
   8 -11  -8    0.61    0.13 
   8 -10  -8    0.79    0.13 
   8  -9  -8    0.62    0.11 
   8  -8  -8    0.71    0.12 
   8  -7  -8    1.02    0.12 
   8  -6  -8    4.04    0.23 
   8  -6  -8    4.28    0.21 
   8  -5  -8    2.72    0.17 
   8  -5  -8    2.42    0.15 
   8  -4  -8    0.98    0.11 
   8  -4  -8    1.07    0.10 
   8  -3  -8    0.09    0.06 
   8  -3  -8    0.12    0.05 
   8  -2  -8    0.59    0.09 
   8  -2  -8    0.65    0.08 
   8  -1  -8    0.50    0.08 
   8  -1  -8    0.58    0.09 
   8   0  -8    2.58    0.17 
   8   0  -8    2.79    0.16 
   8   1  -8    0.57    0.08 
   8   1  -8    0.41    0.08 
   8   2  -8    0.71    0.08 
   8   2  -8    0.75    0.10 
   8   3  -8    0.14    0.07 
   8   3  -8    0.16    0.05 
   8   4  -8    1.02    0.13 
   8   4  -8    0.96    0.10 
   8   5  -8    2.07    0.15 
   8   5  -8    2.74    0.20 
   8   6  -8    4.33    0.27 
   8   6  -8    4.21    0.23 
   8   7  -8    1.36    0.16 
   8   7  -8    1.41    0.13 
   8   8  -8    0.85    0.11 
   8   8  -8    0.44    0.12 
   8   9  -8    0.97    0.16 
   8  10  -8    0.93    0.17 
   8  11  -8    0.90    0.16 
   8  12  -8    0.13    0.10 
   8  13  -8    0.48    0.15 
   8  14  -8    0.47    0.16 
   8  15  -8    0.10    0.12 
   8  16  -8    0.03    0.14 
   8  17  -8    0.07    0.14 
   9 -17  -8    0.26    0.15 
   9 -16  -8    0.01    0.13 
   9 -15  -8    0.35    0.14 
   9 -14  -8    1.49    0.19 
   9 -13  -8   -0.13    0.08 
   9 -12  -8   -0.15    0.08 
   9 -11  -8    0.69    0.13 
   9 -10  -8    0.07    0.08 
   9  -9  -8   -0.06    0.07 
   9  -8  -8    0.06    0.07 
   9  -7  -8    1.48    0.15 
   9  -6  -8    0.90    0.12 
   9  -6  -8    1.08    0.10 
   9  -5  -8    0.02    0.06 
   9  -5  -8    0.00    0.07 
   9  -4  -8    3.86    0.22 
   9  -4  -8    3.89    0.21 
   9  -3  -8    0.18    0.06 
   9  -3  -8    0.06    0.06 
   9  -2  -8    1.35    0.12 
   9  -2  -8    1.37    0.12 
   9  -1  -8    0.00    0.05 
   9  -1  -8   -0.03    0.04 
   9   0  -8    1.13    0.11 
   9   0  -8    1.22    0.13 
   9   1  -8    0.01    0.05 
   9   1  -8   -0.01    0.03 
   9   2  -8    1.17    0.13 
   9   2  -8    1.22    0.11 
   9   3  -8    0.11    0.07 
   9   3  -8    0.12    0.05 
   9   4  -8    3.67    0.24 
   9   4  -8    3.61    0.20 
   9   5  -8   -0.04    0.05 
   9   5  -8   -0.03    0.07 
   9   6  -8    1.06    0.15 
   9   6  -8    1.02    0.11 
   9   7  -8    1.58    0.19 
   9   7  -8    1.88    0.15 
   9   8  -8    0.19    0.10 
   9   8  -8    0.12    0.07 
   9   9  -8   -0.06    0.08 
   9  10  -8    0.00    0.09 
   9  11  -8    0.77    0.16 
   9  12  -8    0.09    0.11 
   9  13  -8    0.14    0.12 
   9  14  -8    1.38    0.22 
   9  15  -8    0.59    0.17 
   9  16  -8    0.01    0.14 
   9  17  -8    0.35    0.16 
  10 -16  -8   -0.04    0.09 
  10 -15  -8   -0.09    0.09 
  10 -14  -8    0.31    0.12 
  10 -13  -8    0.07    0.10 
  10 -12  -8    0.23    0.11 
  10 -11  -8    0.45    0.12 
  10 -10  -8    0.09    0.09 
  10  -9  -8    0.41    0.11 
  10  -8  -8   -0.05    0.08 
  10  -7  -8    0.10    0.08 
  10  -6  -8    0.06    0.08 
  10  -6  -8   -0.01    0.06 
  10  -5  -8   -0.02    0.06 
  10  -5  -8   -0.01    0.07 
  10  -4  -8    0.05    0.06 
  10  -4  -8   -0.03    0.06 
  10  -3  -8    0.05    0.06 
  10  -3  -8   -0.04    0.07 
  10  -2  -8    0.05    0.06 
  10  -2  -8   -0.05    0.05 
  10  -1  -8    0.14    0.07 
  10  -1  -8    0.21    0.06 
  10   0  -8   -0.02    0.05 
  10   0  -8    0.05    0.05 
  10   1  -8    0.18    0.06 
  10   1  -8    0.31    0.08 
  10   2  -8    0.01    0.04 
  10   2  -8   -0.13    0.05 
  10   3  -8    0.06    0.05 
  10   3  -8    0.00    0.06 
  10   4  -8   -0.08    0.06 
  10   4  -8    0.06    0.05 
  10   5  -8    0.09    0.07 
  10   5  -8    0.11    0.06 
  10   6  -8    0.09    0.08 
  10   6  -8   -0.02    0.05 
  10   7  -8    0.15    0.09 
  10   7  -8    0.12    0.06 
  10   8  -8   -0.06    0.08 
  10   8  -8   -0.04    0.06 
  10   9  -8    0.36    0.12 
  10  10  -8    0.04    0.10 
  10  11  -8    0.23    0.12 
  10  12  -8    0.28    0.14 
  10  13  -8    0.15    0.13 
  10  14  -8    0.16    0.14 
  10  15  -8    0.02    0.14 
  10  16  -8    0.10    0.13 
  11 -16  -8    0.12    0.12 
  11 -15  -8    0.12    0.11 
  11 -14  -8    0.62    0.14 
  11 -13  -8   -0.02    0.10 
  11 -12  -8    0.01    0.09 
  11 -11  -8    0.99    0.15 
  11 -10  -8    0.07    0.09 
  11  -9  -8    0.29    0.10 
  11  -8  -8    0.85    0.13 
  11  -7  -8    1.40    0.16 
  11  -6  -8    0.00    0.06 
  11  -6  -8    0.15    0.09 
  11  -5  -8   -0.10    0.07 
  11  -5  -8   -0.04    0.06 
  11  -4  -8    0.21    0.09 
  11  -4  -8    0.25    0.08 
  11  -3  -8    0.99    0.12 
  11  -3  -8    1.00    0.12 
  11  -2  -8   -0.03    0.07 
  11  -2  -8    0.13    0.07 
  11  -1  -8    0.77    0.11 
  11  -1  -8    0.81    0.10 
  11   0  -8   -0.02    0.05 
  11   0  -8   -0.05    0.07 
  11   1  -8    0.82    0.13 
  11   1  -8    0.92    0.10 
  11   2  -8    0.06    0.05 
  11   2  -8    0.02    0.07 
  11   3  -8    1.05    0.11 
  11   3  -8    1.29    0.16 
  11   4  -8    0.34    0.11 
  11   4  -8    0.13    0.06 
  11   5  -8    0.06    0.08 
  11   5  -8    0.07    0.05 
  11   6  -8   -0.01    0.07 
  11   6  -8    0.11    0.06 
  11   7  -8    1.27    0.18 
  11   7  -8    1.39    0.13 
  11   8  -8    0.66    0.12 
  11   8  -8    0.73    0.15 
  11   9  -8    0.23    0.11 
  11  10  -8    0.04    0.10 
  11  11  -8    1.16    0.20 
  11  12  -8   -0.13    0.10 
  11  13  -8    0.05    0.12 
  11  14  -8    0.34    0.16 
  11  15  -8   -0.02    0.12 
  11  16  -8    0.17    0.14 
  12 -15  -8    0.28    0.12 
  12 -14  -8    0.16    0.12 
  12 -13  -8   -0.02    0.10 
  12 -12  -8    0.02    0.10 
  12 -11  -8   -0.11    0.09 
  12 -10  -8    0.09    0.10 
  12  -9  -8    0.11    0.10 
  12  -8  -8    0.08    0.09 
  12  -7  -8    0.21    0.09 
  12  -6  -8    1.11    0.14 
  12  -5  -8    0.35    0.09 
  12  -5  -8    0.25    0.10 
  12  -4  -8    0.44    0.10 
  12  -4  -8    0.30    0.10 
  12  -3  -8    0.04    0.07 
  12  -3  -8    0.04    0.08 
  12  -2  -8    0.08    0.07 
  12  -2  -8   -0.06    0.06 
  12  -1  -8    0.25    0.09 
  12  -1  -8    0.48    0.10 
  12   0  -8    0.65    0.12 
  12   0  -8    0.57    0.09 
  12   1  -8    0.44    0.11 
  12   1  -8    0.51    0.09 
  12   2  -8   -0.06    0.05 
  12   2  -8   -0.05    0.07 
  12   3  -8    0.06    0.09 
  12   3  -8    0.09    0.06 
  12   4  -8    0.41    0.12 
  12   4  -8    0.55    0.08 
  12   5  -8    0.11    0.10 
  12   5  -8    0.34    0.08 
  12   6  -8    1.38    0.19 
  12   7  -8    0.01    0.09 
  12   8  -8    0.15    0.11 
  12   9  -8    0.04    0.10 
  12  10  -8   -0.03    0.10 
  12  11  -8   -0.12    0.10 
  12  12  -8    0.14    0.13 
  12  13  -8    0.14    0.14 
  12  14  -8    0.21    0.15 
  12  15  -8    0.34    0.15 
  13 -14  -8    0.31    0.12 
  13 -13  -8    0.06    0.11 
  13 -12  -8    0.01    0.11 
  13 -11  -8    0.05    0.11 
  13 -10  -8    0.61    0.14 
  13  -9  -8    0.01    0.09 
  13  -8  -8    0.37    0.11 
  13  -7  -8    0.27    0.10 
  13  -6  -8    0.35    0.11 
  13  -5  -8    0.06    0.09 
  13  -5  -8   -0.01    0.08 
  13  -4  -8    1.65    0.16 
  13  -4  -8    1.32    0.16 
  13  -3  -8    1.37    0.16 
  13  -3  -8    0.99    0.13 
  13  -2  -8    0.05    0.08 
  13  -2  -8    0.10    0.09 
  13  -1  -8    0.35    0.11 
  13  -1  -8    0.68    0.11 
  13   0  -8    3.72    0.25 
  13   0  -8    3.83    0.22 
  13   1  -8    0.74    0.14 
  13   1  -8    0.42    0.09 
  13   2  -8    0.05    0.06 
  13   2  -8    0.10    0.09 
  13   3  -8    0.86    0.11 
  13   3  -8    0.82    0.15 
  13   4  -8    1.20    0.17 
  13   4  -8    0.54    0.08 
  13   5  -8    0.05    0.08 
  13   6  -8    0.62    0.14 
  13   7  -8    0.31    0.12 
  13   8  -8    0.54    0.15 
  13   9  -8    0.22    0.13 
  13  10  -8    0.55    0.17 
  13  11  -8   -0.07    0.11 
  13  12  -8    0.19    0.14 
  13  13  -8   -0.08    0.12 
  13  14  -8    0.36    0.15 
  14 -13  -8   -0.10    0.10 
  14 -12  -8    0.09    0.12 
  14 -11  -8    0.07    0.11 
  14 -10  -8    0.01    0.10 
  14  -9  -8    0.23    0.11 
  14  -8  -8    0.14    0.10 
  14  -7  -8    0.05    0.10 
  14  -6  -8   -0.02    0.09 
  14  -5  -8    0.11    0.09 
  14  -5  -8   -0.02    0.09 
  14  -4  -8    0.31    0.10 
  14  -4  -8    0.19    0.10 
  14  -3  -8    0.05    0.08 
  14  -3  -8    0.25    0.10 
  14  -2  -8    0.01    0.09 
  14  -2  -8   -0.02    0.08 
  14  -1  -8    0.30    0.10 
  14  -1  -8    0.32    0.11 
  14   0  -8    0.07    0.08 
  14   0  -8    0.13    0.10 
  14   1  -8    0.38    0.10 
  14   1  -8    0.43    0.12 
  14   2  -8   -0.10    0.08 
  14   3  -8    0.17    0.11 
  14   4  -8    0.18    0.11 
  14   5  -8    0.04    0.08 
  14   6  -8    0.12    0.10 
  14   7  -8    0.22    0.12 
  14   8  -8   -0.07    0.11 
  14   9  -8   -0.01    0.13 
  14  10  -8    0.16    0.14 
  14  11  -8    0.03    0.12 
  14  12  -8   -0.02    0.12 
  14  13  -8    0.09    0.13 
  15 -12  -8    0.38    0.14 
  15 -11  -8    0.05    0.11 
  15 -10  -8    0.13    0.12 
  15  -9  -8    0.12    0.12 
  15  -8  -8    0.15    0.12 
  15  -7  -8   -0.04    0.10 
  15  -6  -8    0.51    0.13 
  15  -5  -8    0.00    0.08 
  15  -5  -8   -0.03    0.09 
  15  -4  -8    0.55    0.13 
  15  -4  -8    0.72    0.14 
  15  -3  -8   -0.01    0.10 
  15  -3  -8    0.00    0.09 
  15  -2  -8    0.02    0.09 
  15  -2  -8    0.00    0.09 
  15  -1  -8   -0.14    0.09 
  15  -1  -8   -0.02    0.09 
  15   0  -8    0.82    0.15 
  15   1  -8   -0.07    0.09 
  15   2  -8    0.05    0.10 
  15   3  -8    0.05    0.11 
  15   4  -8    0.71    0.16 
  15   5  -8   -0.04    0.10 
  15   6  -8    0.82    0.17 
  15   7  -8    0.15    0.13 
  15   8  -8    0.07    0.14 
  15   9  -8    0.08    0.15 
  15  10  -8    0.41    0.17 
  15  11  -8   -0.05    0.12 
  15  12  -8    0.11    0.14 
  16 -11  -8   -0.04    0.11 
  16 -10  -8    0.00    0.12 
  16  -9  -8    0.12    0.13 
  16  -8  -8   -0.03    0.12 
  16  -7  -8   -0.01    0.11 
  16  -6  -8   -0.02    0.10 
  16  -5  -8    0.10    0.10 
  16  -4  -8    0.10    0.11 
  16  -4  -8   -0.03    0.10 
  16  -3  -8   -0.02    0.09 
  16  -3  -8    0.07    0.11 
  16  -2  -8    0.02    0.10 
  16  -1  -8   -0.05    0.09 
  16   0  -8    0.59    0.15 
  16   1  -8   -0.08    0.09 
  16   2  -8   -0.17    0.09 
  16   3  -8    0.09    0.12 
  16   4  -8   -0.14    0.11 
  16   5  -8    0.03    0.12 
  16   6  -8    0.17    0.13 
  16   7  -8    0.02    0.13 
  16   8  -8   -0.06    0.14 
  16   9  -8   -0.08    0.14 
  16  10  -8    0.03    0.15 
  16  11  -8    0.19    0.14 
  17 -10  -8    0.16    0.14 
  17  -9  -8    0.07    0.13 
  17  -8  -8    0.26    0.14 
  17  -7  -8    0.04    0.12 
  17  -6  -8    0.21    0.13 
  17  -4  -8    0.54    0.15 
  17  -3  -8   -0.01    0.11 
  17  -2  -8    0.03    0.11 
  17  -1  -8    0.12    0.12 
  17   0  -8    0.41    0.15 
  17   1  -8    0.03    0.12 
  17   2  -8    0.12    0.13 
  17   3  -8   -0.07    0.12 
  17   4  -8    0.79    0.19 
  17   5  -8    0.15    0.14 
  17   6  -8   -0.04    0.12 
  17   7  -8    0.02    0.13 
  17   8  -8    0.21    0.16 
  17   9  -8   -0.01    0.15 
  17  10  -8    0.24    0.18 
  18  -3  -8   -0.20    0.11 
  18  -2  -8    0.08    0.12 
  18  -1  -8    0.01    0.12 
  18   0  -8    0.07    0.13 
  18   1  -8    0.14    0.13 
  18   2  -8    0.08    0.14 
  18   3  -8   -0.05    0.14 
  18   4  -8   -0.01    0.14 
  18   5  -8   -0.03    0.14 
  18   6  -8   -0.06    0.15 
  18   7  -8   -0.05    0.15 
  18   8  -8    0.10    0.17 
  19  -3  -8    0.13    0.15 
  19  -2  -8    0.06    0.15 
  19  -1  -8    0.21    0.15 
  19   0  -8    0.28    0.17 
  19   1  -8    0.02    0.14 
  19   2  -8    0.00    0.15 
  19   3  -8    0.03    0.15 
  19   4  -8    0.44    0.20 
  19   5  -8    0.15    0.17 
  19   6  -8   -0.07    0.16 
  20   0  -8   -0.10    0.15 
  19   4   9    0.06    0.11 
  19   3   9    0.12    0.11 
  19   2   9    0.25    0.12 
  19   1   9    0.05    0.10 
  19   0   9    0.16    0.11 
  19  -1   9    0.51    0.13 
  19  -2   9   -0.03    0.10 
  19  -3   9    0.10    0.09 
  19  -4   9   -0.04    0.14 
  18   7   9    0.00    0.11 
 -18  -7  -9    0.09    0.15 
  18   6   9    0.08    0.11 
 -18  -6  -9   -0.01    0.14 
  18   5   9    0.24    0.12 
 -18  -5  -9    0.14    0.15 
  18   4   9    0.10    0.11 
  18   3   9    0.32    0.13 
  18   2   9    0.07    0.10 
  18   1   9    0.18    0.11 
  18   0   9    0.20    0.12 
  18  -1   9    0.17    0.11 
  18  -2   9   -0.03    0.09 
  18  -3   9    0.24    0.12 
  18  -4   9    0.35    0.17 
  18  -5   9    0.39    0.17 
  18  -6   9   -0.06    0.15 
  18  -7   9    0.13    0.16 
  17   9   9    0.01    0.11 
 -17  -9  -9    0.07    0.16 
  17   8   9    0.29    0.13 
 -17  -8  -9    0.04    0.15 
  17   7   9    0.32    0.12 
 -17  -7  -9    0.27    0.17 
  17   6   9    0.03    0.10 
 -17  -6  -9    0.02    0.14 
  17   5   9   -0.01    0.10 
 -17  -5  -9    0.04    0.13 
  17   4   9    0.27    0.12 
 -17  -4  -9   -0.16    0.11 
  17   3   9    0.18    0.10 
  17   2   9    0.28    0.12 
  17   1   9    0.25    0.12 
  17   0   9    0.23    0.11 
  17  -1   9    0.18    0.12 
  17  -2   9    0.02    0.10 
  17  -3   9    0.01    0.10 
  17  -4   9   -0.11    0.13 
  17  -5   9    0.01    0.14 
  17  -6   9   -0.01    0.14 
  17  -7   9   -0.08    0.14 
  17  -8   9    0.29    0.16 
  17  -9   9    0.05    0.15 
  16  10   9    0.00    0.12 
 -16 -10  -9   -0.10    0.14 
  16   9   9    0.19    0.14 
 -16  -9  -9    0.25    0.16 
  16   8   9   -0.07    0.10 
 -16  -8  -9    0.07    0.15 
  16   7   9    0.02    0.10 
 -16  -7  -9   -0.11    0.13 
  16   6   9    0.04    0.10 
 -16  -6  -9    0.15    0.14 
  16   5   9    0.15    0.11 
 -16  -5  -9    0.09    0.12 
  16   4   9    0.03    0.10 
 -16  -4  -9    0.00    0.12 
  16   3   9    0.12    0.09 
 -16  -3  -9   -0.06    0.10 
  16   2   9    0.14    0.11 
  16   1   9    0.14    0.09 
  16   0   9    0.13    0.11 
  16  -1   9    0.21    0.11 
  16  -2   9    0.04    0.10 
  16  -3   9    0.09    0.09 
  16  -4   9    0.11    0.12 
  16  -5   9   -0.03    0.13 
  16  -6   9    0.08    0.11 
  16  -7   9    0.06    0.14 
  16  -8   9   -0.08    0.12 
  16  -9   9    0.49    0.18 
  16 -10   9    0.00    0.14 
  16 -11   9   -0.14    0.14 
 -15 -12  -9    0.08    0.15 
 -15 -11  -9    0.08    0.15 
  15  10   9    0.04    0.12 
 -15 -10  -9    0.03    0.14 
  15   9   9    0.09    0.12 
 -15  -9  -9   -0.03    0.12 
  15   8   9    0.28    0.12 
 -15  -8  -9    0.12    0.12 
  15   7   9   -0.13    0.09 
 -15  -7  -9   -0.02    0.11 
  15   6   9    0.24    0.11 
 -15  -6  -9    0.16    0.13 
  15   5   9    0.05    0.09 
 -15  -5  -9    0.04    0.12 
  15   4   9    0.05    0.09 
 -15  -4  -9    0.18    0.12 
  15   3   9    0.07    0.09 
 -15  -3  -9    0.19    0.11 
  15   2   9    0.17    0.10 
 -15  -2  -9    0.14    0.11 
  15   1   9    0.12    0.09 
  15   0   9    0.04    0.09 
  15  -1   9    0.04    0.09 
  15  -2   9    0.22    0.11 
  15  -3   9    0.02    0.10 
  15  -4   9    0.04    0.08 
  15  -5   9    0.10    0.13 
  15  -6   9    0.27    0.13 
  15  -7   9   -0.01    0.12 
  15  -8   9    0.37    0.15 
  15  -9   9    0.18    0.14 
  15 -10   9    0.11    0.15 
  15 -11   9    0.10    0.16 
  15 -12   9    0.22    0.17 
 -14 -13  -9    0.20    0.16 
 -14 -12  -9   -0.09    0.13 
 -14 -11  -9    0.00    0.14 
  14  10   9    0.13    0.12 
 -14 -10  -9    0.06    0.12 
  14   9   9    0.48    0.14 
 -14  -9  -9    0.39    0.15 
  14   8   9    0.17    0.10 
 -14  -8  -9    0.23    0.13 
  14   7   9    0.38    0.12 
 -14  -7  -9    0.37    0.13 
  14   6   9    0.13    0.10 
 -14  -6  -9    0.10    0.12 
  14   5   9    0.30    0.11 
 -14  -5  -9    0.45    0.14 
  14   4   9    0.04    0.08 
 -14  -4  -9   -0.04    0.09 
  14   3   9   -0.09    0.07 
 -14  -3  -9    0.16    0.11 
  14   2   9   -0.01    0.08 
 -14  -2  -9    0.02    0.10 
  14   1   9    0.73    0.14 
 -14  -1  -9    0.69    0.15 
  14   0   9   -0.02    0.08 
  14  -1   9    0.88    0.14 
  14  -2   9    0.06    0.09 
  14  -3   9   -0.06    0.09 
  14  -4   9   -0.06    0.08 
  14  -5   9    0.24    0.11 
  14  -6   9    0.07    0.12 
  14  -7   9    0.38    0.14 
  14  -8   9    0.19    0.13 
  14  -9   9    0.23    0.13 
  14 -10   9    0.19    0.14 
  14 -10   9    0.11    0.13 
  14 -11   9    0.03    0.13 
  14 -11   9   -0.04    0.13 
  14 -12   9   -0.29    0.12 
  14 -12   9    0.11    0.15 
  14 -13   9   -0.03    0.14 
  14 -13   9    0.15    0.16 
 -13 -14  -9   -0.11    0.14 
 -13 -13  -9    0.29    0.17 
 -13 -12  -9   -0.01    0.14 
 -13 -11  -9    0.38    0.15 
  13  10   9   -0.04    0.10 
 -13 -10  -9    0.26    0.14 
  13   9   9    0.35    0.11 
 -13  -9  -9    0.04    0.11 
  13   8   9    0.06    0.08 
 -13  -8  -9   -0.13    0.09 
  13   7   9    0.04    0.08 
 -13  -7  -9    0.11    0.11 
  13   6   9    0.57    0.12 
 -13  -6  -9    0.64    0.14 
  13   5   9    0.04    0.08 
 -13  -5  -9    0.14    0.11 
  13   4   9    0.50    0.12 
 -13  -4  -9    0.72    0.15 
  13   3   9    0.20    0.09 
 -13  -3  -9    0.34    0.11 
  13   2   9    0.97    0.14 
 -13  -2  -9    0.86    0.14 
  13   1   9    0.24    0.09 
 -13  -1  -9   -0.09    0.08 
  13   0   9   -0.03    0.08 
  13  -1   9    0.09    0.09 
  13  -2   9    1.02    0.15 
  13  -3   9    0.26    0.10 
  13  -4   9    0.55    0.12 
  13  -5   9    0.01    0.10 
  13  -6   9    0.63    0.15 
  13  -7   9    0.23    0.12 
  13  -8   9    0.07    0.11 
  13  -9   9    0.22    0.13 
  13 -10   9   -0.05    0.10 
  13 -11   9    0.22    0.14 
  13 -12   9   -0.03    0.13 
  13 -13   9    0.22    0.16 
  13 -13   9    0.16    0.15 
  13 -14   9    0.13    0.14 
  13 -14   9    0.32    0.18 
 -12 -14  -9    0.16    0.16 
 -12 -13  -9    0.43    0.17 
 -12 -12  -9    0.08    0.13 
 -12 -11  -9   -0.10    0.10 
  12  10   9    0.05    0.10 
 -12 -10  -9   -0.24    0.09 
  12   9   9    0.27    0.11 
 -12  -9  -9    0.38    0.13 
  12   8   9    1.12    0.16 
 -12  -8  -9    1.05    0.17 
  12   7   9    0.75    0.13 
 -12  -7  -9    0.89    0.16 
  12   6   9    0.05    0.08 
 -12  -6  -9   -0.06    0.09 
  12   5   9    2.00    0.18 
 -12  -5  -9    1.55    0.18 
  12   4   9    0.27    0.09 
 -12  -4  -9    0.43    0.12 
  12   3   9    0.05    0.08 
 -12  -3  -9    0.00    0.08 
  12   2   9    0.33    0.10 
 -12  -2  -9    0.34    0.11 
  12   1   9    0.07    0.08 
 -12  -1  -9    0.09    0.09 
  12   0   9    0.03    0.08 
 -12   0  -9   -0.01    0.08 
  12  -1   9    0.05    0.08 
  12  -2   9    0.33    0.10 
  12  -3   9    0.01    0.07 
  12  -4   9    0.33    0.10 
  12  -5   9    2.17    0.21 
  12  -6   9    0.08    0.10 
  12  -7   9    0.74    0.14 
  12  -8   9    0.91    0.16 
  12  -9   9    0.24    0.12 
  12 -10   9   -0.02    0.11 
  12 -11   9    0.10    0.12 
  12 -12   9    0.11    0.13 
  12 -13   9    0.47    0.17 
  12 -14   9    0.07    0.14 
  12 -15   9    0.28    0.16 
 -11 -15  -9    0.17    0.16 
 -11 -14  -9    0.28    0.15 
 -11 -13  -9    0.20    0.13 
 -11 -12  -9    0.22    0.13 
 -11 -11  -9    0.24    0.13 
  11  10   9   -0.01    0.09 
 -11 -10  -9    0.04    0.11 
  11   9   9   -0.07    0.08 
 -11  -9  -9    0.02    0.09 
  11   8   9    0.00    0.07 
 -11  -8  -9   -0.09    0.08 
  11   7   9    0.05    0.08 
 -11  -7  -9    0.21    0.10 
  11   6   9    1.13    0.14 
 -11  -6  -9    1.21    0.16 
  11   5   9    2.06    0.18 
 -11  -5  -9    1.75    0.18 
  11   4   9    0.14    0.08 
 -11  -4  -9   -0.07    0.07 
  11   3   9   -0.01    0.06 
 -11  -3  -9    0.02    0.08 
  11   2   9    1.72    0.16 
 -11  -2  -9    1.47    0.17 
  11   1   9    0.33    0.09 
 -11  -1  -9    0.19    0.09 
  11   0   9   -0.03    0.07 
 -11   0  -9   -0.08    0.07 
  11  -1   9    0.20    0.09 
  11  -2   9    1.62    0.17 
  11  -3   9    0.01    0.07 
  11  -4   9    0.04    0.07 
  11  -5   9    1.91    0.19 
  11  -6   9    1.07    0.16 
  11  -7   9    0.12    0.10 
  11  -8   9    0.10    0.10 
  11  -9   9    0.03    0.10 
  11 -10   9    0.04    0.10 
  11 -11   9    0.11    0.13 
  11 -12   9    0.21    0.13 
  11 -13   9    0.17    0.13 
  11 -14   9    0.24    0.16 
  11 -15   9   -0.14    0.14 
 -10 -16  -9    0.06    0.16 
 -10 -15  -9    0.80    0.20 
 -10 -14  -9    0.11    0.13 
 -10 -13  -9    0.04    0.11 
 -10 -12  -9    0.04    0.11 
 -10 -11  -9   -0.14    0.09 
  10  10   9    0.22    0.10 
 -10 -10  -9    0.45    0.12 
  10   9   9    0.23    0.10 
 -10  -9  -9    0.39    0.12 
  10   8   9    1.16    0.14 
 -10  -8  -9    1.14    0.16 
  10   7   9    1.80    0.17 
 -10  -7  -9    1.61    0.18 
  10   6   9    0.04    0.07 
 -10  -6  -9    0.10    0.09 
  10   5   9   -0.07    0.06 
 -10  -5  -9   -0.02    0.07 
  10   4   9    0.34    0.09 
 -10  -4  -9    0.25    0.09 
  10   3   9    1.62    0.15 
 -10  -3  -9    1.21    0.15 
  10   2   9    0.21    0.08 
 -10  -2  -9    0.16    0.08 
  10   1   9    0.02    0.06 
 -10  -1  -9   -0.07    0.07 
  10   0   9   -0.02    0.06 
 -10   0  -9   -0.02    0.07 
  10  -1   9    0.00    0.06 
 -10   1  -9    0.05    0.08 
  10  -2   9    0.13    0.07 
  10  -3   9    1.27    0.15 
  10  -4   9    0.40    0.10 
  10  -5   9   -0.05    0.07 
  10  -6   9    0.08    0.09 
  10  -7   9    1.71    0.18 
  10  -8   9    1.20    0.16 
  10  -9   9    0.27    0.11 
  10 -10   9    0.38    0.12 
  10 -11   9    0.05    0.10 
  10 -12   9    0.16    0.13 
  10 -13   9    0.01    0.12 
  10 -14   9    0.03    0.13 
  10 -15   9    0.46    0.17 
  10 -16   9    0.17    0.16 
  -9 -16  -9   -0.04    0.14 
  -9 -15  -9    0.04    0.14 
  -9 -14  -9    0.05    0.13 
  -9 -13  -9    0.40    0.14 
  -9 -12  -9    0.25    0.13 
  -9 -11  -9   -0.09    0.08 
   9  10   9    0.16    0.10 
  -9 -10  -9    0.24    0.11 
   9   9   9    1.21    0.15 
  -9  -9  -9    1.59    0.18 
   9   8   9    0.04    0.06 
  -9  -8  -9    0.12    0.09 
   9   7   9    0.57    0.10 
  -9  -7  -9    0.33    0.11 
   9   6   9    1.78    0.16 
  -9  -6  -9    1.87    0.18 
   9   5   9    1.90    0.15 
  -9  -5  -9    1.96    0.18 
   9   4   9   -0.01    0.05 
  -9  -4  -9   -0.01    0.07 
   9   3   9    1.62    0.14 
  -9  -3  -9    1.13    0.14 
   9   2   9    1.82    0.14 
  -9  -2  -9    1.45    0.15 
   9   1   9   -0.01    0.05 
  -9  -1  -9    0.03    0.07 
   9   0   9   -0.01    0.05 
  -9   0  -9   -0.04    0.07 
   9  -1   9   -0.02    0.06 
  -9   1  -9   -0.04    0.06 
   9  -2   9    1.88    0.16 
   9  -3   9    1.29    0.14 
   9  -4   9    0.08    0.08 
   9  -5   9    1.73    0.16 
   9  -6   9    1.88    0.18 
   9  -7   9    0.49    0.12 
   9  -8   9    0.19    0.10 
   9  -9   9    1.25    0.17 
   9 -10   9    0.14    0.10 
   9 -11   9   -0.08    0.09 
   9 -12   9    0.27    0.13 
   9 -13   9    0.53    0.15 
   9 -14   9   -0.09    0.13 
   9 -15   9    0.07    0.14 
   9 -16   9   -0.17    0.14 
  -8 -17  -9    0.04    0.15 
  -8 -16  -9    0.16    0.15 
  -8 -15  -9    0.08    0.13 
  -8 -14  -9    0.01    0.11 
  -8 -13  -9    0.02    0.12 
  -8 -12  -9    0.05    0.10 
  -8 -11  -9    0.68    0.14 
  -8 -10  -9    0.97    0.16 
   8   9   9    0.02    0.04 
  -8  -9  -9    0.09    0.09 
   8   8   9    0.01    0.05 
  -8  -8  -9    0.02    0.08 
   8   7   9    0.37    0.08 
  -8  -7  -9    0.28    0.10 
   8   6   9    3.43    0.20 
  -8  -6  -9    2.99    0.22 
   8   5   9    0.62    0.09 
  -8  -5  -9    0.36    0.10 
   8   4   9    0.62    0.09 
  -8  -4  -9    0.43    0.10 
   8   3   9    3.83    0.21 
  -8  -3  -9    3.96    0.17 
  -8  -3  -9    3.65    0.23 
   8   2   9    0.70    0.10 
  -8  -2  -9    0.70    0.07 
  -8  -2  -9    0.56    0.10 
   8   1   9    0.60    0.09 
  -8  -1  -9    0.73    0.11 
   8   0   9    0.00    0.05 
  -8   0  -9    0.12    0.06 
   8  -1   9    0.63    0.09 
  -8   1  -9    0.60    0.10 
   8  -2   9    0.74    0.11 
  -8   2  -9    0.65    0.10 
   8  -3   9    3.86    0.23 
   8  -4   9    0.42    0.09 
   8  -5   9    0.40    0.09 
   8  -6   9    2.99    0.21 
   8  -7   9    0.35    0.10 
   8  -8   9    0.01    0.08 
   8  -9   9    0.03    0.09 
   8 -10   9    1.17    0.17 
   8 -11   9    0.44    0.12 
   8 -12   9    0.16    0.11 
   8 -13   9    0.02    0.11 
   8 -14   9   -0.06    0.12 
   8 -15   9    0.22    0.15 
   8 -16   9    0.09    0.15 
   8 -17   9   -0.03    0.15 
  -7 -17  -9   -0.12    0.13 
  -7 -16  -9    0.26    0.16 
  -7 -15  -9    0.29    0.15 
  -7 -14  -9    0.00    0.11 
  -7 -13  -9    0.37    0.13 
  -7 -12  -9    0.88    0.17 
  -7 -11  -9    0.14    0.11 
  -7 -10  -9   -0.01    0.08 
   7   9   9    2.78    0.18 
  -7  -9  -9    2.80    0.22 
   7   8   9    0.31    0.07 
  -7  -8  -9    0.69    0.13 
   7   7   9    0.05    0.04 
  -7  -7  -9    0.06    0.08 
   7   6   9    3.04    0.18 
  -7  -6  -9    2.78    0.20 
   7   5   9    1.52    0.12 
  -7  -5  -9    1.27    0.09 
  -7  -5  -9    1.16    0.14 
   7   4   9    0.89    0.10 
  -7  -4  -9    0.79    0.07 
  -7  -4  -9    0.74    0.11 
   7   3   9   -0.01    0.05 
  -7  -3  -9    0.06    0.06 
  -7  -3  -9    0.10    0.04 
   7   2   9    1.41    0.11 
  -7  -2  -9    1.35    0.09 
  -7  -2  -9    1.36    0.13 
   7   1   9    0.25    0.06 
  -7  -1  -9    0.13    0.04 
  -7  -1  -9    0.12    0.06 
   7   0   9    0.04    0.05 
  -7   0  -9   -0.06    0.04 
   7  -1   9    0.09    0.06 
  -7   1  -9    0.15    0.06 
   7  -2   9    1.52    0.13 
  -7   2  -9    1.40    0.13 
   7  -3   9   -0.05    0.05 
   7  -4   9    0.67    0.10 
   7  -5   9    1.10    0.13 
   7  -6   9    2.93    0.21 
   7  -7   9    0.04    0.08 
   7  -8   9    0.51    0.12 
   7  -9   9    3.09    0.23 
   7 -10   9    0.01    0.08 
   7 -11   9    0.26    0.11 
   7 -12   9    0.52    0.14 
   7 -13   9    0.34    0.13 
   7 -14   9    0.09    0.12 
   7 -15   9    0.27    0.14 
   7 -16   9    0.18    0.15 
   7 -17   9   -0.09    0.15 
  -6 -17  -9    0.06    0.16 
  -6 -16  -9    0.24    0.15 
  -6 -15  -9   -0.21    0.10 
  -6 -14  -9    0.02    0.11 
  -6 -13  -9   -0.03    0.10 
  -6 -12  -9    0.17    0.10 
  -6 -11  -9    0.37    0.12 
  -6 -10  -9   -0.03    0.09 
   6   9   9    1.90    0.14 
  -6  -9  -9    1.47    0.17 
   6   8   9    2.49    0.16 
  -6  -8  -9    2.88    0.15 
  -6  -8  -9    2.98    0.21 
   6   7   9    0.31    0.07 
  -6  -7  -9    0.33    0.09 
  -6  -7  -9    0.33    0.06 
  -6  -6  -9   10.37    0.40 
  -6  -6  -9    9.75    0.47 
   6   5   9    0.56    0.08 
  -6  -5  -9    0.71    0.07 
  -6  -5  -9    0.70    0.10 
   6   4   9    1.54    0.11 
  -6  -4  -9    1.63    0.13 
  -6  -4  -9    1.83    0.10 
   6   3   9    0.56    0.08 
  -6  -3  -9    0.54    0.06 
  -6  -3  -9    0.60    0.09 
   6   2   9   17.54    0.68 
  -6  -2  -9   17.44    0.71 
  -6  -2  -9   16.96    0.65 
   6   1   9    1.64    0.12 
  -6  -1  -9    1.43    0.10 
  -6  -1  -9    1.33    0.12 
   6   0   9    0.05    0.05 
  -6   0  -9   -0.01    0.03 
  -6   0  -9   -0.04    0.04 
   6  -1   9    1.33    0.12 
  -6   1  -9    1.27    0.12 
  -6   1  -9    1.51    0.11 
   6  -2   9   17.68    0.70 
  -6   2  -9   17.05    0.71 
   6  -3   9    0.43    0.09 
   6  -4   9    1.63    0.14 
   6  -5   9    0.54    0.10 
   6  -6   9   10.32    0.47 
   6  -7   9    0.32    0.10 
   6  -8   9    2.81    0.21 
   6  -9   9    1.89    0.18 
   6 -10   9    0.00    0.08 
   6 -11   9    0.31    0.11 
   6 -12   9    0.11    0.10 
   6 -13   9   -0.01    0.10 
   6 -14   9    0.18    0.12 
   6 -15   9    0.02    0.13 
   6 -16   9    0.22    0.15 
   6 -17   9    0.09    0.15 
   6 -18   9   -0.24    0.15 
  -5 -18  -9    0.16    0.18 
  -5 -17  -9    0.03    0.15 
  -5 -16  -9    0.34    0.16 
  -5 -15  -9    0.44    0.15 
  -5 -14  -9   -0.06    0.11 
  -5 -13  -9    0.16    0.11 
  -5 -12  -9    2.92    0.24 
  -5 -11  -9   -0.06    0.08 
  -5 -10  -9    0.73    0.13 
  -5 -10  -9    0.49    0.08 
  -5  -9  -9    4.86    0.29 
  -5  -9  -9    4.88    0.23 
   5   8   9    0.18    0.06 
  -5  -8  -9    0.14    0.08 
  -5  -8  -9    0.26    0.06 
   5   7   9    0.78    0.08 
  -5  -7  -9    0.72    0.12 
  -5  -7  -9    0.70    0.07 
   5   6   9    0.68    0.08 
  -5  -6  -9    0.79    0.11 
  -5  -6  -9    0.60    0.07 
   5   5   9    1.43    0.10 
  -5  -5  -9    1.37    0.13 
  -5  -5  -9    1.41    0.09 
  -5  -4  -9    1.51    0.13 
  -5  -4  -9    1.45    0.09 
   5   3   9    5.65    0.26 
  -5  -3  -9    6.01    0.29 
  -5  -3  -9    5.80    0.25 
   5   2   9    0.27    0.06 
  -5  -2  -9    0.28    0.05 
  -5  -2  -9    0.40    0.07 
   5   1   9   12.67    0.51 
  -5  -1  -9   11.95    0.52 
  -5  -1  -9   12.83    0.49 
   5   0   9    0.00    0.04 
  -5   0  -9   -0.07    0.03 
  -5   0  -9    0.02    0.04 
   5  -1   9   12.17    0.51 
  -5   1  -9   12.76    0.52 
  -5   1  -9   11.88    0.48 
   5  -2   9    0.44    0.07 
  -5   2  -9    0.49    0.07 
  -5   2  -9    0.36    0.07 
   5  -3   9    5.66    0.28 
   5  -4   9    1.38    0.13 
   5  -5   9    1.42    0.13 
   5  -6   9    0.76    0.11 
   5  -7   9    0.78    0.12 
   5  -8   9    0.30    0.09 
   5  -9   9    5.45    0.31 
   5 -10   9    0.67    0.13 
   5 -11   9   -0.01    0.09 
   5 -12   9    2.22    0.21 
   5 -13   9    0.12    0.11 
   5 -14   9   -0.09    0.10 
   5 -15   9    0.51    0.16 
   5 -16   9    0.46    0.17 
   5 -17   9   -0.08    0.13 
   5 -18   9    0.34    0.18 
  -4 -18  -9   -0.02    0.14 
  -4 -17  -9    0.05    0.15 
  -4 -16  -9    0.12    0.13 
  -4 -15  -9   -0.01    0.11 
  -4 -14  -9   -0.01    0.11 
  -4 -13  -9    0.35    0.09 
  -4 -13  -9    0.29    0.12 
  -4 -12  -9   -0.02    0.09 
  -4 -12  -9    0.08    0.07 
  -4 -11  -9    0.93    0.10 
  -4 -11  -9    0.82    0.14 
  -4 -10  -9    0.20    0.06 
  -4 -10  -9    0.12    0.08 
  -4  -9  -9    1.05    0.10 
  -4  -9  -9    0.94    0.14 
   4   8   9    0.00    0.04 
  -4  -8  -9   -0.06    0.04 
  -4  -8  -9    0.04    0.07 
   4   7   9    2.37    0.13 
  -4  -7  -9    2.39    0.18 
  -4  -7  -9    2.57    0.14 
   4   6   9    0.83    0.07 
  -4  -6  -9    0.61    0.10 
  -4  -6  -9    0.71    0.07 
   4   5   9    0.19    0.05 
  -4  -5  -9    0.19    0.05 
  -4  -5  -9    0.25    0.07 
   4   4   9    0.04    0.03 
  -4  -4  -9    0.01    0.03 
  -4  -4  -9   -0.01    0.04 
  -4  -3  -9    4.28    0.22 
  -4  -3  -9    3.96    0.18 
   4   2   9    9.05    0.37 
  -4  -2  -9    9.12    0.36 
  -4  -2  -9    8.40    0.38 
   4   1   9    0.13    0.05 
  -4  -1  -9    0.12    0.05 
  -4  -1  -9    0.15    0.04 
   4   0   9   -0.05    0.03 
  -4   0  -9   -0.01    0.04 
  -4   0  -9   -0.01    0.03 
   4  -1   9    0.09    0.05 
  -4   1  -9    0.21    0.05 
  -4   1  -9    0.15    0.05 
   4  -2   9    9.18    0.40 
  -4   2  -9    9.18    0.39 
  -4   2  -9    9.37    0.40 
   4  -3   9    3.93    0.22 
  -4   3  -9    4.29    0.21 
   4  -4   9    0.03    0.05 
   4  -5   9    0.14    0.06 
   4  -6   9    0.79    0.11 
   4  -7   9    1.86    0.16 
   4  -8   9    0.07    0.07 
   4  -9   9    1.09    0.14 
   4 -10   9    0.09    0.08 
   4 -11   9    1.01    0.15 
   4 -12   9    0.01    0.10 
   4 -13   9    0.40    0.13 
   4 -14   9    0.03    0.10 
   4 -15   9    0.09    0.12 
   4 -16   9    0.19    0.15 
   4 -17   9    0.02    0.15 
   4 -18   9    0.05    0.15 
  -3 -18  -9   -0.07    0.15 
  -3 -17  -9    0.15    0.14 
  -3 -16  -9    0.41    0.16 
  -3 -15  -9    0.58    0.16 
  -3 -14  -9    0.28    0.12 
  -3 -14  -9    0.19    0.09 
  -3 -13  -9    0.36    0.12 
  -3 -13  -9    0.16    0.08 
  -3 -12  -9    0.68    0.14 
  -3 -12  -9    0.70    0.10 
  -3 -11  -9    0.00    0.08 
  -3 -11  -9    0.03    0.05 
  -3 -10  -9    0.73    0.09 
  -3 -10  -9    0.67    0.13 
  -3  -9  -9    2.46    0.19 
  -3  -9  -9    2.06    0.14 
   3   8   9    0.26    0.05 
  -3  -8  -9    0.17    0.06 
  -3  -8  -9    0.34    0.09 
   3   7   9    0.92    0.07 
  -3  -7  -9    0.85    0.09 
  -3  -7  -9    0.85    0.11 
   3   6   9    0.14    0.04 
  -3  -6  -9    0.14    0.05 
  -3  -6  -9    0.28    0.07 
   3   5   9    1.41    0.09 
  -3  -5  -9    1.33    0.09 
  -3  -5  -9    1.30    0.12 
   3   4   9    0.00    0.03 
  -3  -4  -9   -0.01    0.03 
  -3  -4  -9    0.11    0.05 
   3   3   9    4.34    0.20 
  -3  -3  -9    4.15    0.22 
  -3  -3  -9    4.55    0.20 
   3   2   9    0.00    0.02 
  -3  -2  -9    0.12    0.05 
  -3  -2  -9    0.02    0.03 
   3   1   9    4.05    0.19 
  -3  -1  -9    4.39    0.21 
  -3  -1  -9    4.06    0.19 
   3   0   9    0.01    0.04 
  -3   0  -9   -0.05    0.03 
  -3   0  -9   -0.01    0.04 
   3  -1   9    4.09    0.21 
  -3   1  -9    4.40    0.21 
  -3   1  -9    4.40    0.21 
   3  -2   9    0.04    0.04 
  -3   2  -9    0.05    0.04 
  -3   2  -9   -0.03    0.03 
   3  -3   9    4.48    0.23 
  -3   3  -9    4.17    0.22 
   3  -4   9   -0.01    0.04 
  -3   4  -9    0.01    0.04 
   3  -5   9    1.12    0.12 
   3  -6   9    0.10    0.06 
   3  -7   9    0.82    0.11 
   3  -8   9    0.22    0.08 
   3  -9   9    2.28    0.19 
   3 -10   9    0.87    0.14 
   3 -11   9   -0.06    0.08 
   3 -12   9    0.83    0.15 
   3 -13   9    0.21    0.11 
   3 -14   9   -0.01    0.10 
   3 -15   9    0.10    0.12 
   3 -16   9    0.26    0.15 
   3 -17   9   -0.07    0.15 
   3 -18   9    0.14    0.17 
  -2 -18  -9   -0.01    0.16 
  -2 -17  -9    0.15    0.14 
  -2 -16  -9    0.76    0.13 
  -2 -15  -9    0.20    0.09 
  -2 -14  -9    0.07    0.08 
  -2 -13  -9    2.24    0.17 
  -2 -12  -9    2.02    0.16 
  -2 -11  -9   -0.07    0.05 
  -2 -10  -9   -0.02    0.04 
  -2  -9  -9    1.52    0.12 
  -2  -9  -9    1.56    0.16 
  -2  -8  -9    2.20    0.17 
  -2  -8  -9    2.21    0.14 
   2   7   9    3.14    0.14 
  -2  -7  -9    2.94    0.19 
  -2  -7  -9    2.75    0.16 
   2   6   9    0.07    0.03 
  -2  -6  -9    0.09    0.05 
  -2  -6  -9    0.07    0.04 
   2   5   9    5.75    0.23 
  -2  -5  -9    5.51    0.25 
  -2  -5  -9    5.60    0.28 
   2   4   9    0.95    0.07 
  -2  -4  -9    1.09    0.10 
  -2  -4  -9    1.05    0.09 
   2   3   9    1.13    0.07 
  -2  -3  -9    1.30    0.10 
  -2  -3  -9    1.16    0.09 
   2   2   9    0.16    0.04 
  -2  -2  -9    0.22    0.05 
  -2  -2  -9    0.11    0.04 
  -2  -1  -9   43.48    1.56 
  -2  -1  -9   43.76    1.63 
   2   0   9    0.00    0.04 
  -2   0  -9   -0.02    0.04 
  -2   0  -9   -0.06    0.03 
   2  -1   9   45.66    1.66 
  -2   1  -9   44.94    1.62 
  -2   1  -9   44.38    1.67 
   2  -2   9    0.18    0.05 
  -2   2  -9    0.17    0.04 
  -2   2  -9    0.13    0.05 
   2  -3   9    1.31    0.11 
  -2   3  -9    1.11    0.11 
   2  -4   9    1.22    0.11 
  -2   4  -9    0.84    0.10 
   2  -5   9    4.99    0.26 
  -2   5  -9    5.66    0.27 
   2  -6   9    0.03    0.05 
   2  -7   9    2.97    0.19 
   2  -8   9    2.10    0.17 
   2  -9   9    1.51    0.16 
   2 -10   9    0.03    0.07 
   2 -11   9    0.08    0.09 
   2 -12   9    1.56    0.18 
   2 -13   9    2.16    0.22 
   2 -14   9    0.03    0.11 
   2 -15   9    0.13    0.12 
   2 -16   9    0.62    0.17 
   2 -17   9    0.07    0.15 
   2 -18   9    0.12    0.16 
  -1 -17  -9    0.41    0.13 
  -1 -16  -9    0.10    0.10 
  -1 -15  -9    1.53    0.16 
  -1 -14  -9   -0.12    0.06 
  -1 -13  -9    0.40    0.10 
  -1 -12  -9    0.30    0.09 
  -1 -11  -9    2.08    0.16 
  -1 -10  -9    0.00    0.05 
  -1  -9  -9    1.58    0.12 
  -1  -8  -9    0.07    0.05 
  -1  -7  -9    0.93    0.09 
  -1  -6  -9    0.52    0.07 
  -1  -6  -9    0.57    0.09 
   1   5   9    1.26    0.07 
  -1  -5  -9    1.31    0.12 
  -1  -5  -9    1.25    0.10 
   1   4   9    0.03    0.02 
  -1  -4  -9    0.04    0.04 
  -1  -4  -9   -0.01    0.03 
   1   3   9    6.93    0.28 
  -1  -3  -9    6.76    0.29 
  -1  -3  -9    7.13    0.31 
   1   2   9    3.20    0.15 
  -1  -2  -9    3.17    0.16 
  -1  -2  -9    3.03    0.17 
  -1  -1  -9   22.02    0.83 
  -1  -1  -9   21.31    0.80 
   1   0   9   -0.01    0.03 
  -1   0  -9    0.01    0.03 
  -1   0  -9    0.01    0.04 
   1  -1   9   21.80    0.84 
  -1   1  -9   22.18    0.82 
   1  -2   9    3.21    0.17 
  -1   2  -9    2.98    0.15 
  -1   2  -9    3.31    0.18 
   1  -3   9    6.92    0.31 
  -1   3  -9    6.70    0.30 
   1  -4   9    0.05    0.05 
  -1   4  -9    0.00    0.04 
   1  -5   9    1.33    0.12 
  -1   5  -9    1.11    0.11 
   1  -6   9    0.55    0.09 
  -1   6  -9    0.63    0.10 
   1  -7   9    0.87    0.12 
   1  -8   9    0.01    0.07 
   1  -9   9    1.69    0.17 
   1 -10   9   -0.01    0.07 
   1 -11   9    1.58    0.18 
   1 -12   9    0.31    0.12 
   1 -13   9    0.36    0.12 
   1 -14   9    0.07    0.11 
   1 -15   9    1.50    0.21 
   1 -16   9    0.09    0.13 
   1 -17   9    0.34    0.17 
   1 -18   9   -0.05    0.15 
   0 -18  -9    0.20    0.12 
   0 -17  -9    0.20    0.12 
   0 -16  -9    1.46    0.17 
   0 -15  -9    0.16    0.10 
   0 -14  -9    0.10    0.09 
   0 -13  -9    0.01    0.07 
   0 -12  -9    5.16    0.28 
   0 -11  -9    0.05    0.06 
   0 -10  -9    0.00    0.06 
   0  -9  -9   -0.01    0.05 
   0  -8  -9    2.01    0.14 
   0  -7  -9    0.01    0.04 
   0  -6  -9    2.06    0.13 
   0  -5  -9    0.01    0.04 
   0   4   9    3.80    0.15 
   0  -4  -9    3.60    0.20 
   0  -4  -9    3.55    0.18 
   0   3   9    0.03    0.03 
   0  -3  -9   -0.02    0.03 
   0  -3  -9   -0.03    0.03 
   0   2   9   70.77    2.55 
   0  -2  -9   70.55    2.51 
   0  -2  -9   71.26    2.61 
   0   1   9    0.06    0.04 
   0  -1  -9    0.15    0.04 
   0  -1  -9    0.10    0.05 
   0   0   9    0.00    0.03 
   0   0  -9    0.02    0.04 
   0   0  -9    0.00    0.02 
   0  -1   9    0.08    0.05 
   0   1  -9    0.10    0.05 
   0   1  -9    0.11    0.04 
   0  -2   9   69.39    2.53 
   0   2  -9   68.77    2.46 
   0   2  -9   69.67    2.54 
   0  -3   9   -0.04    0.04 
   0   3  -9   -0.04    0.04 
   0  -4   9    3.41    0.19 
   0   4  -9    3.32    0.18 
   0  -5   9    0.09    0.05 
   0   5  -9    0.00    0.04 
   0  -6   9    2.11    0.16 
   0   6  -9    2.00    0.15 
   0  -7   9    0.04    0.06 
   0  -8   9    2.10    0.18 
   0  -9   9    0.03    0.07 
   0 -10   9    0.03    0.08 
   0 -11   9   -0.02    0.08 
   0 -12   9    5.04    0.32 
   0 -13   9    0.03    0.10 
   0 -14   9    0.13    0.11 
   0 -15   9    0.16    0.13 
   0 -16   9    1.38    0.22 
   0 -17   9   -0.02    0.13 
   0 -18   9    0.09    0.15 
   1 -18  -9    0.07    0.13 
   1 -17  -9    0.49    0.14 
   1 -16  -9    0.07    0.10 
   1 -15  -9    1.47    0.17 
   1 -14  -9    0.02    0.08 
   1 -13  -9    0.34    0.10 
   1 -12  -9    0.24    0.09 
   1 -11  -9    1.94    0.16 
   1 -10  -9    0.01    0.06 
   1  -9  -9    1.67    0.14 
   1  -8  -9    0.08    0.05 
   1  -7  -9    1.03    0.10 
   1  -6  -9    0.70    0.08 
   1  -5  -9    1.35    0.10 
   1  -4  -9    0.03    0.04 
  -1   3   9    6.93    0.27 
   1  -3  -9    6.88    0.30 
  -1   2   9    3.14    0.14 
   1  -2  -9    2.98    0.16 
   1  -2  -9    3.09    0.16 
  -1   1   9   21.79    0.82 
   1  -1  -9   21.59    0.81 
  -1   0   9    0.01    0.03 
   1   0  -9    0.00    0.03 
   1   0  -9   -0.08    0.03 
  -1  -1   9   21.09    0.82 
   1   1  -9   21.70    0.81 
   1   1  -9   21.56    0.80 
  -1  -2   9    2.84    0.16 
   1   2  -9    2.88    0.13 
   1   2  -9    2.78    0.16 
  -1  -3   9    6.47    0.30 
   1   3  -9    6.64    0.30 
  -1  -4   9    0.01    0.04 
   1   4  -9    0.09    0.04 
  -1  -5   9    1.30    0.13 
   1   5  -9    1.28    0.12 
  -1  -6   9    0.68    0.10 
   1   6  -9    0.68    0.10 
  -1  -7   9    0.91    0.12 
   1   7  -9    1.00    0.11 
  -1  -8   9    0.07    0.07 
  -1  -9   9    1.78    0.17 
  -1 -10   9    0.08    0.08 
  -1 -11   9    1.86    0.19 
  -1 -12   9    0.22    0.11 
  -1 -13   9    0.35    0.13 
  -1 -14   9    0.08    0.11 
  -1 -15   9    1.71    0.23 
  -1 -16   9    0.02    0.13 
  -1 -17   9    0.35    0.17 
  -1 -18   9    0.10    0.16 
   2 -18  -9   -0.05    0.12 
   2 -17  -9    0.05    0.12 
   2 -16  -9    0.47    0.13 
   2 -15  -9    0.19    0.11 
   2 -14  -9    0.01    0.09 
   2 -13  -9    2.25    0.19 
   2 -12  -9    2.33    0.19 
   2 -11  -9    0.08    0.07 
   2 -10  -9   -0.08    0.06 
   2  -9  -9    1.36    0.13 
   2  -8  -9    2.43    0.16 
   2  -7  -9    2.94    0.17 
   2  -6  -9    0.12    0.05 
   2  -5  -9    5.29    0.25 
   2  -4  -9    1.07    0.10 
  -2   3   9    1.20    0.07 
   2  -3  -9    1.16    0.10 
  -2   2   9    0.26    0.04 
   2  -2  -9    0.32    0.06 
  -2   1   9   45.21    1.65 
   2  -1  -9   44.14    1.62 
   2  -1  -9   46.10    1.68 
   2   0  -9    0.01    0.03 
   2   0  -9   -0.04    0.04 
   2   1  -9   43.24    1.62 
   2   1  -9   44.59    1.60 
   2   1  -9   42.99    1.57 
   2   2  -9    0.28    0.06 
   2   2  -9    0.22    0.06 
   2   2  -9    0.24    0.03 
   2   3  -9    1.30    0.12 
   2   3  -9    1.16    0.10 
   2   4  -9    0.86    0.09 
   2   4  -9    0.87    0.11 
   2   5  -9    4.99    0.27 
   2   5  -9    5.05    0.25 
   2   6  -9    0.19    0.07 
   2   6  -9   -0.01    0.04 
   2   7  -9    3.02    0.19 
   2   7  -9    3.01    0.21 
  -2  -8   9    1.89    0.17 
  -2  -9   9    1.54    0.17 
  -2 -10   9    0.02    0.08 
  -2 -11   9    0.03    0.08 
  -2 -12   9    2.08    0.22 
  -2 -13   9    2.47    0.24 
  -2 -14   9    0.16    0.12 
  -2 -15   9    0.16    0.14 
  -2 -16   9    0.54    0.17 
  -2 -17   9    0.13    0.15 
  -2 -18   9    0.06    0.17 
   3 -18  -9    0.03    0.12 
   3 -17  -9    0.16    0.13 
   3 -16  -9    0.44    0.13 
   3 -15  -9    0.27    0.11 
   3 -14  -9    0.13    0.09 
   3 -13  -9    0.17    0.09 
   3 -12  -9    0.80    0.12 
   3 -11  -9    0.04    0.08 
   3 -10  -9    0.75    0.11 
   3  -9  -9    2.31    0.16 
   3  -8  -9    0.13    0.06 
   3  -7  -9    0.86    0.10 
   3  -6  -9    0.14    0.06 
   3  -5  -9    1.59    0.12 
  -3   4   9    0.00    0.02 
   3  -4  -9    0.00    0.04 
   3  -3  -9    4.06    0.20 
   3  -3  -9    4.13    0.18 
   3  -2  -9    0.08    0.03 
   3  -2  -9    0.14    0.05 
   3  -1  -9    4.15    0.20 
   3  -1  -9    4.06    0.19 
   3   0  -9   -0.01    0.04 
   3   0  -9   -0.01    0.03 
   3   1  -9    4.30    0.21 
   3   1  -9    4.55    0.19 
   3   1  -9    4.56    0.22 
   3   2  -9    0.05    0.05 
   3   2  -9    0.03    0.03 
   3   3  -9    3.99    0.22 
   3   3  -9    3.92    0.20 
   3   4  -9    0.05    0.05 
   3   4  -9   -0.03    0.03 
   3   5  -9    1.46    0.13 
   3   5  -9    1.54    0.14 
   3   6  -9    0.19    0.06 
   3   6  -9    0.11    0.06 
   3   7  -9    1.09    0.14 
   3   7  -9    1.09    0.12 
   3   8  -9    0.24    0.08 
   3   8  -9    0.21    0.08 
   3   9  -9    2.21    0.21 
   3  10  -9    0.78    0.14 
  -3 -11   9   -0.08    0.07 
  -3 -12   9    0.52    0.14 
  -3 -13   9    0.07    0.11 
  -3 -14   9    0.13    0.13 
  -3 -15   9    0.19    0.13 
  -3 -16   9    0.41    0.15 
  -3 -17   9    0.03    0.15 
  -3 -18   9   -0.07    0.16 
   4 -18  -9   -0.14    0.13 
   4 -17  -9    0.18    0.13 
   4 -16  -9    0.17    0.11 
   4 -15  -9    0.08    0.10 
   4 -14  -9    0.09    0.09 
   4 -13  -9    0.23    0.10 
   4 -12  -9    0.11    0.08 
   4 -11  -9    0.98    0.13 
   4 -10  -9    0.18    0.08 
   4  -9  -9    1.15    0.13 
   4  -8  -9   -0.04    0.05 
   4  -7  -9    2.04    0.14 
   4  -6  -9    0.75    0.10 
   4  -5  -9    0.15    0.06 
   4  -4  -9    0.02    0.04 
   4  -4  -9    0.05    0.03 
   4  -3  -9    3.78    0.17 
   4  -3  -9    3.75    0.19 
   4  -2  -9    8.32    0.34 
   4  -2  -9    8.16    0.35 
   4  -1  -9    0.23    0.05 
   4  -1  -9    0.15    0.05 
   4   0  -9   -0.03    0.03 
   4   0  -9   -0.03    0.03 
   4   1  -9    0.16    0.04 
   4   1  -9    0.24    0.06 
   4   2  -9    8.67    0.36 
   4   2  -9    7.91    0.37 
   4   3  -9    3.85    0.21 
   4   3  -9    3.55    0.19 
   4   4  -9    0.02    0.05 
   4   4  -9    0.04    0.04 
   4   5  -9    0.25    0.06 
   4   5  -9    0.18    0.07 
   4   6  -9    0.62    0.09 
   4   6  -9    0.60    0.11 
   4   7  -9    2.37    0.17 
   4   7  -9    2.32    0.20 
   4   8  -9   -0.02    0.06 
   4   8  -9   -0.01    0.07 
   4   9  -9    1.24    0.17 
   4  10  -9    0.06    0.09 
   4  11  -9    1.02    0.17 
   4  12  -9    0.06    0.10 
  -4 -13   9    0.26    0.12 
  -4 -14   9   -0.07    0.11 
  -4 -15   9    0.08    0.12 
  -4 -16   9   -0.01    0.13 
  -4 -17   9    0.07    0.15 
  -4 -18   9    0.14    0.16 
   5 -18  -9    0.19    0.14 
   5 -17  -9    0.06    0.12 
   5 -16  -9    0.50    0.14 
   5 -15  -9    0.44    0.13 
   5 -14  -9    0.01    0.09 
   5 -13  -9    0.11    0.09 
   5 -12  -9    2.61    0.20 
   5 -11  -9    0.02    0.08 
   5 -10  -9    0.45    0.10 
   5  -9  -9    5.01    0.27 
   5  -8  -9    0.13    0.07 
   5  -7  -9    0.57    0.09 
   5  -6  -9    0.69    0.10 
   5  -5  -9    1.70    0.09 
   5  -5  -9    1.49    0.12 
   5  -4  -9    1.68    0.10 
   5  -4  -9    1.53    0.12 
   5  -3  -9    5.78    0.25 
   5  -3  -9    5.85    0.27 
   5  -2  -9    0.35    0.07 
   5  -2  -9    0.47    0.07 
   5  -1  -9   13.16    0.53 
   5  -1  -9   13.03    0.52 
   5   0  -9    0.00    0.04 
   5   0  -9    0.01    0.03 
   5   1  -9   13.20    0.53 
   5   1  -9   12.36    0.51 
   5   2  -9    0.29    0.07 
   5   2  -9    0.37    0.07 
   5   3  -9    6.04    0.30 
   5   3  -9    5.84    0.28 
   5   4  -9    1.59    0.12 
   5   4  -9    1.62    0.15 
   5   5  -9    1.70    0.14 
   5   5  -9    1.61    0.15 
   5   6  -9    0.78    0.10 
   5   6  -9    0.90    0.13 
   5   7  -9    0.70    0.12 
   5   7  -9    0.74    0.11 
   5   8  -9    0.23    0.09 
   5   8  -9    0.23    0.09 
   5   9  -9    5.05    0.32 
   5  10  -9    0.64    0.13 
   5  11  -9    0.11    0.10 
   5  12  -9    2.38    0.25 
   5  13  -9    0.17    0.12 
   5  14  -9   -0.15    0.10 
  -5 -15   9    0.13    0.13 
  -5 -16   9    0.27    0.15 
  -5 -17   9    0.04    0.15 
  -5 -18   9    0.19    0.17 
   6 -18  -9   -0.04    0.13 
   6 -17  -9    0.07    0.12 
   6 -16  -9    0.27    0.13 
   6 -15  -9    0.19    0.12 
   6 -14  -9    0.02    0.09 
   6 -13  -9    0.04    0.09 
   6 -12  -9    0.14    0.10 
   6 -11  -9    0.30    0.10 
   6 -10  -9   -0.14    0.07 
   6  -9  -9    1.62    0.15 
   6  -8  -9    2.77    0.19 
   6  -7  -9    0.38    0.09 
   6  -6  -9    9.67    0.42 
   6  -5  -9    0.54    0.06 
   6  -5  -9    0.40    0.08 
   6  -4  -9    1.56    0.10 
   6  -4  -9    1.72    0.13 
   6  -3  -9    0.56    0.07 
   6  -3  -9    0.61    0.09 
   6  -2  -9   15.55    0.61 
   6  -2  -9   15.50    0.61 
   6  -1  -9    1.35    0.11 
   6  -1  -9    1.16    0.11 
   6   0  -9   -0.02    0.04 
   6   0  -9   -0.05    0.05 
   6   1  -9    1.48    0.13 
   6   1  -9    1.06    0.10 
   6   2  -9   15.11    0.59 
   6   2  -9   14.67    0.62 
   6   3  -9    0.43    0.08 
   6   3  -9    0.55    0.09 
   6   4  -9    1.63    0.16 
   6   4  -9    1.77    0.13 
   6   5  -9    0.58    0.11 
   6   5  -9    0.45    0.08 
   6   6  -9   10.20    0.45 
   6   6  -9   10.63    0.49 
   6   7  -9    0.54    0.10 
   6   7  -9    0.47    0.11 
   6   8  -9    3.03    0.21 
   6   8  -9    3.28    0.24 
   6   9  -9    2.13    0.21 
   6  10  -9   -0.04    0.08 
   6  11  -9    0.39    0.12 
   6  12  -9    0.27    0.12 
   6  13  -9    0.05    0.10 
   6  14  -9    0.08    0.11 
   6  15  -9    0.06    0.12 
  -6 -16   9   -0.03    0.13 
  -6 -17   9    0.05    0.15 
  -6 -18   9    0.08    0.18 
   7 -17  -9    0.07    0.13 
   7 -16  -9    0.01    0.11 
   7 -15  -9    0.33    0.13 
   7 -14  -9   -0.01    0.10 
   7 -13  -9    0.25    0.11 
   7 -12  -9    0.45    0.12 
   7 -11  -9   -0.08    0.08 
   7 -10  -9   -0.14    0.07 
   7  -9  -9    2.78    0.20 
   7  -8  -9    0.70    0.11 
   7  -7  -9    0.03    0.07 
   7  -6  -9    2.94    0.19 
   7  -5  -9    1.47    0.10 
   7  -5  -9    1.62    0.14 
   7  -4  -9    0.97    0.09 
   7  -4  -9    0.87    0.10 
   7  -3  -9    0.08    0.05 
   7  -3  -9    0.02    0.05 
   7  -2  -9    1.60    0.13 
   7  -2  -9    1.46    0.11 
   7  -1  -9    0.22    0.06 
   7  -1  -9    0.17    0.05 
   7   0  -9   -0.06    0.04 
   7   0  -9   -0.03    0.03 
   7   1  -9    0.24    0.07 
   7   1  -9    0.16    0.05 
   7   2  -9    1.47    0.11 
   7   2  -9    1.53    0.14 
   7   3  -9    0.14    0.05 
   7   3  -9    0.01    0.06 
   7   4  -9    0.81    0.10 
   7   4  -9    0.71    0.11 
   7   5  -9    1.51    0.16 
   7   5  -9    1.82    0.14 
   7   6  -9    2.95    0.18 
   7   6  -9    2.85    0.21 
   7   7  -9    0.15    0.07 
   7   7  -9    0.00    0.08 
   7   8  -9    0.90    0.13 
   7   8  -9    0.98    0.15 
   7   9  -9    2.73    0.24 
   7   9  -9    3.02    0.21 
   7  10  -9    0.02    0.08 
   7  11  -9    0.12    0.11 
   7  12  -9    0.76    0.17 
   7  13  -9    0.40    0.15 
   7  14  -9    0.07    0.13 
   7  15  -9    0.38    0.15 
   7  16  -9    0.17    0.15 
  -7 -17   9    0.14    0.16 
   8 -17  -9    0.04    0.13 
   8 -16  -9    0.10    0.12 
   8 -15  -9    0.16    0.12 
   8 -14  -9    0.01    0.11 
   8 -13  -9    0.01    0.10 
   8 -12  -9    0.13    0.10 
   8 -11  -9    0.30    0.10 
   8 -10  -9    0.93    0.14 
   8  -9  -9    0.01    0.08 
   8  -8  -9    0.01    0.07 
   8  -7  -9    0.42    0.10 
   8  -6  -9    2.65    0.18 
   8  -5  -9    0.25    0.07 
   8  -5  -9    0.25    0.08 
   8  -4  -9    0.57    0.10 
   8  -4  -9    0.63    0.08 
   8  -3  -9    3.55    0.20 
   8  -3  -9    3.32    0.19 
   8  -2  -9    0.74    0.09 
   8  -2  -9    0.73    0.09 
   8  -1  -9    0.55    0.08 
   8  -1  -9    0.54    0.09 
   8   0  -9    0.05    0.06 
   8   0  -9    0.02    0.04 
   8   1  -9    0.52    0.09 
   8   1  -9    0.43    0.07 
   8   2  -9    0.80    0.09 
   8   2  -9    0.65    0.11 
   8   3  -9    4.04    0.24 
   8   3  -9    3.70    0.20 
   8   4  -9    0.43    0.08 
   8   4  -9    0.54    0.11 
   8   5  -9    0.28    0.07 
   8   5  -9    0.19    0.08 
   8   6  -9    3.06    0.22 
   8   6  -9    2.82    0.18 
   8   7  -9    0.31    0.10 
   8   7  -9    0.39    0.09 
   8   8  -9    0.03    0.08 
   8   8  -9    0.02    0.08 
   8   9  -9    0.03    0.09 
   8   9  -9    0.05    0.09 
   8  10  -9    1.07    0.18 
   8  11  -9    0.46    0.14 
   8  12  -9    0.05    0.11 
   8  13  -9   -0.04    0.11 
   8  14  -9    0.13    0.13 
   8  15  -9    0.20    0.15 
   8  16  -9    0.15    0.15 
   8  17  -9    0.29    0.16 
   9 -16  -9   -0.01    0.12 
   9 -15  -9    0.08    0.13 
   9 -14  -9   -0.12    0.11 
   9 -13  -9    0.35    0.11 
   9 -12  -9    0.30    0.11 
   9 -11  -9    0.07    0.09 
   9 -10  -9    0.22    0.10 
   9  -9  -9    1.16    0.15 
   9  -8  -9    0.15    0.09 
   9  -7  -9    0.53    0.11 
   9  -6  -9    1.83    0.16 
   9  -5  -9    2.09    0.14 
   9  -5  -9    1.58    0.15 
   9  -4  -9    0.01    0.05 
   9  -4  -9    0.01    0.07 
   9  -3  -9    1.24    0.13 
   9  -3  -9    1.31    0.12 
   9  -2  -9    1.84    0.14 
   9  -2  -9    2.01    0.14 
   9  -1  -9    0.02    0.06 
   9  -1  -9    0.09    0.05 
   9   0  -9    0.03    0.06 
   9   0  -9    0.05    0.05 
   9   1  -9    0.01    0.06 
   9   1  -9    0.02    0.04 
   9   2  -9    2.15    0.17 
   9   2  -9    2.14    0.14 
   9   3  -9    1.39    0.12 
   9   3  -9    1.27    0.15 
   9   4  -9    0.03    0.05 
   9   4  -9   -0.01    0.06 
   9   5  -9    1.99    0.14 
   9   5  -9    1.91    0.19 
   9   6  -9    2.35    0.21 
   9   6  -9    2.12    0.15 
   9   7  -9    0.46    0.12 
   9   7  -9    0.97    0.13 
   9   8  -9    0.16    0.09 
   9   8  -9    0.11    0.09 
   9   9  -9    1.35    0.19 
   9   9  -9    1.74    0.17 
   9  10  -9    0.31    0.11 
   9  11  -9    0.08    0.10 
   9  12  -9    0.28    0.13 
   9  13  -9    0.36    0.15 
   9  14  -9   -0.09    0.12 
   9  15  -9    0.15    0.14 
   9  16  -9    0.09    0.15 
  10 -16  -9   -0.11    0.11 
  10 -15  -9    0.43    0.13 
  10 -14  -9    0.11    0.10 
  10 -13  -9    0.12    0.10 
  10 -12  -9    0.11    0.10 
  10 -11  -9   -0.17    0.07 
  10 -10  -9    0.15    0.10 
  10  -9  -9    0.22    0.09 
  10  -8  -9    1.08    0.14 
  10  -7  -9    1.44    0.15 
  10  -6  -9    0.03    0.08 
  10  -5  -9    0.20    0.08 
  10  -5  -9    0.03    0.06 
  10  -4  -9    0.30    0.09 
  10  -4  -9    0.33    0.08 
  10  -3  -9    1.25    0.13 
  10  -3  -9    1.58    0.14 
  10  -2  -9    0.06    0.06 
  10  -2  -9    0.22    0.08 
  10  -1  -9   -0.11    0.06 
  10   0  -9   -0.06    0.04 
  10   0  -9   -0.04    0.05 
  10   1  -9    0.03    0.05 
  10   1  -9    0.06    0.07 
  10   2  -9    0.18    0.08 
  10   2  -9    0.22    0.06 
  10   3  -9    1.38    0.12 
  10   3  -9    1.40    0.16 
  10   4  -9    0.24    0.09 
  10   4  -9    0.26    0.07 
  10   5  -9    0.14    0.06 
  10   5  -9    0.09    0.08 
  10   6  -9    0.01    0.08 
  10   6  -9    0.12    0.07 
  10   7  -9    1.65    0.16 
  10   7  -9    1.56    0.19 
  10   8  -9    1.15    0.14 
  10   8  -9    0.84    0.15 
  10   9  -9    0.42    0.12 
  10   9  -9    0.18    0.11 
  10  10  -9    0.54    0.14 
  10  11  -9    0.11    0.11 
  10  12  -9    0.07    0.10 
  10  13  -9    0.20    0.14 
  10  14  -9    0.19    0.14 
  10  15  -9    0.42    0.18 
  10  16  -9    0.29    0.16 
  11 -15  -9    0.00    0.10 
  11 -14  -9    0.26    0.12 
  11 -13  -9    0.04    0.11 
  11 -12  -9    0.09    0.10 
  11 -11  -9    0.18    0.11 
  11 -10  -9    0.01    0.09 
  11  -9  -9    0.20    0.10 
  11  -8  -9   -0.03    0.08 
  11  -7  -9    0.12    0.09 
  11  -6  -9    1.00    0.14 
  11  -5  -9    2.25    0.17 
  11  -5  -9    2.50    0.19 
  11  -4  -9    0.14    0.08 
  11  -4  -9   -0.02    0.06 
  11  -3  -9    0.19    0.08 
  11  -3  -9    0.12    0.07 
  11  -2  -9    1.90    0.15 
  11  -2  -9    2.25    0.16 
  11  -1  -9    0.27    0.09 
  11  -1  -9    0.35    0.09 
  11   0  -9   -0.04    0.07 
  11   0  -9   -0.05    0.06 
  11   1  -9    0.46    0.11 
  11   1  -9    0.23    0.08 
  11   2  -9    1.77    0.18 
  11   2  -9    1.84    0.14 
  11   3  -9    0.17    0.07 
  11   3  -9    0.17    0.09 
  11   4  -9    0.00    0.07 
  11   4  -9    0.08    0.06 
  11   5  -9    2.10    0.21 
  11   5  -9    1.93    0.16 
  11   6  -9    1.25    0.18 
  11   6  -9    1.54    0.15 
  11   7  -9   -0.05    0.09 
  11   7  -9    0.13    0.09 
  11   8  -9    0.02    0.09 
  11   8  -9    0.14    0.10 
  11   9  -9    0.06    0.11 
  11   9  -9    0.08    0.09 
  11  10  -9   -0.12    0.09 
  11  11  -9    0.45    0.15 
  11  12  -9    0.15    0.13 
  11  13  -9    0.11    0.13 
  11  14  -9    0.26    0.15 
  11  15  -9    0.10    0.14 
  12 -15  -9    0.15    0.11 
  12 -14  -9   -0.02    0.10 
  12 -13  -9    0.44    0.13 
  12 -12  -9    0.13    0.11 
  12 -11  -9    0.02    0.10 
  12 -10  -9   -0.03    0.09 
  12  -9  -9    0.16    0.10 
  12  -8  -9    1.11    0.15 
  12  -7  -9    0.75    0.14 
  12  -6  -9    0.11    0.09 
  12  -5  -9    1.89    0.17 
  12  -5  -9    1.81    0.16 
  12  -4  -9    0.31    0.10 
  12  -4  -9    0.18    0.09 
  12  -3  -9   -0.07    0.07 
  12  -3  -9    0.06    0.08 
  12  -2  -9    0.48    0.10 
  12  -2  -9    0.37    0.10 
  12  -1  -9    0.07    0.08 
  12  -1  -9    0.08    0.08 
  12   0  -9   -0.05    0.07 
  12   0  -9    0.08    0.08 
  12   1  -9    0.12    0.07 
  12   1  -9    0.14    0.09 
  12   2  -9    0.46    0.11 
  12   2  -9    0.31    0.09 
  12   3  -9    0.08    0.08 
  12   3  -9   -0.01    0.09 
  12   4  -9    0.20    0.09 
  12   4  -9    0.36    0.11 
  12   5  -9    1.99    0.17 
  12   5  -9    2.00    0.21 
  12   6  -9    0.10    0.10 
  12   6  -9    0.07    0.09 
  12   7  -9    0.66    0.15 
  12   8  -9    0.83    0.17 
  12   9  -9    0.33    0.13 
  12  10  -9   -0.01    0.11 
  12  11  -9    0.06    0.13 
  12  12  -9    0.15    0.13 
  12  13  -9    0.54    0.18 
  12  14  -9    0.16    0.14 
  12  15  -9    0.08    0.13 
  13 -14  -9   -0.03    0.11 
  13 -13  -9    0.01    0.11 
  13 -12  -9    0.11    0.11 
  13 -11  -9    0.24    0.12 
  13 -10  -9    0.17    0.12 
  13  -9  -9    0.01    0.10 
  13  -8  -9    0.07    0.10 
  13  -7  -9    0.18    0.11 
  13  -6  -9    0.73    0.13 
  13  -5  -9    0.10    0.10 
  13  -4  -9    0.70    0.13 
  13  -4  -9    0.69    0.13 
  13  -3  -9    0.24    0.10 
  13  -3  -9    0.36    0.11 
  13  -2  -9    1.33    0.15 
  13  -2  -9    1.59    0.17 
  13  -1  -9    0.22    0.09 
  13  -1  -9    0.32    0.10 
  13   0  -9   -0.08    0.08 
  13   0  -9    0.19    0.09 
  13   1  -9    0.35    0.10 
  13   1  -9    0.23    0.11 
  13   2  -9    1.46    0.19 
  13   2  -9    1.51    0.15 
  13   3  -9    0.33    0.11 
  13   3  -9    0.30    0.10 
  13   4  -9    0.66    0.11 
  13   4  -9    0.49    0.13 
  13   5  -9    0.06    0.10 
  13   6  -9    0.55    0.15 
  13   7  -9    0.32    0.12 
  13   8  -9    0.14    0.12 
  13   9  -9    0.20    0.13 
  13  10  -9   -0.07    0.12 
  13  11  -9    0.14    0.14 
  13  12  -9   -0.10    0.11 
  13  13  -9    0.03    0.12 
  13  14  -9    0.24    0.14 
  14 -13  -9    0.35    0.12 
  14 -12  -9   -0.03    0.11 
  14 -11  -9    0.02    0.11 
  14 -10  -9    0.29    0.13 
  14  -9  -9    0.21    0.12 
  14  -8  -9    0.13    0.12 
  14  -7  -9    0.50    0.13 
  14  -6  -9    0.13    0.10 
  14  -5  -9    0.23    0.11 
  14  -4  -9    0.03    0.09 
  14  -4  -9    0.17    0.10 
  14  -3  -9    0.14    0.09 
  14  -3  -9    0.03    0.09 
  14  -2  -9   -0.02    0.09 
  14  -2  -9    0.09    0.09 
  14  -1  -9    0.78    0.14 
  14  -1  -9    0.65    0.13 
  14   0  -9    0.04    0.08 
  14   0  -9    0.01    0.09 
  14   1  -9    0.69    0.11 
  14   1  -9    0.60    0.14 
  14   2  -9   -0.05    0.09 
  14   2  -9   -0.02    0.09 
  14   3  -9    0.10    0.10 
  14   4  -9   -0.05    0.09 
  14   5  -9    0.24    0.12 
  14   6  -9    0.18    0.11 
  14   7  -9    0.22    0.13 
  14   8  -9    0.09    0.11 
  14   9  -9    0.00    0.12 
  14  10  -9    0.07    0.13 
  14  11  -9    0.15    0.16 
  14  12  -9    0.18    0.14 
  14  13  -9    0.18    0.14 
  15 -12  -9    0.27    0.13 
  15 -11  -9    0.06    0.12 
  15 -10  -9   -0.12    0.11 
  15  -9  -9    0.22    0.13 
  15  -8  -9    0.26    0.13 
  15  -7  -9    0.05    0.11 
  15  -6  -9    0.24    0.11 
  15  -5  -9   -0.10    0.10 
  15  -4  -9    0.22    0.12 
  15  -4  -9    0.25    0.11 
  15  -3  -9   -0.04    0.08 
  15  -3  -9   -0.07    0.09 
  15  -2  -9    0.06    0.09 
  15  -2  -9    0.07    0.10 
  15  -1  -9    0.12    0.10 
  15  -1  -9    0.06    0.10 
  15   0  -9    0.00    0.09 
  15   0  -9   -0.03    0.09 
  15   1  -9    0.10    0.10 
  15   2  -9    0.07    0.11 
  15   3  -9    0.00    0.10 
  15   4  -9    0.07    0.11 
  15   5  -9    0.08    0.11 
  15   6  -9    0.08    0.12 
  15   7  -9   -0.08    0.11 
  15   8  -9    0.16    0.14 
  15   9  -9    0.17    0.15 
  15  10  -9    0.00    0.14 
  15  11  -9    0.09    0.16 
  15  12  -9    0.29    0.13 
  16 -11  -9   -0.08    0.12 
  16 -10  -9    0.12    0.13 
  16  -9  -9    0.14    0.13 
  16  -8  -9   -0.05    0.12 
  16  -7  -9   -0.05    0.10 
  16  -6  -9    0.01    0.11 
  16  -5  -9    0.05    0.11 
  16  -4  -9    0.19    0.11 
  16  -3  -9    0.06    0.10 
  16  -3  -9    0.13    0.11 
  16  -2  -9    0.09    0.10 
  16  -1  -9    0.04    0.10 
  16   0  -9    0.12    0.11 
  16   1  -9    0.04    0.12 
  16   2  -9    0.01    0.10 
  16   3  -9   -0.03    0.11 
  16   4  -9    0.02    0.11 
  16   5  -9    0.08    0.12 
  16   6  -9    0.02    0.13 
  16   7  -9    0.04    0.13 
  16   8  -9    0.00    0.14 
  16   9  -9    0.24    0.17 
  16  10  -9   -0.18    0.14 
  16  11  -9   -0.14    0.14 
  17  -9  -9    0.20    0.14 
  17  -8  -9    0.29    0.14 
  17  -7  -9    0.30    0.14 
  17  -6  -9   -0.03    0.13 
  17  -5  -9   -0.05    0.12 
  17  -3  -9    0.07    0.11 
  17  -2  -9   -0.10    0.10 
  17  -1  -9   -0.02    0.10 
  17   0  -9    0.20    0.13 
  17   1  -9    0.10    0.13 
  17   2  -9    0.06    0.12 
  17   3  -9    0.06    0.13 
  17   4  -9    0.05    0.12 
  17   5  -9   -0.21    0.11 
  17   6  -9    0.09    0.15 
  17   7  -9    0.16    0.16 
  17   8  -9    0.12    0.17 
  17   9  -9   -0.07    0.15 
  18  -2  -9   -0.17    0.11 
  18  -1  -9   -0.11    0.12 
  18   0  -9   -0.03    0.13 
  18   1  -9    0.03    0.13 
  18   2  -9    0.11    0.14 
  18   3  -9    0.30    0.16 
  18   4  -9   -0.04    0.14 
  18   5  -9    0.04    0.15 
  18   6  -9    0.06    0.16 
  18   7  -9   -0.20    0.14 
  19  -2  -9   -0.09    0.13 
  19  -1  -9    0.01    0.15 
  19   0  -9   -0.09    0.14 
  19   1  -9    0.13    0.16 
  19   2  -9    0.04    0.15 
  19   3  -9    0.07    0.16 
  19   4  -9   -0.05    0.15 
  19   5  -9    0.20    0.17 
  19   3  10    0.15    0.10 
  19   2  10    0.12    0.11 
  19   1  10    0.06    0.10 
  19   0  10    0.39    0.13 
  19  -1  10    0.19    0.10 
  19  -2  10    0.18    0.10 
  19  -3  10    0.19    0.10 
  18   6  10    0.01    0.10 
 -18  -6 -10    0.00    0.15 
  18   5  10    0.02    0.10 
 -18  -5 -10   -0.16    0.13 
  18   4  10    0.07    0.10 
 -18  -4 -10   -0.23    0.14 
  18   3  10    0.12    0.11 
  18   2  10   -0.05    0.10 
  18   1  10    0.34    0.13 
  18   0  10    0.08    0.11 
  18  -1  10    0.20    0.11 
  18  -2  10    0.14    0.11 
  18  -3  10    0.22    0.11 
  18  -4  10    0.00    0.10 
  18  -5  10    0.00    0.14 
  18  -6  10    0.00    0.15 
  17   8  10    0.43    0.14 
 -17  -8 -10   -0.12    0.14 
  17   7  10    0.07    0.11 
 -17  -7 -10    0.11    0.16 
  17   6  10    0.23    0.12 
 -17  -6 -10    0.23    0.16 
  17   5  10    0.19    0.11 
 -17  -5 -10   -0.02    0.13 
  17   4  10    0.07    0.09 
 -17  -4 -10   -0.14    0.13 
  17   3  10    0.15    0.11 
 -17  -3 -10   -0.14    0.13 
  17   2  10    0.26    0.12 
  17   1  10    0.08    0.10 
  17   0  10    0.15    0.10 
  17  -1  10    0.09    0.09 
  17  -2  10    0.17    0.11 
  17  -3  10    0.23    0.10 
  17  -4  10    0.12    0.11 
  17  -5  10   -0.09    0.14 
  17  -6  10    0.03    0.16 
  17  -7  10    0.03    0.12 
  17  -8  10    0.01    0.15 
 -16 -10 -10    0.07    0.15 
  16   9  10    0.13    0.13 
 -16  -9 -10    0.17    0.17 
  16   8  10    0.04    0.11 
 -16  -8 -10    0.10    0.15 
  16   7  10    0.43    0.13 
 -16  -7 -10    0.28    0.15 
  16   6  10   -0.07    0.10 
 -16  -6 -10    0.12    0.13 
  16   5  10    0.05    0.10 
 -16  -5 -10   -0.17    0.12 
  16   4  10    0.08    0.10 
 -16  -4 -10    0.01    0.12 
  16   3  10    0.39    0.13 
 -16  -3 -10    0.34    0.15 
  16   2  10    0.04    0.10 
 -16  -2 -10    0.01    0.12 
  16   1  10    0.57    0.13 
  16   0  10    0.25    0.11 
  16  -1  10    0.31    0.12 
  16  -2  10    0.16    0.11 
  16  -3  10    0.36    0.13 
  16  -4  10   -0.14    0.09 
  16  -5  10    0.11    0.13 
  16  -6  10    0.07    0.14 
  16  -7  10    0.15    0.14 
  16  -8  10    0.07    0.15 
  16  -9  10   -0.07    0.14 
  16 -10  10    0.12    0.16 
 -15 -11 -10    0.10    0.15 
 -15 -10 -10   -0.01    0.14 
  15   9  10    0.47    0.14 
 -15  -9 -10    0.21    0.15 
  15   8  10   -0.03    0.10 
 -15  -8 -10   -0.01    0.13 
  15   7  10    0.07    0.10 
 -15  -7 -10   -0.08    0.12 
  15   6  10    0.02    0.10 
 -15  -6 -10    0.17    0.13 
  15   5  10    0.12    0.10 
 -15  -5 -10   -0.01    0.11 
  15   4  10    0.18    0.10 
 -15  -4 -10    0.19    0.13 
  15   3  10    0.16    0.10 
 -15  -3 -10    0.09    0.12 
  15   2  10    0.06    0.09 
 -15  -2 -10   -0.07    0.11 
  15   1  10   -0.03    0.08 
  15   0  10    0.53    0.12 
  15  -1  10    0.07    0.09 
  15  -2  10    0.05    0.09 
  15  -3  10    0.18    0.11 
  15  -4  10    0.21    0.10 
  15  -5  10    0.19    0.11 
  15  -6  10    0.06    0.13 
  15  -7  10    0.11    0.13 
  15  -8  10   -0.03    0.13 
  15  -9  10    0.23    0.15 
  15 -10  10   -0.17    0.14 
  15 -11  10   -0.03    0.15 
 -14 -12 -10    0.03    0.15 
 -14 -11 -10    0.71    0.19 
 -14 -10 -10    0.09    0.14 
  14   9  10    0.14    0.10 
 -14  -9 -10    0.15    0.14 
  14   8  10    0.09    0.09 
 -14  -8 -10    0.10    0.13 
  14   7  10    0.55    0.12 
 -14  -7 -10    0.76    0.17 
  14   6  10    0.14    0.09 
 -14  -6 -10    0.01    0.11 
  14   5  10    0.19    0.10 
 -14  -5 -10    0.18    0.12 
  14   4  10    0.01    0.09 
 -14  -4 -10   -0.05    0.11 
  14   3  10    0.56    0.12 
 -14  -3 -10    0.27    0.12 
  14   2  10    0.05    0.08 
 -14  -2 -10   -0.05    0.09 
  14   1  10    0.41    0.11 
 -14  -1 -10    0.44    0.14 
  14   0  10    0.58    0.12 
  14  -1  10    0.52    0.12 
  14  -2  10    0.09    0.10 
  14  -3  10    0.51    0.13 
  14  -4  10   -0.10    0.08 
  14  -5  10    0.15    0.10 
  14  -6  10    0.13    0.12 
  14  -7  10    0.62    0.16 
  14  -8  10    0.12    0.12 
  14  -9  10    0.18    0.14 
  14 -10  10    0.38    0.16 
  14 -11  10    0.56    0.17 
  14 -12  10    0.07    0.16 
  14 -12  10    0.04    0.15 
 -13 -13 -10    0.17    0.16 
 -13 -12 -10   -0.26    0.12 
 -13 -11 -10   -0.03    0.14 
 -13 -10 -10    0.05    0.12 
  13   9  10    0.10    0.10 
 -13  -9 -10   -0.02    0.12 
  13   8  10    0.10    0.09 
 -13  -8 -10    0.01    0.11 
  13   7  10    0.09    0.08 
 -13  -7 -10   -0.06    0.10 
  13   6  10   -0.06    0.08 
 -13  -6 -10    0.01    0.10 
  13   5  10    0.22    0.09 
 -13  -5 -10    0.03    0.10 
  13   4  10    0.15    0.09 
 -13  -4 -10    0.11    0.11 
  13   3  10    0.23    0.10 
 -13  -3 -10    0.35    0.12 
  13   2  10    0.09    0.09 
 -13  -2 -10    0.16    0.11 
  13   1  10   -0.11    0.07 
 -13  -1 -10   -0.05    0.08 
  13   0  10    0.31    0.11 
 -13   0 -10    0.43    0.12 
  13  -1  10    0.09    0.09 
  13  -2  10    0.29    0.10 
  13  -3  10    0.23    0.10 
  13  -4  10   -0.04    0.08 
  13  -5  10    0.06    0.09 
  13  -6  10   -0.11    0.10 
  13  -7  10    0.05    0.11 
  13  -8  10    0.30    0.13 
  13  -9  10   -0.07    0.12 
  13 -10  10   -0.11    0.12 
  13 -11  10    0.14    0.14 
  13 -12  10    0.24    0.16 
  13 -13  10   -0.07    0.15 
 -12 -14 -10   -0.06    0.14 
 -12 -13 -10   -0.10    0.13 
 -12 -12 -10    0.22    0.15 
 -12 -11 -10    0.40    0.15 
 -12 -10 -10    0.26    0.14 
  12   9  10    0.08    0.10 
 -12  -9 -10    0.02    0.11 
  12   8  10    0.03    0.08 
 -12  -8 -10    0.14    0.11 
  12   7  10    1.12    0.16 
 -12  -7 -10    1.10    0.18 
  12   6  10    0.01    0.08 
 -12  -6 -10    0.07    0.10 
  12   5  10    0.73    0.13 
 -12  -5 -10    0.88    0.15 
  12   4  10    0.10    0.08 
 -12  -4 -10    0.05    0.09 
  12   3  10    0.30    0.10 
 -12  -3 -10    0.32    0.12 
  12   2  10    0.35    0.10 
 -12  -2 -10    0.31    0.11 
  12   1  10    2.36    0.20 
 -12  -1 -10    1.75    0.20 
  12   0  10    1.42    0.17 
 -12   0 -10    1.43    0.18 
  12  -1  10    1.93    0.19 
  12  -2  10    0.42    0.11 
  12  -3  10    0.08    0.08 
  12  -4  10   -0.01    0.08 
  12  -5  10    0.66    0.13 
  12  -6  10    0.03    0.10 
  12  -7  10    0.78    0.16 
  12  -8  10    0.03    0.11 
  12  -9  10    0.05    0.12 
  12 -10  10    0.46    0.14 
  12 -11  10    0.29    0.14 
  12 -12  10    0.12    0.15 
  12 -13  10    0.06    0.14 
  12 -14  10   -0.08    0.14 
 -11 -15 -10   -0.02    0.15 
 -11 -14 -10   -0.08    0.13 
 -11 -13 -10    0.01    0.13 
 -11 -12 -10    0.00    0.13 
 -11 -11 -10    0.21    0.13 
 -11 -10 -10   -0.01    0.11 
  11   9  10    0.17    0.11 
 -11  -9 -10    0.31    0.12 
  11   8  10    0.32    0.10 
 -11  -8 -10    0.14    0.11 
  11   7  10   -0.04    0.08 
 -11  -7 -10    0.17    0.11 
  11   6  10    0.14    0.09 
 -11  -6 -10    0.19    0.10 
  11   5  10   -0.02    0.07 
 -11  -5 -10   -0.05    0.08 
  11   4  10    0.04    0.07 
 -11  -4 -10   -0.04    0.08 
  11   3  10    0.09    0.08 
 -11  -3 -10   -0.06    0.08 
  11   2  10   -0.06    0.06 
 -11  -2 -10    0.09    0.09 
  11   1  10    0.65    0.12 
 -11  -1 -10    0.52    0.12 
  11   0  10    0.48    0.10 
 -11   0 -10    0.37    0.11 
  11  -1  10    0.43    0.11 
 -11   1 -10    0.43    0.11 
  11  -2  10   -0.02    0.07 
  11  -3  10    0.00    0.08 
  11  -4  10   -0.08    0.07 
  11  -5  10   -0.06    0.07 
  11  -6  10    0.28    0.11 
  11  -7  10    0.02    0.10 
  11  -8  10    0.11    0.10 
  11  -9  10    0.39    0.13 
  11 -10  10   -0.04    0.10 
  11 -11  10    0.10    0.12 
  11 -12  10    0.05    0.12 
  11 -13  10    0.10    0.14 
  11 -14  10   -0.12    0.14 
  11 -15  10   -0.06    0.14 
 -10 -15 -10    0.20    0.16 
 -10 -14 -10    0.09    0.14 
 -10 -13 -10    0.06    0.13 
 -10 -12 -10    0.35    0.15 
 -10 -11 -10    0.64    0.16 
 -10 -10 -10    0.68    0.15 
  10   9  10    0.12    0.09 
 -10  -9 -10   -0.04    0.09 
  10   8  10    0.27    0.10 
 -10  -8 -10    0.58    0.13 
  10   7  10    1.38    0.15 
 -10  -7 -10    1.46    0.17 
  10   6  10    1.28    0.15 
 -10  -6 -10    1.76    0.18 
  10   5  10    0.19    0.08 
 -10  -5 -10    0.16    0.10 
  10   4  10    1.36    0.14 
 -10  -4 -10    1.14    0.15 
  10   3  10    1.41    0.14 
 -10  -3 -10    1.16    0.15 
  10   2  10   -0.04    0.06 
 -10  -2 -10    0.06    0.08 
  10   1  10    0.86    0.12 
 -10  -1 -10    0.56    0.12 
  10   0  10    0.40    0.09 
 -10   0 -10    0.36    0.10 
  10  -1  10    0.83    0.12 
 -10   1 -10    0.72    0.13 
  10  -2  10   -0.11    0.06 
  10  -3  10    1.66    0.16 
  10  -4  10    1.12    0.15 
  10  -5  10    0.22    0.10 
  10  -6  10    1.24    0.16 
  10  -7  10    1.47    0.18 
  10  -8  10    0.26    0.12 
  10  -9  10    0.17    0.11 
  10 -10  10    0.55    0.15 
  10 -11  10    0.50    0.14 
  10 -12  10    0.03    0.12 
  10 -13  10    0.18    0.14 
  10 -14  10    0.34    0.16 
  10 -15  10    0.12    0.15 
  -9 -16 -10    0.06    0.15 
  -9 -15 -10   -0.05    0.13 
  -9 -14 -10   -0.08    0.13 
  -9 -13 -10   -0.04    0.12 
  -9 -12 -10   -0.09    0.11 
  -9 -11 -10    0.49    0.14 
  -9 -10 -10   -0.08    0.09 
   9   9  10    1.35    0.15 
  -9  -9 -10    1.55    0.18 
   9   8  10    0.33    0.09 
  -9  -8 -10    0.37    0.11 
   9   7  10    0.23    0.08 
  -9  -7 -10    0.20    0.10 
   9   6  10    0.65    0.10 
  -9  -6 -10    0.47    0.12 
   9   5  10    0.50    0.09 
  -9  -5 -10    0.46    0.11 
   9   4  10    1.02    0.12 
  -9  -4 -10    1.26    0.15 
   9   3  10    1.12    0.12 
  -9  -3 -10    1.04    0.14 
   9   2  10    0.57    0.10 
  -9  -2 -10    0.74    0.12 
   9   1  10    1.49    0.14 
  -9  -1 -10    1.86    0.17 
   9   0  10    0.90    0.12 
  -9   0 -10    0.87    0.13 
   9  -1  10    1.61    0.15 
  -9   1 -10    1.41    0.15 
   9  -2  10    0.67    0.11 
   9  -3  10    1.16    0.14 
   9  -4  10    0.82    0.13 
   9  -5  10    0.57    0.12 
   9  -6  10    0.62    0.12 
   9  -7  10    0.33    0.10 
   9  -8  10    0.36    0.12 
   9  -9  10    1.19    0.17 
   9 -10  10   -0.03    0.10 
   9 -11  10    0.41    0.14 
   9 -12  10   -0.14    0.10 
   9 -13  10    0.07    0.13 
   9 -14  10   -0.08    0.14 
   9 -15  10   -0.02    0.15 
   9 -16  10    0.07    0.16 
  -8 -16 -10    0.23    0.16 
  -8 -15 -10    0.14    0.14 
  -8 -14 -10    0.19    0.13 
  -8 -13 -10    0.26    0.13 
  -8 -12 -10    0.07    0.11 
  -8 -11 -10    0.15    0.11 
  -8 -10 -10    0.45    0.13 
  -8  -9 -10    0.04    0.09 
  -8  -8 -10    1.85    0.19 
   8   7  10    0.48    0.09 
  -8  -7 -10    0.44    0.11 
   8   6  10    0.02    0.06 
  -8  -6 -10   -0.10    0.07 
   8   5  10   -0.02    0.05 
  -8  -5 -10   -0.06    0.07 
   8   4  10    1.66    0.14 
  -8  -4 -10    1.55    0.16 
   8   3  10    1.98    0.14 
  -8  -3 -10    1.92    0.12 
  -8  -3 -10    2.01    0.17 
   8   2  10    1.32    0.13 
  -8  -2 -10    1.37    0.15 
  -8  -2 -10    1.33    0.10 
   8   1  10    0.04    0.05 
  -8  -1 -10    0.03    0.07 
   8   0  10    1.44    0.14 
  -8   0 -10    1.47    0.15 
   8  -1  10    0.05    0.06 
  -8   1 -10    0.17    0.08 
   8  -2  10    1.26    0.13 
  -8   2 -10    1.06    0.13 
   8  -3  10    1.90    0.15 
   8  -4  10    1.50    0.15 
   8  -5  10   -0.05    0.07 
   8  -6  10    0.01    0.07 
   8  -7  10    0.56    0.12 
   8  -8  10    2.16    0.21 
   8  -9  10    0.09    0.10 
   8 -10  10    0.58    0.14 
   8 -11  10    0.04    0.10 
   8 -12  10    0.25    0.12 
   8 -13  10    0.50    0.15 
   8 -14  10    0.29    0.15 
   8 -15  10    0.20    0.15 
   8 -16  10    0.04    0.15 
  -7 -17 -10    0.15    0.16 
  -7 -16 -10    0.03    0.14 
  -7 -15 -10   -0.11    0.12 
  -7 -14 -10   -0.02    0.12 
  -7 -13 -10   -0.11    0.10 
  -7 -12 -10    0.07    0.10 
  -7 -11 -10    0.09    0.10 
  -7 -10 -10    0.04    0.08 
  -7  -9 -10    0.16    0.09 
   7   8  10    0.53    0.09 
  -7  -8 -10    0.51    0.12 
   7   7  10   -0.01    0.04 
  -7  -7 -10   -0.03    0.08 
   7   6  10    0.15    0.06 
  -7  -6 -10    0.06    0.08 
   7   5  10    0.35    0.08 
  -7  -5 -10    0.31    0.06 
  -7  -5 -10    0.33    0.10 
   7   4  10    4.20    0.22 
  -7  -4 -10    4.29    0.20 
  -7  -4 -10    4.61    0.26 
   7   3  10    0.15    0.06 
  -7  -3 -10    0.08    0.05 
  -7  -3 -10    0.11    0.08 
   7   2  10    3.32    0.19 
  -7  -2 -10    2.88    0.20 
  -7  -2 -10    3.49    0.17 
   7   1  10    0.18    0.06 
  -7  -1 -10    0.11    0.06 
  -7  -1 -10    0.11    0.05 
   7   0  10    5.24    0.27 
  -7   0 -10    5.31    0.28 
  -7   0 -10    5.80    0.25 
   7  -1  10    0.06    0.05 
  -7   1 -10    0.11    0.05 
   7  -2  10    3.31    0.20 
  -7   2 -10    3.13    0.20 
   7  -3  10    0.01    0.06 
   7  -4  10    3.98    0.24 
   7  -5  10    0.53    0.11 
   7  -6  10    0.09    0.08 
   7  -7  10    0.07    0.08 
   7  -8  10    0.45    0.11 
   7  -9  10    0.15    0.10 
   7 -10  10    0.03    0.09 
   7 -11  10    0.26    0.12 
   7 -12  10   -0.08    0.09 
   7 -13  10   -0.05    0.11 
   7 -14  10   -0.09    0.11 
   7 -15  10   -0.04    0.13 
   7 -16  10    0.03    0.15 
   7 -17  10    0.05    0.17 
  -6 -17 -10    0.14    0.17 
  -6 -16 -10   -0.16    0.13 
  -6 -15 -10    0.02    0.14 
  -6 -14 -10    0.58    0.16 
  -6 -13 -10    0.03    0.10 
  -6 -12 -10    0.23    0.11 
  -6 -11 -10    1.18    0.17 
  -6 -10 -10   -0.09    0.08 
  -6  -9 -10    0.81    0.14 
   6   8  10   -0.03    0.05 
  -6  -8 -10    0.03    0.08 
   6   7  10    2.47    0.16 
  -6  -7 -10    2.50    0.20 
  -6  -7 -10    2.35    0.14 
   6   6  10    0.61    0.08 
  -6  -6 -10    0.49    0.07 
  -6  -6 -10    0.47    0.10 
   6   5  10    0.02    0.03 
  -6  -5 -10    0.06    0.04 
  -6  -5 -10    0.03    0.07 
   6   4  10   16.29    0.62 
  -6  -4 -10   15.34    0.59 
  -6  -4 -10   14.80    0.65 
   6   3  10    2.44    0.15 
  -6  -3 -10    2.22    0.13 
  -6  -3 -10    2.35    0.16 
   6   2  10    0.31    0.06 
  -6  -2 -10    0.31    0.07 
  -6  -2 -10    0.27    0.06 
   6   1  10    1.38    0.11 
  -6  -1 -10    1.14    0.10 
  -6  -1 -10    1.37    0.12 
   6   0  10    1.45    0.13 
  -6   0 -10    1.50    0.12 
  -6   0 -10    1.52    0.11 
   6  -1  10    1.12    0.11 
  -6   1 -10    1.20    0.12 
  -6   1 -10    1.13    0.10 
   6  -2  10    0.35    0.08 
  -6   2 -10    0.32    0.08 
  -6   2 -10    0.34    0.07 
   6  -3  10    2.45    0.17 
   6  -4  10   16.16    0.67 
   6  -5  10   -0.01    0.06 
   6  -6  10    0.63    0.11 
   6  -7  10    2.39    0.19 
   6  -8  10   -0.11    0.07 
   6  -9  10    0.67    0.13 
   6 -10  10   -0.13    0.08 
   6 -11  10    1.35    0.18 
   6 -12  10    0.21    0.11 
   6 -13  10    0.08    0.12 
   6 -14  10    0.56    0.15 
   6 -15  10    0.18    0.14 
   6 -16  10   -0.10    0.14 
   6 -17  10   -0.10    0.15 
  -5 -17 -10    0.09    0.16 
  -5 -16 -10   -0.01    0.13 
  -5 -15 -10   -0.01    0.13 
  -5 -14 -10    0.14    0.12 
  -5 -13 -10    0.17    0.12 
  -5 -12 -10    0.60    0.14 
  -5 -11 -10    0.53    0.14 
  -5 -10 -10    0.66    0.09 
  -5 -10 -10    0.91    0.15 
  -5  -9 -10    0.44    0.07 
  -5  -9 -10    0.38    0.11 
   5   8  10    0.69    0.09 
  -5  -8 -10    0.42    0.07 
  -5  -8 -10    0.57    0.12 
   5   7  10    4.03    0.20 
  -5  -7 -10    4.31    0.26 
  -5  -7 -10    4.09    0.20 
   5   6  10    0.27    0.06 
  -5  -6 -10    0.35    0.06 
  -5  -6 -10    0.33    0.09 
   5   5  10    0.01    0.04 
  -5  -5 -10    0.04    0.05 
  -5  -5 -10    0.08    0.04 
   5   4  10    0.02    0.03 
  -5  -4 -10    0.16    0.07 
  -5  -4 -10    0.23    0.05 
   5   3  10    5.37    0.25 
  -5  -3 -10    5.57    0.28 
  -5  -3 -10    5.45    0.24 
   5   2  10    2.19    0.13 
  -5  -2 -10    2.06    0.13 
  -5  -2 -10    1.99    0.14 
   5   1  10    0.17    0.05 
  -5  -1 -10    0.13    0.06 
  -5  -1 -10    0.18    0.05 
   5   0  10    4.85    0.23 
  -5   0 -10    4.57    0.22 
  -5   0 -10    4.60    0.24 
   5  -1  10    0.11    0.06 
  -5   1 -10    0.33    0.07 
  -5   1 -10    0.20    0.06 
   5  -2  10    2.22    0.15 
  -5   2 -10    2.25    0.15 
  -5   2 -10    2.14    0.15 
   5  -3  10    5.60    0.28 
  -5   3 -10    5.71    0.28 
   5  -4  10    0.20    0.07 
   5  -5  10   -0.04    0.06 
   5  -6  10    0.30    0.09 
   5  -7  10    3.92    0.24 
   5  -8  10    0.51    0.11 
   5  -9  10    0.30    0.10 
   5 -10  10    0.81    0.14 
   5 -11  10    0.51    0.13 
   5 -12  10    0.50    0.14 
   5 -13  10    0.17    0.12 
   5 -14  10    0.15    0.13 
   5 -15  10    0.02    0.13 
   5 -16  10    0.29    0.16 
   5 -17  10    0.05    0.16 
  -4 -18 -10    0.18    0.18 
  -4 -17 -10    0.30    0.18 
  -4 -16 -10    0.21    0.14 
  -4 -15 -10    0.08    0.14 
  -4 -14 -10    2.27    0.24 
  -4 -13 -10    0.03    0.10 
  -4 -12 -10    0.50    0.09 
  -4 -12 -10    0.55    0.14 
  -4 -11 -10    3.87    0.27 
  -4 -11 -10    3.72    0.21 
  -4 -10 -10    1.94    0.14 
  -4 -10 -10    1.88    0.19 
  -4  -9 -10    2.84    0.22 
  -4  -9 -10    3.17    0.18 
  -4  -8 -10    0.77    0.09 
  -4  -8 -10    0.90    0.13 
   4   7  10    0.10    0.04 
  -4  -7 -10    0.16    0.05 
  -4  -7 -10    0.11    0.08 
   4   6  10    3.68    0.17 
  -4  -6 -10    3.22    0.21 
  -4  -6 -10    3.45    0.18 
   4   5  10    0.08    0.04 
  -4  -5 -10    0.00    0.05 
  -4  -5 -10    0.05    0.04 
   4   4  10   12.23    0.48 
  -4  -4 -10   11.67    0.47 
  -4  -4 -10   12.11    0.52 
   4   3  10    0.10    0.03 
  -4  -3 -10    0.13    0.06 
  -4  -3 -10    0.09    0.04 
   4   2  10   11.82    0.45 
  -4  -2 -10   10.60    0.47 
  -4  -2 -10   10.70    0.44 
   4   1  10    0.17    0.05 
  -4  -1 -10    0.19    0.06 
  -4  -1 -10    0.18    0.05 
   4   0  10    8.84    0.37 
  -4   0 -10    8.62    0.36 
  -4   0 -10    8.35    0.38 
   4  -1  10    0.20    0.06 
  -4   1 -10    0.22    0.06 
  -4   1 -10    0.21    0.06 
   4  -2  10   11.23    0.47 
  -4   2 -10   11.01    0.47 
  -4   2 -10   11.20    0.46 
   4  -3  10    0.16    0.06 
  -4   3 -10    0.11    0.05 
   4  -4  10   12.03    0.52 
  -4   4 -10   12.27    0.51 
   4  -5  10    0.04    0.06 
   4  -6  10    2.85    0.19 
   4  -7  10    0.04    0.07 
   4  -8  10    1.03    0.14 
   4  -9  10    3.24    0.22 
   4 -10  10    1.85    0.19 
   4 -11  10    3.86    0.27 
   4 -12  10    0.61    0.15 
   4 -13  10    0.00    0.10 
   4 -14  10    2.02    0.24 
   4 -15  10   -0.10    0.11 
   4 -16  10   -0.03    0.14 
   4 -17  10    0.35    0.17 
   4 -18  10    0.37    0.18 
  -3 -18 -10    0.47    0.19 
  -3 -17 -10    0.15    0.15 
  -3 -16 -10    0.07    0.14 
  -3 -15 -10   -0.08    0.11 
  -3 -14 -10    1.08    0.13 
  -3 -14 -10    1.27    0.20 
  -3 -13 -10    0.28    0.09 
  -3 -13 -10    0.15    0.10 
  -3 -12 -10    0.56    0.10 
  -3 -12 -10    0.85    0.15 
  -3 -11 -10    0.58    0.09 
  -3 -11 -10    0.71    0.14 
  -3 -10 -10    2.50    0.16 
  -3 -10 -10    2.74    0.22 
  -3  -9 -10    0.21    0.07 
  -3  -9 -10    0.35    0.10 
  -3  -8 -10    0.21    0.09 
  -3  -8 -10    0.21    0.06 
   3   7  10    0.01    0.03 
  -3  -7 -10   -0.02    0.04 
  -3  -7 -10    0.09    0.07 
   3   6  10    0.09    0.03 
  -3  -6 -10    0.07    0.06 
  -3  -6 -10    0.09    0.05 
   3   5  10    0.79    0.07 
  -3  -5 -10    0.79    0.11 
  -3  -5 -10    0.88    0.08 
   3   4  10    8.45    0.34 
  -3  -4 -10    8.22    0.38 
  -3  -4 -10    8.58    0.35 
   3   3  10    0.01    0.03 
  -3  -3 -10    0.01    0.04 
  -3  -3 -10    0.08    0.05 
   3   2  10    0.00    0.02 
  -3  -2 -10    0.05    0.04 
  -3  -2 -10    0.05    0.04 
   3   1  10    3.30    0.17 
  -3  -1 -10    3.32    0.18 
  -3  -1 -10    3.26    0.17 
   3   0  10   13.82    0.56 
  -3   0 -10   14.49    0.57 
  -3   0 -10   13.64    0.55 
   3  -1  10    3.39    0.18 
  -3   1 -10    3.27    0.18 
  -3   1 -10    3.22    0.17 
   3  -2  10    0.05    0.05 
  -3   2 -10    0.07    0.04 
  -3   2 -10    0.06    0.04 
   3  -3  10    0.01    0.05 
  -3   3 -10    0.04    0.04 
   3  -4  10    8.22    0.38 
  -3   4 -10    8.59    0.38 
   3  -5  10    0.77    0.10 
  -3   5 -10    0.73    0.10 
   3  -6  10    0.07    0.06 
   3  -7  10    0.05    0.07 
   3  -8  10    0.19    0.09 
   3  -9  10    0.22    0.10 
   3 -10  10    2.81    0.22 
   3 -11  10    0.53    0.13 
   3 -12  10    0.66    0.14 
   3 -13  10    0.13    0.11 
   3 -14  10    0.89    0.18 
   3 -15  10    0.03    0.12 
   3 -16  10    0.10    0.14 
   3 -17  10   -0.16    0.13 
   3 -18  10    0.41    0.19 
  -2 -18 -10    0.17    0.17 
  -2 -17 -10    0.13    0.16 
  -2 -16 -10    0.09    0.14 
  -2 -15 -10    0.01    0.09 
  -2 -15 -10    0.00    0.11 
  -2 -14 -10    2.79    0.20 
  -2 -14 -10    3.24    0.28 
  -2 -13 -10    0.28    0.12 
  -2 -13 -10    0.31    0.09 
  -2 -12 -10    0.17    0.08 
  -2 -12 -10   -0.04    0.09 
  -2 -11 -10    2.50    0.17 
  -2 -11 -10    2.39    0.22 
  -2 -10 -10    3.23    0.23 
  -2 -10 -10    2.78    0.18 
  -2  -9 -10    0.56    0.11 
  -2  -8 -10    1.68    0.13 
  -2  -8 -10    1.71    0.17 
  -2  -7 -10    0.18    0.07 
  -2  -7 -10    0.11    0.05 
   2   6  10    8.86    0.35 
  -2  -6 -10    8.75    0.37 
  -2  -6 -10    8.99    0.41 
   2   5  10    0.29    0.04 
  -2  -5 -10    0.30    0.06 
  -2  -5 -10    0.27    0.07 
   2   4  10    1.62    0.10 
  -2  -4 -10    2.00    0.12 
  -2  -4 -10    1.98    0.13 
   2   3  10    0.16    0.04 
  -2  -3 -10    0.19    0.05 
  -2  -3 -10    0.25    0.05 
   2   2  10    0.27    0.05 
  -2  -2 -10    0.24    0.05 
  -2  -2 -10    0.21    0.05 
  -2  -1 -10    1.94    0.12 
  -2  -1 -10    1.72    0.11 
   2   0  10    0.58    0.07 
  -2   0 -10    0.47    0.07 
  -2   0 -10    0.40    0.06 
   2  -1  10    1.95    0.13 
  -2   1 -10    1.87    0.13 
  -2   1 -10    1.87    0.12 
   2  -2  10    0.27    0.06 
  -2   2 -10    0.24    0.06 
   2  -3  10    0.10    0.05 
  -2   3 -10    0.16    0.06 
  -2   3 -10    0.14    0.04 
   2  -4  10    1.86    0.14 
  -2   4 -10    1.85    0.14 
   2  -5  10    0.26    0.07 
  -2   5 -10    0.34    0.07 
   2  -6  10    8.60    0.40 
   2  -7  10    0.16    0.08 
   2  -8  10    1.88    0.17 
   2  -9  10    0.46    0.11 
   2 -10  10    3.17    0.24 
   2 -11  10    3.14    0.24 
   2 -12  10    0.13    0.10 
   2 -13  10    0.30    0.13 
   2 -14  10    2.60    0.25 
   2 -15  10   -0.01    0.12 
   2 -16  10    0.07    0.14 
   2 -17  10    0.09    0.15 
   2 -18  10   -0.05    0.17 
  -1 -17 -10    0.15    0.12 
  -1 -16 -10    0.44    0.12 
  -1 -15 -10   -0.01    0.08 
  -1 -14 -10    1.19    0.15 
  -1 -13 -10    0.56    0.11 
  -1 -12 -10    0.40    0.09 
  -1 -11 -10    0.22    0.07 
  -1 -10 -10    0.00    0.06 
  -1  -9 -10    0.96    0.10 
  -1  -8 -10    1.39    0.12 
  -1  -7 -10    0.12    0.07 
  -1  -7 -10    0.24    0.06 
  -1  -6 -10    0.75    0.09 
  -1  -6 -10    0.86    0.11 
   1   5  10    0.08    0.03 
  -1  -5 -10    0.03    0.05 
  -1  -5 -10    0.03    0.04 
   1   4  10    2.72    0.12 
  -1  -4 -10    2.76    0.17 
  -1  -4 -10    2.60    0.15 
   1   3  10    0.75    0.06 
  -1  -3 -10    0.76    0.08 
  -1  -3 -10    0.76    0.09 
   1   2  10    9.21    0.36 
  -1  -2 -10    8.69    0.38 
  -1  -2 -10    8.87    0.37 
  -1  -1 -10   14.70    0.57 
  -1  -1 -10   14.95    0.59 
   1   0  10    4.45    0.21 
  -1   0 -10    4.51    0.22 
  -1   0 -10    4.36    0.21 
   1  -1  10   13.83    0.58 
  -1   1 -10   15.54    0.58 
   1  -2  10    9.14    0.39 
  -1   2 -10    9.34    0.39 
  -1   2 -10    9.12    0.38 
   1  -3  10    0.84    0.10 
  -1   3 -10    0.79    0.09 
   1  -4  10    2.38    0.16 
  -1   4 -10    2.62    0.16 
   1  -5  10    0.01    0.05 
  -1   5 -10    0.07    0.05 
   1  -6  10    0.85    0.11 
  -1   6 -10    0.69    0.10 
   1  -7  10    0.09    0.07 
   1  -8  10    1.16    0.14 
   1  -9  10    0.98    0.14 
   1 -10  10    0.13    0.09 
   1 -11  10    0.13    0.09 
   1 -12  10    0.44    0.12 
   1 -13  10    0.63    0.15 
   1 -14  10    0.70    0.16 
   1 -15  10    0.19    0.13 
   1 -16  10    0.31    0.15 
   1 -17  10    0.33    0.17 
   1 -18  10   -0.02    0.16 
   0 -18 -10    0.37    0.14 
   0 -17 -10   -0.01    0.11 
   0 -16 -10    0.00    0.09 
   0 -15 -10    0.01    0.09 
   0 -14 -10    4.06    0.25 
   0 -13 -10    0.00    0.08 
   0 -12 -10    0.80    0.12 
   0 -11 -10    0.07    0.07 
   0 -10 -10    1.42    0.13 
   0  -9 -10    0.02    0.05 
   0  -8 -10    2.70    0.17 
   0  -7 -10    0.01    0.05 
   0  -6 -10    1.28    0.11 
   0  -5 -10    0.03    0.04 
   0  -5 -10    0.00    0.04 
   0   4  10    3.98    0.17 
   0  -4 -10    4.16    0.20 
   0  -4 -10    4.39    0.22 
   0   3  10   -0.01    0.02 
   0  -3 -10    0.02    0.04 
   0  -3 -10   -0.02    0.03 
   0   2  10   11.35    0.44 
   0  -2 -10   11.14    0.46 
   0  -2 -10   11.18    0.45 
   0   1  10    0.00    0.03 
   0  -1 -10    0.09    0.04 
   0  -1 -10    0.08    0.05 
   0   0  10   20.14    0.80 
   0   0 -10   22.36    0.80 
   0  -1  10    0.05    0.05 
   0   1 -10    0.14    0.04 
   0   1 -10    0.04    0.05 
   0  -2  10   11.31    0.46 
   0   2 -10   10.35    0.44 
   0   2 -10   10.63    0.42 
   0  -3  10    0.05    0.04 
   0   3 -10   -0.01    0.04 
   0  -4  10    3.90    0.22 
   0   4 -10    3.90    0.21 
   0  -5  10    0.02    0.05 
   0   5 -10    0.04    0.05 
   0  -6  10    1.28    0.13 
   0   6 -10    1.03    0.12 
   0  -7  10    0.04    0.06 
   0   7 -10   -0.03    0.06 
   0  -8  10    2.75    0.20 
   0  -9  10   -0.01    0.07 
   0 -10  10    1.35    0.17 
   0 -11  10   -0.09    0.08 
   0 -12  10    0.97    0.16 
   0 -13  10    0.06    0.11 
   0 -14  10    4.65    0.33 
   0 -15  10   -0.08    0.11 
   0 -16  10    0.08    0.14 
   0 -17  10   -0.07    0.14 
   0 -18  10    0.26    0.17 
   1 -18 -10    0.10    0.12 
   1 -17 -10    0.45    0.14 
   1 -16 -10    0.37    0.13 
   1 -15 -10    0.17    0.10 
   1 -14 -10    0.79    0.13 
   1 -13 -10    0.88    0.13 
   1 -12 -10    0.45    0.11 
   1 -11 -10    0.02    0.07 
   1 -10 -10    0.10    0.07 
   1  -9 -10    0.94    0.11 
   1  -8 -10    1.21    0.12 
   1  -7 -10    0.16    0.06 
   1  -6 -10    0.75    0.09 
   1  -5 -10   -0.01    0.04 
  -1   4  10    2.69    0.12 
   1  -4 -10    2.86    0.16 
  -1   3  10    0.74    0.06 
   1  -3 -10    0.96    0.09 
   1  -3 -10    0.81    0.08 
  -1   2  10    8.27    0.33 
   1  -2 -10    8.42    0.36 
   1  -2 -10    8.20    0.35 
  -1   1  10   14.96    0.58 
   1  -1 -10   14.99    0.58 
   1   0 -10    4.56    0.20 
   1   0 -10    4.55    0.22 
  -1  -1  10   15.48    0.61 
   1   1 -10   15.18    0.58 
   1   1 -10   14.97    0.59 
  -1  -2  10    8.85    0.37 
   1   2 -10    8.26    0.36 
   1   2 -10    8.32    0.33 
  -1  -3  10    0.93    0.10 
   1   3 -10    0.69    0.09 
  -1  -4  10    2.68    0.17 
   1   4 -10    2.56    0.16 
  -1  -5  10    0.04    0.05 
   1   5 -10    0.04    0.05 
  -1  -6  10    0.72    0.11 
   1   6 -10    0.68    0.10 
  -1  -7  10    0.13    0.07 
   1   7 -10   -0.03    0.06 
  -1  -8  10    0.96    0.14 
  -1  -9  10    0.98    0.14 
  -1 -10  10    0.00    0.08 
  -1 -11  10    0.02    0.09 
  -1 -12  10    0.38    0.13 
  -1 -13  10    0.88    0.17 
  -1 -14  10    0.99    0.19 
  -1 -15  10    0.31    0.15 
  -1 -16  10    0.42    0.17 
  -1 -17  10    0.39    0.17 
  -1 -18  10    0.15    0.16 
   2 -18 -10   -0.05    0.13 
   2 -17 -10    0.24    0.12 
   2 -16 -10    0.12    0.11 
   2 -15 -10    0.04    0.10 
   2 -14 -10    2.46    0.21 
   2 -13 -10    0.23    0.10 
   2 -12 -10    0.05    0.08 
   2 -11 -10    2.68    0.19 
   2 -10 -10    3.57    0.21 
   2  -9 -10    0.77    0.11 
   2  -8 -10    2.23    0.16 
   2  -7 -10    0.08    0.06 
   2  -6 -10    8.42    0.37 
   2  -5 -10    0.15    0.06 
  -2   4  10    1.95    0.09 
   2  -4 -10    2.22    0.14 
  -2   3  10    0.17    0.03 
   2  -3 -10    0.15    0.05 
  -2   2  10    0.28    0.05 
   2  -2 -10    0.21    0.06 
  -2   1  10    1.74    0.11 
   2  -1 -10    1.63    0.10 
   2  -1 -10    1.50    0.11 
  -2   0  10    0.12    0.04 
   2   0 -10    0.36    0.05 
   2   0 -10    0.42    0.07 
  -2  -1  10    1.72    0.12 
   2   1 -10    1.73    0.09 
   2   1 -10    1.72    0.12 
  -2  -2  10    0.23    0.06 
   2   2 -10    0.29    0.06 
   2   2 -10    0.23    0.03 
  -2  -3  10    0.24    0.06 
   2   3 -10    0.14    0.05 
  -2  -4  10    2.04    0.15 
   2   4 -10    1.90    0.14 
  -2  -5  10    0.26    0.07 
   2   5 -10    0.22    0.06 
  -2  -6  10    9.47    0.44 
   2   6 -10    9.04    0.41 
  -2  -7  10    0.10    0.07 
   2   7 -10    0.01    0.06 
  -2  -8  10    1.97    0.19 
   2   8 -10    2.10    0.18 
  -2  -9  10    0.63    0.12 
  -2 -10  10    3.03    0.24 
  -2 -11  10    2.39    0.23 
  -2 -12  10    0.03    0.09 
  -2 -13  10    0.38    0.14 
  -2 -14  10    2.62    0.27 
  -2 -15  10   -0.02    0.12 
  -2 -16  10    0.03    0.14 
  -2 -17  10   -0.07    0.14 
  -2 -18  10   -0.04    0.16 
   3 -18 -10    0.44    0.16 
   3 -17 -10    0.10    0.12 
   3 -16 -10    0.13    0.11 
   3 -15 -10   -0.05    0.09 
   3 -14 -10    1.14    0.16 
   3 -13 -10    0.18    0.09 
   3 -12 -10    0.52    0.11 
   3 -11 -10    0.54    0.11 
   3 -10 -10    2.84    0.19 
   3  -9 -10    0.20    0.08 
   3  -8 -10    0.35    0.08 
   3  -7 -10   -0.01    0.06 
   3  -6 -10    0.07    0.05 
   3  -5 -10    0.61    0.09 
  -3   4  10    9.06    0.35 
   3  -4 -10    9.45    0.39 
  -3   3  10   -0.01    0.03 
   3  -3 -10   -0.01    0.04 
   3  -2 -10    0.07    0.04 
   3  -2 -10   -0.02    0.03 
   3  -1 -10    3.15    0.16 
   3  -1 -10    3.01    0.17 
   3   0 -10   14.36    0.57 
   3   0 -10   13.98    0.56 
   3   0 -10   14.57    0.55 
   3   1 -10    3.22    0.14 
   3   1 -10    3.09    0.18 
   3   1 -10    2.88    0.17 
   3   2 -10    0.01    0.02 
   3   2 -10    0.02    0.04 
   3   2 -10    0.09    0.05 
   3   3 -10    0.02    0.04 
   3   3 -10    0.00    0.05 
   3   4 -10    8.22    0.39 
   3   4 -10    8.78    0.38 
   3   5 -10    0.61    0.09 
   3   5 -10    0.67    0.11 
   3   6 -10    0.02    0.05 
   3   6 -10    0.09    0.07 
   3   7 -10    0.07    0.06 
   3   7 -10    0.05    0.07 
   3   8 -10    0.26    0.09 
   3   8 -10    0.20    0.08 
   3   9 -10    0.16    0.09 
  -3 -10  10    2.39    0.22 
  -3 -11  10    0.46    0.13 
  -3 -12  10    0.53    0.15 
  -3 -13  10    0.25    0.13 
  -3 -14  10    1.08    0.19 
  -3 -15  10    0.20    0.14 
  -3 -16  10    0.17    0.15 
  -3 -17  10    0.03    0.15 
  -3 -18  10    0.50    0.19 
   4 -18 -10    0.19    0.15 
   4 -17 -10    0.36    0.15 
   4 -16 -10    0.02    0.11 
   4 -15 -10   -0.12    0.09 
   4 -14 -10    1.48    0.17 
   4 -13 -10   -0.10    0.08 
   4 -12 -10    0.27    0.10 
   4 -11 -10    4.41    0.26 
   4 -10 -10    1.85    0.16 
   4  -9 -10    3.21    0.21 
   4  -8 -10    0.91    0.12 
   4  -7 -10    0.21    0.07 
   4  -6 -10    2.74    0.17 
   4  -5 -10    0.11    0.06 
   4  -4 -10   11.73    0.45 
   4  -4 -10   12.00    0.49 
   4  -3 -10    0.07    0.05 
   4  -3 -10    0.09    0.04 
   4  -2 -10   11.08    0.45 
   4  -2 -10   10.80    0.44 
   4  -1 -10    0.29    0.06 
   4  -1 -10    0.26    0.06 
   4   0 -10    8.29    0.36 
   4   0 -10    8.21    0.35 
   4   1 -10    0.30    0.04 
   4   1 -10    0.22    0.07 
   4   1 -10    0.23    0.06 
   4   2 -10   10.74    0.44 
   4   2 -10   10.57    0.46 
   4   3 -10    0.09    0.05 
   4   3 -10    0.16    0.07 
   4   4 -10   11.07    0.50 
   4   4 -10   11.81    0.48 
   4   5 -10    0.05    0.06 
   4   5 -10    0.04    0.05 
   4   6 -10    2.96    0.21 
   4   6 -10    3.11    0.19 
   4   7 -10    0.14    0.08 
   4   7 -10    0.10    0.08 
   4   8 -10    1.00    0.13 
   4   8 -10    0.95    0.14 
   4   9 -10    3.27    0.25 
   4  10 -10    2.07    0.22 
   4  11 -10    3.86    0.28 
  -4 -12  10    0.41    0.13 
  -4 -13  10   -0.04    0.10 
  -4 -14  10    2.09    0.25 
  -4 -15  10   -0.01    0.12 
  -4 -16  10    0.04    0.14 
  -4 -17  10    0.11    0.16 
  -4 -18  10    0.31    0.18 
   5 -18 -10    0.14    0.14 
   5 -17 -10   -0.06    0.12 
   5 -16 -10    0.04    0.11 
   5 -15 -10   -0.06    0.09 
   5 -14 -10    0.11    0.10 
   5 -13 -10    0.04    0.09 
   5 -12 -10    0.10    0.09 
   5 -11 -10    0.26    0.10 
   5 -10 -10    0.82    0.13 
   5  -9 -10    0.44    0.10 
   5  -8 -10    0.61    0.11 
   5  -7 -10    4.15    0.23 
   5  -6 -10    0.24    0.08 
   5  -5 -10   -0.05    0.05 
   5  -5 -10   -0.01    0.03 
   5  -4 -10    0.24    0.05 
   5  -4 -10    0.20    0.06 
   5  -3 -10    6.14    0.29 
   5  -3 -10    6.03    0.27 
   5  -2 -10    2.28    0.14 
   5  -2 -10    2.07    0.13 
   5  -1 -10    0.20    0.06 
   5  -1 -10    0.15    0.05 
   5   0 -10    4.94    0.24 
   5   0 -10    4.83    0.24 
   5   1 -10    0.25    0.06 
   5   1 -10    0.22    0.06 
   5   2 -10    2.10    0.14 
   5   2 -10    2.00    0.15 
   5   3 -10    6.48    0.30 
   5   3 -10    5.96    0.31 
   5   4 -10    0.13    0.06 
   5   4 -10    0.15    0.07 
   5   5 -10    0.07    0.06 
   5   5 -10    0.05    0.05 
   5   6 -10    0.11    0.06 
   5   6 -10    0.22    0.08 
   5   7 -10    4.65    0.29 
   5   7 -10    4.55    0.26 
   5   8 -10    0.45    0.12 
   5   8 -10    0.62    0.12 
   5   9 -10    0.32    0.11 
   5   9 -10    0.40    0.12 
   5  10 -10    1.01    0.17 
   5  11 -10    0.30    0.11 
   5  12 -10    0.28    0.13 
   5  13 -10    0.29    0.14 
  -5 -14  10   -0.14    0.10 
  -5 -15  10   -0.08    0.12 
  -5 -16  10    0.25    0.16 
  -5 -17  10    0.20    0.17 
   6 -17 -10    0.07    0.14 
   6 -16 -10   -0.08    0.11 
   6 -15 -10   -0.08    0.10 
   6 -14 -10    0.75    0.15 
   6 -13 -10    0.04    0.09 
   6 -12 -10    0.18    0.10 
   6 -11 -10    1.19    0.15 
   6 -10 -10   -0.02    0.07 
   6  -9 -10    0.45    0.10 
   6  -8 -10    0.15    0.08 
   6  -7 -10    2.89    0.19 
   6  -6 -10    0.48    0.10 
   6  -5 -10   -0.01    0.04 
   6  -5 -10    0.05    0.07 
   6  -4 -10   12.90    0.56 
   6  -4 -10   14.34    0.54 
   6  -3 -10    2.17    0.13 
   6  -3 -10    2.17    0.15 
   6  -2 -10    0.21    0.06 
   6  -2 -10    0.30    0.07 
   6  -1 -10    1.02    0.11 
   6  -1 -10    1.28    0.11 
   6   0 -10    1.35    0.11 
   6   0 -10    1.12    0.11 
   6   1 -10    1.16    0.11 
   6   1 -10    1.23    0.12 
   6   2 -10    0.20    0.06 
   6   2 -10    0.19    0.07 
   6   3 -10    2.24    0.16 
   6   3 -10    2.02    0.14 
   6   4 -10   14.98    0.65 
   6   4 -10   15.31    0.61 
   6   5 -10    0.01    0.05 
   6   5 -10    0.07    0.07 
   6   6 -10    0.46    0.11 
   6   6 -10    0.56    0.10 
   6   7 -10    2.75    0.20 
   6   7 -10    2.72    0.21 
   6   8 -10    0.04    0.08 
   6   8 -10   -0.05    0.08 
   6   9 -10    0.71    0.13 
   6   9 -10    0.60    0.14 
   6  10 -10    0.06    0.09 
   6  11 -10    1.09    0.18 
   6  12 -10    0.11    0.11 
   6  13 -10    0.01    0.11 
   6  14 -10    0.71    0.19 
  -6 -16  10    0.11    0.15 
  -6 -17  10    0.07    0.17 
   7 -17 -10   -0.03    0.12 
   7 -16 -10    0.04    0.12 
   7 -15 -10   -0.03    0.10 
   7 -14 -10    0.05    0.10 
   7 -13 -10   -0.14    0.08 
   7 -12 -10   -0.08    0.08 
   7 -11 -10    0.17    0.10 
   7 -10 -10    0.00    0.07 
   7  -9 -10    0.14    0.09 
   7  -8 -10    0.27    0.09 
   7  -7 -10   -0.03    0.07 
   7  -6 -10    0.17    0.08 
   7  -5 -10    0.13    0.07 
   7  -5 -10    0.17    0.05 
   7  -4 -10    4.14    0.21 
   7  -4 -10    4.46    0.24 
   7  -3 -10    0.19    0.06 
   7  -3 -10    0.06    0.06 
   7  -2 -10    3.70    0.20 
   7  -2 -10    3.33    0.19 
   7  -1 -10    0.12    0.06 
   7  -1 -10    0.10    0.06 
   7   0 -10    6.11    0.28 
   7   0 -10    5.41    0.28 
   7   1 -10    0.18    0.06 
   7   1 -10    0.07    0.05 
   7   2 -10    3.43    0.19 
   7   2 -10    3.22    0.21 
   7   3 -10    0.19    0.07 
   7   3 -10    0.16    0.06 
   7   4 -10    4.60    0.24 
   7   4 -10    4.26    0.26 
   7   5 -10    0.14    0.07 
   7   5 -10    0.26    0.09 
   7   6 -10    0.34    0.10 
   7   6 -10    0.27    0.09 
   7   7 -10    0.06    0.08 
   7   7 -10    0.02    0.07 
   7   8 -10    0.50    0.11 
   7   8 -10    0.52    0.12 
   7   9 -10    0.12    0.10 
   7   9 -10    0.21    0.10 
   7  10 -10    0.08    0.09 
   7  11 -10    0.09    0.10 
   7  12 -10    0.05    0.11 
   7  13 -10    0.00    0.12 
   7  14 -10   -0.01    0.12 
   7  15 -10   -0.22    0.11 
   7  16 -10    0.08    0.14 
  -7 -17  10    0.00    0.15 
   8 -16 -10   -0.03    0.12 
   8 -15 -10    0.20    0.13 
   8 -14 -10    0.02    0.11 
   8 -13 -10    0.28    0.11 
   8 -12 -10   -0.05    0.08 
   8 -11 -10    0.09    0.09 
   8 -10 -10    0.33    0.09 
   8  -9 -10    0.20    0.09 
   8  -8 -10    1.66    0.16 
   8  -7 -10    0.47    0.11 
   8  -6 -10   -0.06    0.07 
   8  -5 -10    0.03    0.07 
   8  -4 -10    1.50    0.12 
   8  -4 -10    1.76    0.15 
   8  -3 -10    1.65    0.14 
   8  -3 -10    1.45    0.13 
   8  -2 -10    1.59    0.13 
   8  -2 -10    1.37    0.13 
   8  -1 -10    0.08    0.05 
   8  -1 -10    0.14    0.06 
   8   0 -10    1.47    0.12 
   8   0 -10    1.35    0.13 
   8   1 -10    0.15    0.06 
   8   1 -10    0.12    0.06 
   8   2 -10    1.36    0.12 
   8   2 -10    1.55    0.15 
   8   3 -10    1.67    0.14 
   8   3 -10    1.42    0.16 
   8   4 -10    1.52    0.13 
   8   4 -10    1.49    0.16 
   8   5 -10    0.03    0.07 
   8   5 -10    0.13    0.07 
   8   6 -10   -0.07    0.06 
   8   6 -10   -0.05    0.07 
   8   7 -10    0.70    0.12 
   8   7 -10    0.65    0.13 
   8   8 -10    2.05    0.18 
   8   8 -10    1.53    0.19 
   8   9 -10    0.06    0.10 
   8   9 -10    0.02    0.09 
   8  10 -10    0.46    0.14 
   8  11 -10    0.07    0.11 
   8  12 -10    0.03    0.11 
   8  13 -10    0.12    0.13 
   8  14 -10    0.32    0.14 
   8  15 -10    0.61    0.19 
   8  16 -10    0.21    0.15 
   9 -16 -10   -0.18    0.11 
   9 -15 -10   -0.24    0.11 
   9 -14 -10    0.02    0.11 
   9 -13 -10   -0.07    0.09 
   9 -12 -10    0.04    0.09 
   9 -11 -10    0.29    0.11 
   9 -10 -10    0.01    0.08 
   9  -9 -10    1.31    0.16 
   9  -8 -10    0.60    0.12 
   9  -7 -10    0.24    0.09 
   9  -6 -10    0.43    0.11 
   9  -5 -10    0.35    0.09 
   9  -4 -10    1.04    0.11 
   9  -4 -10    1.16    0.13 
   9  -3 -10    1.22    0.12 
   9  -3 -10    0.94    0.12 
   9  -2 -10    0.62    0.10 
   9  -2 -10    0.66    0.10 
   9  -1 -10    1.63    0.14 
   9  -1 -10    1.59    0.14 
   9   0 -10    0.78    0.10 
   9   0 -10    0.76    0.11 
   9   1 -10    1.39    0.13 
   9   1 -10    1.78    0.16 
   9   2 -10    0.90    0.13 
   9   2 -10    0.66    0.09 
   9   3 -10    1.12    0.14 
   9   3 -10    0.87    0.11 
   9   4 -10    1.15    0.15 
   9   4 -10    1.26    0.13 
   9   5 -10    0.51    0.10 
   9   5 -10    0.69    0.13 
   9   6 -10    0.42    0.10 
   9   6 -10    0.59    0.12 
   9   7 -10    0.12    0.09 
   9   7 -10    0.18    0.11 
   9   8 -10    0.50    0.12 
   9   8 -10    0.57    0.13 
   9   9 -10    1.19    0.16 
   9   9 -10    1.55    0.20 
   9  10 -10    0.21    0.11 
   9  11 -10    0.54    0.16 
   9  12 -10   -0.20    0.09 
   9  13 -10   -0.02    0.12 
   9  14 -10    0.09    0.13 
   9  15 -10    0.17    0.13 
   9  16 -10    0.28    0.15 
  10 -15 -10    0.05    0.11 
  10 -14 -10    0.14    0.11 
  10 -13 -10    0.09    0.10 
  10 -12 -10    0.06    0.10 
  10 -11 -10    0.71    0.14 
  10 -10 -10    0.56    0.12 
  10  -9 -10    0.08    0.08 
  10  -8 -10    0.35    0.11 
  10  -7 -10    1.50    0.16 
  10  -6 -10    1.40    0.15 
  10  -5 -10    0.22    0.09 
  10  -4 -10    1.25    0.13 
  10  -4 -10    1.11    0.14 
  10  -3 -10    1.56    0.14 
  10  -3 -10    1.12    0.13 
  10  -2 -10    0.04    0.07 
  10  -2 -10    0.06    0.07 
  10  -1 -10    0.82    0.12 
  10  -1 -10    0.90    0.12 
  10   0 -10    0.63    0.11 
  10   0 -10    0.60    0.10 
  10   1 -10    0.80    0.11 
  10   1 -10    0.96    0.13 
  10   2 -10    0.01    0.07 
  10   2 -10    0.01    0.06 
  10   3 -10    1.34    0.14 
  10   3 -10    1.23    0.16 
  10   4 -10    1.30    0.14 
  10   4 -10    1.07    0.15 
  10   5 -10    0.11    0.09 
  10   5 -10    0.08    0.08 
  10   6 -10    1.52    0.15 
  10   6 -10    1.48    0.19 
  10   7 -10    1.36    0.19 
  10   7 -10    1.47    0.15 
  10   8 -10    0.43    0.11 
  10   8 -10    0.51    0.14 
  10   9 -10    0.02    0.10 
  10   9 -10    0.02    0.09 
  10  10 -10    0.98    0.18 
  10  11 -10    0.62    0.16 
  10  12 -10    0.16    0.13 
  10  13 -10    0.26    0.15 
  10  14 -10    0.16    0.15 
  10  15 -10    0.40    0.15 
  11 -15 -10   -0.01    0.10 
  11 -14 -10   -0.03    0.10 
  11 -13 -10   -0.01    0.10 
  11 -12 -10    0.10    0.10 
  11 -11 -10    0.18    0.10 
  11 -10 -10    0.11    0.10 
  11  -9 -10    0.37    0.12 
  11  -8 -10    0.21    0.10 
  11  -7 -10    0.16    0.09 
  11  -6 -10    0.07    0.09 
  11  -5 -10    0.00    0.08 
  11  -4 -10   -0.03    0.08 
  11  -4 -10    0.03    0.07 
  11  -3 -10    0.04    0.08 
  11  -3 -10    0.06    0.07 
  11  -2 -10    0.01    0.07 
  11  -2 -10   -0.01    0.07 
  11  -1 -10    0.51    0.11 
  11  -1 -10    0.53    0.11 
  11   0 -10    0.41    0.11 
  11   0 -10    0.44    0.10 
  11   1 -10    0.51    0.10 
  11   1 -10    0.66    0.12 
  11   2 -10    0.00    0.07 
  11   2 -10    0.02    0.08 
  11   3 -10   -0.02    0.07 
  11   3 -10    0.07    0.08 
  11   4 -10    0.07    0.09 
  11   4 -10    0.09    0.08 
  11   5 -10   -0.04    0.08 
  11   5 -10    0.08    0.08 
  11   6 -10    0.23    0.11 
  11   6 -10    0.24    0.10 
  11   7 -10    0.00    0.08 
  11   7 -10    0.11    0.09 
  11   8 -10    0.08    0.10 
  11   8 -10    0.05    0.10 
  11   9 -10    0.20    0.11 
  11   9 -10    0.25    0.13 
  11  10 -10    0.29    0.13 
  11  11 -10    0.14    0.13 
  11  12 -10    0.13    0.13 
  11  13 -10    0.34    0.16 
  11  14 -10    0.09    0.14 
  11  15 -10    0.05    0.14 
  12 -14 -10    0.35    0.13 
  12 -13 -10    0.11    0.10 
  12 -12 -10    0.03    0.11 
  12 -11 -10    0.54    0.13 
  12 -10 -10    0.43    0.13 
  12  -9 -10    0.00    0.09 
  12  -8 -10   -0.06    0.09 
  12  -7 -10    0.99    0.15 
  12  -6 -10    0.04    0.09 
  12  -5 -10    0.89    0.14 
  12  -4 -10    0.10    0.09 
  12  -4 -10    0.00    0.07 
  12  -3 -10    0.32    0.10 
  12  -3 -10    0.34    0.10 
  12  -2 -10    0.70    0.12 
  12  -2 -10    0.40    0.11 
  12  -1 -10    2.30    0.18 
  12  -1 -10    1.95    0.19 
  12   0 -10    1.92    0.16 
  12   0 -10    1.95    0.19 
  12   1 -10    2.04    0.17 
  12   1 -10    2.02    0.20 
  12   2 -10    0.28    0.09 
  12   2 -10    0.45    0.12 
  12   3 -10    0.38    0.10 
  12   3 -10    0.26    0.11 
  12   4 -10    0.15    0.10 
  12   4 -10   -0.08    0.08 
  12   5 -10    1.09    0.16 
  12   5 -10    0.68    0.12 
  12   6 -10   -0.03    0.08 
  12   6 -10    0.01    0.08 
  12   7 -10    0.58    0.15 
  12   7 -10    0.97    0.14 
  12   8 -10    0.12    0.11 
  12   9 -10    0.07    0.11 
  12  10 -10    0.24    0.13 
  12  11 -10    0.56    0.18 
  12  12 -10   -0.05    0.11 
  12  13 -10   -0.10    0.10 
  12  14 -10    0.06    0.13 
  13 -13 -10    0.02    0.10 
  13 -12 -10    0.21    0.12 
  13 -11 -10    0.08    0.11 
  13 -10 -10    0.10    0.11 
  13  -9 -10   -0.07    0.10 
  13  -8 -10    0.37    0.12 
  13  -7 -10    0.12    0.10 
  13  -6 -10    0.24    0.10 
  13  -5 -10    0.06    0.09 
  13  -4 -10    0.12    0.10 
  13  -3 -10    0.26    0.10 
  13  -3 -10    0.28    0.10 
  13  -2 -10    0.18    0.10 
  13  -2 -10    0.16    0.09 
  13  -1 -10    0.09    0.09 
  13  -1 -10    0.17    0.10 
  13   0 -10    0.63    0.13 
  13   0 -10    0.82    0.12 
  13   1 -10   -0.01    0.08 
  13   1 -10    0.03    0.09 
  13   2 -10    0.18    0.10 
  13   2 -10    0.20    0.10 
  13   3 -10    0.37    0.12 
  13   3 -10    0.16    0.10 
  13   4 -10   -0.04    0.09 
  13   4 -10    0.17    0.09 
  13   5 -10    0.17    0.11 
  13   5 -10   -0.09    0.08 
  13   6 -10    0.01    0.09 
  13   7 -10    0.07    0.10 
  13   8 -10    0.11    0.13 
  13   9 -10   -0.01    0.10 
  13  10 -10    0.03    0.13 
  13  11 -10    0.15    0.16 
  13  12 -10    0.10    0.13 
  13  13 -10    0.01    0.12 
  14 -12 -10    0.04    0.11 
  14 -11 -10    0.57    0.15 
  14 -10 -10    0.08    0.12 
  14  -9 -10    0.19    0.12 
  14  -8 -10   -0.13    0.09 
  14  -7 -10    0.33    0.12 
  14  -6 -10    0.04    0.10 
  14  -5 -10    0.35    0.12 
  14  -4 -10    0.13    0.10 
  14  -3 -10    0.31    0.11 
  14  -3 -10    0.36    0.11 
  14  -2 -10   -0.02    0.09 
  14  -2 -10    0.09    0.09 
  14  -1 -10    0.45    0.12 
  14  -1 -10    0.20    0.09 
  14   0 -10    0.52    0.11 
  14   0 -10    0.38    0.12 
  14   1 -10    0.44    0.13 
  14   1 -10    0.34    0.10 
  14   2 -10   -0.06    0.08 
  14   2 -10    0.02    0.09 
  14   3 -10    0.24    0.11 
  14   3 -10    0.48    0.13 
  14   4 -10    0.05    0.10 
  14   5 -10    0.09    0.11 
  14   6 -10    0.08    0.12 
  14   7 -10    0.49    0.15 
  14   8 -10    0.03    0.12 
  14   9 -10    0.03    0.13 
  14  10 -10    0.14    0.15 
  14  11 -10    0.73    0.21 
  14  12 -10   -0.05    0.15 
  15 -11 -10    0.15    0.13 
  15 -10 -10    0.10    0.12 
  15  -9 -10    0.50    0.15 
  15  -8 -10    0.03    0.11 
  15  -7 -10    0.04    0.11 
  15  -6 -10    0.01    0.11 
  15  -5 -10    0.14    0.11 
  15  -4 -10    0.20    0.11 
  15  -3 -10   -0.01    0.09 
  15  -3 -10    0.12    0.10 
  15  -2 -10   -0.12    0.09 
  15  -2 -10    0.00    0.09 
  15  -1 -10    0.11    0.09 
  15  -1 -10    0.00    0.09 
  15   0 -10    0.74    0.13 
  15   0 -10    0.77    0.16 
  15   1 -10   -0.08    0.10 
  15   2 -10   -0.10    0.09 
  15   3 -10    0.15    0.11 
  15   4 -10    0.22    0.13 
  15   5 -10   -0.08    0.10 
  15   6 -10    0.02    0.12 
  15   7 -10    0.04    0.12 
  15   8 -10    0.06    0.14 
  15   9 -10    0.39    0.17 
  15  10 -10   -0.19    0.13 
  15  11 -10   -0.02    0.16 
  16 -10 -10    0.08    0.13 
  16  -9 -10    0.05    0.13 
  16  -8 -10   -0.02    0.11 
  16  -7 -10    0.42    0.15 
  16  -6 -10   -0.04    0.12 
  16  -5 -10   -0.11    0.09 
  16  -4 -10    0.00    0.11 
  16  -3 -10    0.59    0.14 
  16  -2 -10    0.02    0.10 
  16  -2 -10    0.11    0.11 
  16  -1 -10    0.35    0.13 
  16   0 -10    0.17    0.12 
  16   1 -10    0.41    0.14 
  16   2 -10    0.10    0.13 
  16   3 -10    0.47    0.15 
  16   4 -10    0.03    0.12 
  16   5 -10   -0.08    0.11 
  16   6 -10   -0.04    0.13 
  16   7 -10    0.31    0.15 
  16   8 -10    0.00    0.13 
  16   9 -10   -0.05    0.14 
  16  10 -10    0.07    0.17 
  17  -8 -10   -0.01    0.14 
  17  -7 -10    0.11    0.14 
  17  -6 -10   -0.02    0.13 
  17  -5 -10    0.01    0.12 
  17  -2 -10    0.07    0.12 
  17  -1 -10   -0.09    0.11 
  17   0 -10   -0.05    0.11 
  17   1 -10    0.03    0.12 
  17   2 -10    0.02    0.12 
  17   3 -10   -0.03    0.13 
  17   4 -10    0.02    0.13 
  17   5 -10   -0.10    0.13 
  17   6 -10   -0.04    0.14 
  17   7 -10    0.03    0.16 
  17   8 -10    0.05    0.16 
  18  -2 -10   -0.02    0.13 
  18  -1 -10    0.02    0.14 
  18   0 -10   -0.05    0.14 
  18   1 -10    0.15    0.15 
  18   2 -10    0.18    0.15 
  18   3 -10    0.15    0.15 
  18   4 -10   -0.14    0.14 
  18   5 -10   -0.08    0.14 
  18   6 -10    0.01    0.16 
  19  -1 -10   -0.08    0.15 
  19   0 -10    0.01    0.15 
  19   1 -10   -0.12    0.14 
  19   2 -10   -0.07    0.15 
  19   3 -10   -0.14    0.14 
  18   5  11    0.02    0.11 
 -18  -5 -11    0.06    0.15 
  18   4  11    0.23    0.12 
 -18  -4 -11   -0.14    0.16 
  18   3  11    0.36    0.13 
  18   2  11    0.05    0.10 
  18   1  11   -0.12    0.09 
  18   0  11    0.19    0.11 
  18  -1  11   -0.12    0.08 
  18  -2  11    0.07    0.10 
  18  -3  11    0.11    0.10 
  18  -4  11    0.21    0.11 
  18  -5  11    0.28    0.12 
  17   8  11   -0.04    0.12 
  17   7  11    0.15    0.12 
 -17  -7 -11    0.18    0.17 
  17   6  11    0.21    0.13 
 -17  -6 -11    0.11    0.15 
  17   5  11    0.11    0.10 
 -17  -5 -11    0.06    0.15 
  17   4  11    0.02    0.10 
 -17  -4 -11    0.04    0.14 
  17   3  11    0.03    0.09 
 -17  -3 -11   -0.11    0.14 
  17   2  11    0.51    0.14 
  17   1  11    0.09    0.10 
  17   0  11   -0.02    0.08 
  17  -1  11    0.01    0.10 
  17  -2  11    0.39    0.13 
  17  -3  11    0.05    0.09 
  17  -4  11    0.00    0.09 
  17  -5  11   -0.09    0.09 
  17  -6  11   -0.02    0.15 
  17  -7  11    0.21    0.17 
  17  -8  11    0.05    0.15 
 -16  -9 -11    0.20    0.17 
  16   8  11    0.09    0.12 
 -16  -8 -11   -0.04    0.14 
  16   7  11    0.16    0.11 
 -16  -7 -11   -0.13    0.14 
  16   6  11   -0.11    0.09 
 -16  -6 -11    0.12    0.15 
  16   5  11    0.09    0.10 
 -16  -5 -11   -0.04    0.13 
  16   4  11    0.24    0.11 
 -16  -4 -11    0.07    0.14 
  16   3  11    0.12    0.10 
 -16  -3 -11   -0.09    0.12 
  16   2  11    0.22    0.11 
 -16  -2 -11    0.04    0.13 
  16   1  11   -0.07    0.09 
  16   0  11    0.13    0.11 
  16  -1  11   -0.10    0.08 
  16  -2  11    0.07    0.10 
  16  -3  11   -0.12    0.08 
  16  -4  11    0.36    0.12 
  16  -5  11   -0.08    0.08 
  16  -6  11    0.04    0.13 
  16  -7  11    0.07    0.15 
  16  -8  11    0.08    0.14 
  16  -9  11    0.06    0.16 
 -15 -11 -11    0.02    0.16 
 -15 -10 -11   -0.10    0.14 
 -15  -9 -11    0.16    0.16 
  15   8  11    0.30    0.12 
 -15  -8 -11    0.30    0.15 
  15   7  11    0.09    0.11 
 -15  -7 -11    0.00    0.14 
  15   6  11    0.35    0.12 
 -15  -6 -11    0.12    0.14 
  15   5  11    0.13    0.10 
 -15  -5 -11    0.04    0.13 
  15   4  11    0.00    0.09 
 -15  -4 -11    0.05    0.12 
  15   3  11    0.05    0.10 
 -15  -3 -11    0.14    0.13 
  15   2  11    0.37    0.12 
 -15  -2 -11    0.30    0.14 
  15   1  11    0.13    0.10 
  15   0  11    0.10    0.09 
  15  -1  11    0.12    0.09 
  15  -2  11    0.50    0.13 
  15  -3  11    0.07    0.10 
  15  -4  11    0.07    0.09 
  15  -5  11    0.08    0.10 
  15  -6  11    0.27    0.13 
  15  -7  11   -0.01    0.13 
  15  -8  11    0.30    0.16 
  15  -9  11   -0.06    0.14 
  15 -10  11    0.05    0.16 
  15 -11  11    0.10    0.17 
 -14 -12 -11   -0.06    0.14 
 -14 -11 -11    0.01    0.15 
 -14 -10 -11   -0.16    0.14 
 -14  -9 -11   -0.01    0.12 
  14   8  11    0.25    0.12 
 -14  -8 -11    0.21    0.14 
  14   7  11    0.15    0.10 
 -14  -7 -11    0.01    0.13 
  14   6  11    0.39    0.12 
 -14  -6 -11    0.16    0.13 
  14   5  11    0.05    0.08 
 -14  -5 -11    0.02    0.11 
  14   4  11    0.16    0.10 
 -14  -4 -11    0.02    0.11 
  14   3  11    0.94    0.15 
 -14  -3 -11    1.06    0.18 
  14   2  11    0.01    0.08 
 -14  -2 -11    0.11    0.11 
  14   1  11    0.14    0.09 
 -14  -1 -11    0.26    0.12 
  14   0  11    0.09    0.09 
  14  -1  11    0.27    0.11 
  14  -2  11    0.00    0.09 
  14  -3  11    0.97    0.16 
  14  -4  11    0.11    0.10 
  14  -5  11   -0.11    0.07 
  14  -6  11    0.27    0.11 
  14  -7  11    0.24    0.14 
  14  -8  11    0.06    0.13 
  14  -9  11    0.08    0.14 
  14 -10  11    0.05    0.14 
  14 -11  11   -0.03    0.15 
  14 -12  11    0.06    0.16 
 -13 -13 -11    0.32    0.17 
 -13 -12 -11    0.11    0.16 
 -13 -11 -11   -0.08    0.14 
 -13 -10 -11    0.11    0.14 
 -13  -9 -11    0.17    0.14 
  13   8  11    0.47    0.12 
 -13  -8 -11    0.35    0.14 
  13   7  11    0.00    0.08 
 -13  -7 -11   -0.11    0.10 
  13   6  11    0.13    0.09 
 -13  -6 -11    0.02    0.10 
  13   5  11    0.05    0.08 
 -13  -5 -11   -0.05    0.10 
  13   4  11    0.08    0.08 
 -13  -4 -11    0.23    0.13 
  13   3  11    0.10    0.09 
 -13  -3 -11    0.03    0.10 
  13   2  11    0.21    0.10 
 -13  -2 -11    0.34    0.12 
  13   1  11    0.15    0.10 
 -13  -1 -11    0.07    0.10 
  13   0  11    0.00    0.08 
 -13   0 -11    0.18    0.11 
  13  -1  11    0.04    0.08 
  13  -2  11    0.42    0.11 
  13  -3  11    0.09    0.09 
  13  -4  11    0.19    0.11 
  13  -5  11    0.20    0.12 
  13  -6  11   -0.02    0.09 
  13  -7  11   -0.09    0.10 
  13  -8  11    0.40    0.15 
  13  -9  11    0.00    0.13 
  13 -10  11    0.13    0.13 
  13 -11  11   -0.15    0.13 
  13 -12  11    0.16    0.16 
  13 -13  11    0.23    0.17 
 -12 -13 -11    0.02    0.15 
 -12 -12 -11   -0.03    0.13 
 -12 -11 -11    0.02    0.12 
 -12 -10 -11   -0.05    0.12 
 -12  -9 -11    0.02    0.11 
  12   8  11    0.10    0.09 
 -12  -8 -11   -0.09    0.10 
  12   7  11    0.61    0.13 
 -12  -7 -11    0.60    0.15 
  12   6  11    0.03    0.08 
 -12  -6 -11    0.02    0.10 
  12   5  11    0.86    0.14 
 -12  -5 -11    0.79    0.15 
  12   4  11    0.06    0.08 
 -12  -4 -11    0.03    0.09 
  12   3  11    0.40    0.11 
 -12  -3 -11    0.42    0.13 
  12   2  11    0.16    0.09 
 -12  -2 -11    0.08    0.10 
  12   1  11    2.02    0.19 
 -12  -1 -11    1.90    0.20 
  12   0  11    0.07    0.09 
 -12   0 -11    0.11    0.10 
  12  -1  11    2.10    0.19 
  12  -2  11    0.10    0.09 
  12  -3  11    0.37    0.11 
  12  -4  11   -0.06    0.08 
  12  -5  11    0.76    0.14 
  12  -6  11    0.10    0.10 
  12  -7  11    0.70    0.16 
  12  -8  11    0.22    0.12 
  12  -9  11    0.06    0.13 
  12 -10  11   -0.19    0.11 
  12 -11  11    0.09    0.13 
  12 -12  11   -0.12    0.13 
  12 -13  11    0.05    0.15 
  12 -14  11    0.07    0.16 
 -11 -14 -11   -0.12    0.15 
 -11 -13 -11   -0.06    0.15 
 -11 -12 -11    0.63    0.17 
 -11 -11 -11    0.21    0.13 
 -11 -10 -11    0.22    0.13 
 -11  -9 -11    0.35    0.13 
  11   8  11    1.60    0.17 
 -11  -8 -11    1.44    0.20 
  11   7  11    0.06    0.09 
 -11  -7 -11    0.04    0.10 
  11   6  11    0.27    0.10 
 -11  -6 -11    0.26    0.12 
  11   5  11    0.14    0.09 
 -11  -5 -11    0.01    0.09 
  11   4  11    0.60    0.12 
 -11  -4 -11    0.49    0.13 
  11   3  11   -0.02    0.07 
 -11  -3 -11   -0.02    0.08 
  11   2  11    0.70    0.12 
 -11  -2 -11    0.76    0.14 
  11   1  11    0.26    0.09 
 -11  -1 -11    0.20    0.11 
  11   0  11    0.06    0.08 
 -11   0 -11    0.03    0.10 
  11  -1  11    0.30    0.10 
 -11   1 -11    0.11    0.10 
  11  -2  11    0.70    0.13 
  11  -3  11    0.04    0.08 
  11  -4  11    0.71    0.13 
  11  -5  11    0.20    0.09 
  11  -6  11    0.12    0.09 
  11  -7  11   -0.02    0.09 
  11  -8  11    1.73    0.21 
  11  -9  11    0.35    0.13 
  11 -10  11   -0.11    0.11 
  11 -11  11    0.00    0.12 
  11 -12  11    0.54    0.16 
  11 -13  11   -0.08    0.14 
  11 -14  11   -0.11    0.14 
 -10 -15 -11    0.12    0.16 
 -10 -14 -11   -0.14    0.14 
 -10 -13 -11    0.16    0.14 
 -10 -12 -11    0.01    0.12 
 -10 -11 -11    0.02    0.11 
 -10 -10 -11   -0.01    0.10 
 -10  -9 -11    0.99    0.17 
  10   8  11    0.09    0.09 
 -10  -8 -11   -0.03    0.09 
  10   7  11    0.10    0.08 
 -10  -7 -11    0.08    0.10 
  10   6  11    0.13    0.08 
 -10  -6 -11    0.06    0.10 
  10   5  11    1.53    0.15 
 -10  -5 -11    1.66    0.18 
  10   4  11    0.05    0.07 
 -10  -4 -11    0.01    0.09 
  10   3  11   -0.08    0.06 
 -10  -3 -11    0.00    0.09 
  10   2  11    3.96    0.24 
 -10  -2 -11    3.54    0.25 
  10   1  11    0.32    0.09 
 -10  -1 -11    0.34    0.11 
  10   0  11    0.02    0.07 
 -10   0 -11   -0.06    0.08 
  10  -1  11    0.35    0.09 
 -10   1 -11    0.27    0.10 
  10  -2  11    3.99    0.25 
  10  -3  11   -0.03    0.08 
  10  -4  11    0.04    0.08 
  10  -5  11    1.65    0.18 
  10  -6  11    0.05    0.08 
  10  -7  11    0.15    0.09 
  10  -8  11   -0.02    0.10 
  10  -9  11    0.90    0.16 
  10 -10  11   -0.10    0.10 
  10 -11  11    0.09    0.12 
  10 -12  11   -0.02    0.12 
  10 -13  11    0.03    0.14 
  10 -14  11   -0.11    0.14 
  10 -15  11    0.14    0.16 
  -9 -15 -11    0.12    0.17 
  -9 -14 -11   -0.02    0.13 
  -9 -13 -11    0.16    0.14 
  -9 -12 -11    0.32    0.15 
  -9 -11 -11    0.20    0.13 
  -9 -10 -11    0.08    0.11 
  -9  -9 -11    0.29    0.11 
   9   8  11    0.09    0.08 
  -9  -8 -11    0.04    0.09 
   9   7  11    1.14    0.14 
  -9  -7 -11    1.12    0.16 
   9   6  11    2.49    0.18 
  -9  -6 -11    2.31    0.21 
   9   5  11    2.49    0.18 
  -9  -5 -11    2.79    0.22 
   9   4  11    0.07    0.07 
  -9  -4 -11    0.05    0.09 
   9   3  11    0.19    0.08 
  -9  -3 -11    0.12    0.09 
   9   2  11    0.79    0.12 
  -9  -2 -11    0.97    0.14 
   9   1  11    0.83    0.12 
  -9  -1 -11    0.85    0.13 
   9   0  11    0.05    0.07 
  -9   0 -11    0.10    0.09 
   9  -1  11    1.00    0.13 
  -9   1 -11    1.01    0.14 
   9  -2  11    0.74    0.12 
   9  -3  11    0.19    0.09 
   9  -4  11    0.09    0.08 
   9  -5  11    2.40    0.19 
   9  -6  11    2.72    0.21 
   9  -7  11    1.19    0.16 
   9  -8  11   -0.02    0.09 
   9  -9  11    0.29    0.12 
   9 -10  11    0.10    0.11 
   9 -11  11    0.10    0.11 
   9 -12  11    0.11    0.13 
   9 -13  11   -0.04    0.12 
   9 -14  11    0.06    0.14 
   9 -15  11    0.06    0.15 
   9 -16  11    0.25    0.18 
  -8 -16 -11    0.12    0.16 
  -8 -15 -11    0.32    0.16 
  -8 -14 -11   -0.10    0.11 
  -8 -13 -11    0.03    0.13 
  -8 -12 -11    0.44    0.15 
  -8 -11 -11   -0.11    0.09 
  -8 -10 -11    0.05    0.10 
  -8  -9 -11    2.14    0.21 
   8   8  11    0.29    0.08 
  -8  -8 -11    0.44    0.12 
   8   7  11   -0.02    0.04 
  -8  -7 -11   -0.03    0.09 
   8   6  11    1.58    0.14 
  -8  -6 -11    1.42    0.17 
   8   5  11    0.59    0.09 
  -8  -5 -11    0.65    0.13 
   8   4  11    0.20    0.07 
  -8  -4 -11    0.15    0.09 
   8   3  11    0.17    0.07 
  -8  -3 -11    0.18    0.09 
   8   2  11    0.35    0.08 
  -8  -2 -11    0.20    0.06 
  -8  -2 -11    0.24    0.09 
   8   1  11    0.55    0.10 
  -8  -1 -11    0.45    0.07 
  -8  -1 -11    0.54    0.11 
   8   0  11   -0.01    0.06 
  -8   0 -11   -0.07    0.07 
   8  -1  11    0.41    0.09 
  -8   1 -11    0.73    0.12 
   8  -2  11    0.21    0.09 
  -8   2 -11    0.12    0.09 
   8  -3  11    0.04    0.07 
   8  -4  11    0.02    0.07 
   8  -5  11    0.47    0.11 
   8  -6  11    1.34    0.16 
   8  -7  11    0.18    0.09 
   8  -8  11    0.33    0.11 
   8  -9  11    2.06    0.21 
   8 -10  11    0.06    0.10 
   8 -11  11   -0.04    0.10 
   8 -12  11    0.44    0.14 
   8 -13  11   -0.10    0.12 
   8 -14  11    0.18    0.15 
   8 -15  11    0.04    0.15 
   8 -16  11    0.10    0.16 
  -7 -16 -11    0.15    0.16 
  -7 -15 -11    0.47    0.17 
  -7 -14 -11   -0.21    0.11 
  -7 -13 -11    0.30    0.14 
  -7 -12 -11    0.35    0.14 
  -7 -11 -11    0.02    0.09 
  -7 -10 -11    0.08    0.10 
  -7  -9 -11    0.13    0.11 
  -7  -8 -11    0.24    0.11 
   7   7  11    0.08    0.06 
  -7  -7 -11    0.12    0.10 
  -7  -6 -11    2.03    0.19 
   7   5  11    1.11    0.11 
  -7  -5 -11    1.02    0.14 
   7   4  11   -0.05    0.05 
  -7  -4 -11   -0.08    0.07 
  -7  -4 -11   -0.01    0.04 
   7   3  11    4.00    0.22 
  -7  -3 -11    4.42    0.21 
  -7  -3 -11    4.23    0.25 
   7   2  11    1.84    0.14 
  -7  -2 -11    1.67    0.16 
  -7  -2 -11    1.78    0.12 
   7   1  11    1.18    0.12 
  -7  -1 -11    1.06    0.13 
  -7  -1 -11    1.20    0.10 
   7   0  11    0.01    0.05 
  -7   0 -11    0.06    0.06 
  -7   0 -11    0.08    0.05 
   7  -1  11    1.23    0.13 
  -7   1 -11    1.27    0.12 
  -7   1 -11    1.03    0.12 
   7  -2  11    1.78    0.15 
  -7   2 -11    1.96    0.16 
   7  -3  11    4.06    0.24 
   7  -4  11    0.01    0.07 
   7  -5  11    1.13    0.15 
   7  -6  11    1.92    0.18 
   7  -7  11    0.18    0.09 
   7  -8  11    0.23    0.11 
   7  -9  11   -0.05    0.09 
   7 -10  11    0.23    0.12 
   7 -11  11    0.09    0.11 
   7 -12  11    0.31    0.13 
   7 -13  11    0.14    0.13 
   7 -14  11    0.01    0.13 
   7 -15  11    0.23    0.16 
   7 -16  11    0.30    0.17 
  -6 -17 -11   -0.18    0.14 
  -6 -16 -11    0.23    0.17 
  -6 -15 -11    0.05    0.14 
  -6 -14 -11    0.10    0.12 
  -6 -13 -11    0.16    0.12 
  -6 -12 -11    0.44    0.14 
  -6 -11 -11    0.68    0.15 
  -6 -10 -11    0.30    0.12 
  -6  -9 -11    1.21    0.17 
  -6  -8 -11    0.11    0.10 
   6   7  11    9.71    0.41 
  -6  -7 -11    8.67    0.45 
  -6  -7 -11    9.52    0.39 
   6   6  11    2.06    0.14 
  -6  -6 -11    1.87    0.18 
  -6  -6 -11    2.07    0.13 
  -6  -5 -11    0.95    0.09 
  -6  -5 -11    0.97    0.13 
   6   4  11    2.65    0.16 
  -6  -4 -11    2.64    0.15 
  -6  -4 -11    2.74    0.20 
   6   3  11    0.12    0.05 
  -6  -3 -11    0.15    0.05 
  -6  -3 -11    0.09    0.07 
   6   2  11    0.73    0.09 
  -6  -2 -11    0.59    0.08 
  -6  -2 -11    0.52    0.09 
   6   1  11    0.04    0.05 
  -6  -1 -11    0.00    0.05 
  -6  -1 -11    0.03    0.05 
   6   0  11   -0.01    0.05 
  -6   0 -11   -0.04    0.04 
  -6   0 -11   -0.11    0.04 
   6  -1  11   -0.02    0.05 
  -6   1 -11    0.08    0.05 
  -6   1 -11   -0.01    0.05 
   6  -2  11    0.62    0.10 
  -6   2 -11    0.57    0.09 
  -6   2 -11    0.61    0.10 
   6  -3  11   -0.02    0.06 
   6  -4  11    2.90    0.20 
   6  -5  11    0.97    0.13 
   6  -6  11    1.93    0.18 
   6  -7  11    8.61    0.43 
   6  -8  11   -0.01    0.08 
   6  -9  11    1.54    0.18 
   6 -10  11    0.10    0.11 
   6 -11  11    0.61    0.15 
   6 -12  11    0.44    0.14 
   6 -13  11    0.15    0.12 
   6 -14  11    0.00    0.11 
   6 -15  11    0.14    0.14 
   6 -16  11    0.15    0.16 
   6 -17  11   -0.16    0.15 
  -5 -17 -11    0.08    0.16 
  -5 -16 -11   -0.08    0.14 
  -5 -15 -11    0.47    0.17 
  -5 -14 -11    0.42    0.15 
  -5 -13 -11    0.53    0.15 
  -5 -12 -11    0.09    0.10 
  -5 -11 -11    0.21    0.12 
  -5 -10 -11    0.67    0.14 
  -5  -9 -11    1.99    0.14 
  -5  -9 -11    2.00    0.20 
  -5  -8 -11    1.26    0.16 
  -5  -8 -11    1.19    0.11 
   5   7  11    4.08    0.21 
  -5  -7 -11    3.91    0.25 
  -5  -7 -11    4.24    0.21 
   5   6  11    0.60    0.08 
  -5  -6 -11    0.71    0.08 
  -5  -6 -11    0.63    0.12 
   5   5  11    2.03    0.13 
  -5  -5 -11    1.79    0.16 
  -5  -5 -11    1.98    0.13 
   5   4  11    0.34    0.06 
  -5  -4 -11    0.44    0.07 
  -5  -4 -11    0.54    0.10 
   5   3  11    1.26    0.11 
  -5  -3 -11    1.48    0.11 
  -5  -3 -11    1.54    0.14 
   5   2  11    1.51    0.11 
  -5  -2 -11    1.64    0.13 
  -5  -2 -11    1.51    0.11 
   5   1  11    2.42    0.15 
  -5  -1 -11    2.32    0.15 
  -5  -1 -11    2.08    0.15 
   5   0  11   -0.03    0.04 
  -5   0 -11   -0.01    0.04 
  -5   0 -11    0.00    0.04 
   5  -1  11    2.12    0.15 
  -5   1 -11    2.33    0.16 
  -5   1 -11    2.18    0.14 
   5  -2  11    1.54    0.14 
  -5   2 -11    1.45    0.13 
  -5   2 -11    1.67    0.13 
   5  -3  11    1.47    0.14 
  -5   3 -11    1.53    0.13 
   5  -4  11    0.48    0.10 
   5  -5  11    1.97    0.17 
   5  -6  11    0.68    0.12 
   5  -7  11    4.22    0.26 
   5  -8  11    1.24    0.16 
   5  -9  11    1.98    0.20 
   5 -10  11    1.02    0.16 
   5 -11  11    0.09    0.10 
   5 -12  11    0.06    0.10 
   5 -13  11    0.66    0.16 
   5 -14  11    0.29    0.14 
   5 -15  11    0.61    0.17 
   5 -16  11   -0.05    0.14 
   5 -17  11   -0.01    0.16 
  -4 -17 -11   -0.17    0.16 
  -4 -16 -11    0.27    0.16 
  -4 -15 -11    0.00    0.13 
  -4 -14 -11    0.05    0.13 
  -4 -13 -11    0.18    0.14 
  -4 -12 -11    0.68    0.15 
  -4 -11 -11    0.70    0.10 
  -4 -11 -11    0.81    0.15 
  -4 -10 -11    0.23    0.08 
  -4 -10 -11    0.32    0.12 
  -4  -9 -11    1.81    0.14 
  -4  -9 -11    2.08    0.20 
  -4  -8 -11    2.14    0.19 
  -4  -8 -11    2.01    0.14 
  -4  -7 -11    4.37    0.26 
  -4  -7 -11    4.07    0.21 
   4   6  11    1.16    0.09 
  -4  -6 -11    1.13    0.10 
  -4  -6 -11    1.39    0.15 
   4   5  11    1.86    0.12 
  -4  -5 -11    1.71    0.15 
  -4  -5 -11    1.74    0.12 
   4   4  11    8.34    0.35 
  -4  -4 -11    8.34    0.39 
  -4  -4 -11    8.43    0.35 
   4   3  11    1.84    0.12 
  -4  -3 -11    2.45    0.14 
  -4  -3 -11    2.20    0.15 
   4   2  11    5.75    0.26 
  -4  -2 -11    5.84    0.26 
  -4  -2 -11    5.63    0.28 
   4   1  11    0.25    0.06 
  -4  -1 -11    0.15    0.05 
  -4  -1 -11    0.17    0.06 
   4   0  11    0.04    0.04 
  -4   0 -11   -0.05    0.04 
  -4   0 -11   -0.03    0.04 
   4  -1  11    0.24    0.07 
  -4   1 -11    0.20    0.06 
  -4   1 -11    0.27    0.06 
   4  -2  11    5.63    0.28 
  -4   2 -11    5.71    0.28 
  -4   2 -11    5.87    0.28 
   4  -3  11    2.25    0.16 
  -4   3 -11    2.33    0.15 
  -4   3 -11    2.42    0.16 
   4  -4  11    8.55    0.40 
  -4   4 -11    8.53    0.39 
   4  -5  11    1.70    0.16 
   4  -6  11    1.00    0.13 
   4  -7  11    3.52    0.23 
   4  -8  11    2.10    0.19 
   4  -9  11    1.85    0.19 
   4 -10  11    0.30    0.11 
   4 -11  11    0.57    0.14 
   4 -12  11    0.77    0.16 
   4 -13  11    0.22    0.13 
   4 -14  11    0.05    0.12 
   4 -15  11   -0.06    0.13 
   4 -16  11    0.38    0.17 
   4 -17  11   -0.01    0.15 
  -3 -17 -11    0.08    0.16 
  -3 -16 -11    0.13    0.15 
  -3 -15 -11    0.90    0.19 
  -3 -14 -11    0.30    0.14 
  -3 -13 -11    1.27    0.19 
  -3 -13 -11    1.94    0.16 
  -3 -12 -11    0.05    0.09 
  -3 -12 -11    0.04    0.07 
  -3 -11 -11    0.07    0.09 
  -3 -11 -11    0.21    0.08 
  -3 -10 -11    1.19    0.17 
  -3 -10 -11    1.22    0.12 
  -3  -9 -11    1.24    0.11 
  -3  -9 -11    0.86    0.14 
  -3  -8 -11    2.65    0.16 
  -3  -8 -11    2.73    0.21 
  -3  -7 -11    0.41    0.08 
  -3  -7 -11    0.41    0.10 
   3   6  11    0.10    0.04 
  -3  -6 -11   -0.01    0.06 
  -3  -6 -11    0.05    0.05 
   3   5  11    6.10    0.26 
  -3  -5 -11    5.69    0.30 
  -3  -5 -11    6.08    0.27 
   3   4  11    3.24    0.16 
  -3  -4 -11    3.22    0.19 
  -3  -4 -11    3.16    0.17 
   3   3  11    2.98    0.16 
  -3  -3 -11    3.35    0.17 
  -3  -3 -11    3.28    0.19 
  -3  -2 -11    0.40    0.07 
  -3  -2 -11    0.32    0.06 
   3   1  11    0.01    0.04 
  -3  -1 -11    0.03    0.04 
  -3  -1 -11    0.00    0.04 
   3   0  11    0.05    0.04 
  -3   0 -11   -0.07    0.04 
  -3   0 -11    0.00    0.04 
   3  -1  11    0.03    0.04 
  -3   1 -11    0.04    0.04 
  -3   1 -11    0.01    0.04 
   3  -2  11    0.38    0.07 
  -3   2 -11    0.38    0.07 
  -3   2 -11    0.28    0.07 
   3  -3  11    3.18    0.19 
  -3   3 -11    3.31    0.19 
  -3   3 -11    3.33    0.18 
   3  -4  11    2.81    0.18 
  -3   4 -11    3.16    0.19 
   3  -5  11    5.78    0.30 
  -3   5 -11    6.17    0.30 
   3  -6  11    0.06    0.07 
   3  -7  11    0.36    0.10 
   3  -8  11    2.70    0.20 
   3  -9  11    1.24    0.16 
   3 -10  11    1.35    0.17 
   3 -11  11    0.26    0.11 
   3 -12  11    0.09    0.11 
   3 -13  11    1.62    0.21 
   3 -14  11    0.26    0.14 
   3 -15  11    0.90    0.19 
   3 -16  11    0.37    0.16 
   3 -17  11   -0.08    0.15 
  -2 -18 -11   -0.02    0.16 
  -2 -17 -11   -0.09    0.15 
  -2 -16 -11    0.05    0.15 
  -2 -15 -11   -0.02    0.09 
  -2 -15 -11    0.30    0.15 
  -2 -14 -11    0.04    0.11 
  -2 -14 -11    0.02    0.08 
  -2 -13 -11   -0.02    0.10 
  -2 -13 -11    0.13    0.08 
  -2 -12 -11    2.72    0.19 
  -2 -12 -11    2.64    0.24 
  -2 -11 -11    0.02    0.08 
  -2 -11 -11   -0.13    0.06 
  -2 -10 -11   -0.08    0.08 
  -2 -10 -11   -0.02    0.06 
  -2  -9 -11    0.36    0.11 
  -2  -9 -11    0.37    0.08 
  -2  -8 -11    1.78    0.17 
  -2  -8 -11    1.60    0.13 
  -2  -7 -11    1.48    0.12 
  -2  -7 -11    1.57    0.16 
   2   6  11    1.82    0.10 
  -2  -6 -11    2.00    0.13 
  -2  -6 -11    1.92    0.16 
   2   5  11    1.64    0.09 
  -2  -5 -11    1.69    0.12 
  -2  -5 -11    1.41    0.14 
   2   4  11    2.58    0.13 
  -2  -4 -11    2.78    0.15 
  -2  -4 -11    2.54    0.17 
   2   3  11    0.49    0.06 
  -2  -3 -11    0.44    0.07 
  -2  -3 -11    0.25    0.06 
   2   2  11    8.57    0.35 
  -2  -2 -11    8.77    0.38 
  -2  -2 -11    8.50    0.36 
  -2  -1 -11    0.77    0.08 
  -2  -1 -11    0.84    0.09 
   2   0  11   -0.01    0.04 
  -2   0 -11    0.04    0.04 
  -2   0 -11   -0.02    0.04 
   2  -1  11    0.76    0.09 
  -2   1 -11    0.77    0.08 
  -2   1 -11    0.73    0.09 
   2  -2  11    8.62    0.37 
  -2   2 -11    8.21    0.37 
   2  -3  11    0.51    0.09 
  -2   3 -11    0.41    0.06 
  -2   3 -11    0.40    0.08 
   2  -4  11    2.74    0.17 
  -2   4 -11    2.73    0.18 
   2  -5  11    1.56    0.15 
  -2   5 -11    1.69    0.15 
   2  -6  11    1.73    0.16 
  -2   6 -11    1.95    0.17 
   2  -7  11    1.28    0.15 
   2  -8  11    1.51    0.16 
   2  -9  11    0.38    0.11 
   2 -10  11   -0.01    0.09 
   2 -11  11    0.02    0.10 
   2 -12  11    2.43    0.24 
   2 -13  11    0.09    0.11 
   2 -14  11    0.01    0.12 
   2 -15  11    0.01    0.13 
   2 -16  11    0.04    0.13 
   2 -17  11   -0.05    0.15 
   2 -18  11    0.12    0.17 
  -1 -18 -11   -0.05    0.16 
  -1 -17 -11    0.13    0.16 
  -1 -16 -11    0.05    0.09 
  -1 -15 -11    0.19    0.10 
  -1 -14 -11    0.00    0.08 
  -1 -13 -11    1.51    0.15 
  -1 -12 -11   -0.08    0.06 
  -1 -11 -11    0.05    0.06 
  -1 -10 -11   -0.03    0.06 
  -1  -9 -11    5.12    0.26 
  -1  -9 -11    5.30    0.31 
  -1  -8 -11    0.26    0.07 
  -1  -8 -11    0.12    0.08 
  -1  -7 -11    8.38    0.40 
  -1  -7 -11    7.87    0.35 
  -1  -6 -11    0.38    0.09 
  -1  -6 -11    0.59    0.08 
   1   5  11    9.82    0.37 
  -1  -5 -11    9.40    0.40 
  -1  -5 -11    9.22    0.43 
   1   4  11    0.14    0.03 
  -1  -4 -11    0.23    0.06 
  -1  -4 -11    0.09    0.06 
   1   3  11    0.12    0.04 
  -1  -3 -11    0.14    0.05 
  -1  -3 -11    0.10    0.05 
   1   2  11    2.19    0.12 
  -1  -2 -11    2.06    0.13 
  -1  -2 -11    2.22    0.14 
  -1  -1 -11    2.25    0.14 
  -1  -1 -11    2.46    0.14 
   1   0  11    0.02    0.04 
  -1   0 -11    0.01    0.04 
  -1   0 -11   -0.01    0.03 
   1  -1  11    2.20    0.13 
  -1   1 -11    2.28    0.14 
  -1   1 -11    1.39    0.10 
   1  -2  11    2.22    0.15 
  -1   2 -11    2.22    0.13 
  -1   2 -11    2.33    0.15 
   1  -3  11    0.10    0.05 
  -1   3 -11    0.12    0.04 
  -1   3 -11    0.05    0.05 
   1  -4  11    0.15    0.06 
  -1   4 -11    0.12    0.06 
   1  -5  11    9.41    0.43 
  -1   5 -11    9.31    0.42 
   1  -6  11    0.48    0.10 
  -1   6 -11    0.34    0.09 
   1  -7  11    7.73    0.39 
   1  -8  11    0.07    0.08 
   1  -9  11    5.33    0.31 
   1 -10  11   -0.05    0.07 
   1 -11  11   -0.09    0.08 
   1 -12  11   -0.08    0.09 
   1 -13  11    1.30    0.19 
   1 -14  11    0.13    0.12 
   1 -15  11   -0.01    0.13 
   1 -16  11    0.04    0.14 
   1 -17  11   -0.04    0.15 
   1 -18  11   -0.10    0.17 
   0 -18 -11    0.38    0.15 
   0 -17 -11    0.08    0.12 
   0 -16 -11    0.39    0.12 
   0 -15 -11    0.05    0.09 
   0 -14 -11    0.33    0.10 
   0 -13 -11    0.10    0.08 
   0 -12 -11    1.12    0.13 
   0 -11 -11   -0.10    0.06 
   0 -10 -11    0.10    0.07 
   0  -9 -11    0.05    0.06 
   0  -8 -11    1.06    0.11 
   0  -7 -11    0.09    0.06 
   0  -6 -11    7.08    0.32 
   0  -6 -11    6.81    0.34 
   0   5  11    0.01    0.02 
   0  -5 -11    0.00    0.05 
   0  -5 -11    0.02    0.05 
   0   4  11    0.09    0.03 
   0  -4 -11    0.10    0.05 
   0  -4 -11    0.07    0.04 
   0   3  11   -0.03    0.03 
   0  -3 -11    0.01    0.04 
   0  -3 -11    0.01    0.04 
   0   2  11    2.64    0.14 
   0  -2 -11    2.81    0.16 
   0  -2 -11    2.80    0.16 
   0   1  11    0.02    0.03 
   0  -1 -11   -0.03    0.03 
   0  -1 -11    0.03    0.03 
   0   0  11    0.00    0.03 
   0   0 -11    0.00    0.03 
   0   0 -11    0.01    0.04 
   0  -1  11   -0.07    0.03 
   0   1 -11    0.09    0.04 
   0   1 -11    0.08    0.04 
   0  -2  11    2.28    0.15 
   0   2 -11    2.63    0.13 
   0   2 -11    2.24    0.15 
   0  -3  11   -0.05    0.04 
   0   3 -11    0.01    0.03 
   0   3 -11    0.00    0.04 
   0  -4  11    0.10    0.06 
   0   4 -11    0.07    0.05 
   0  -5  11   -0.04    0.05 
   0   5 -11    0.07    0.06 
   0  -6  11    7.20    0.35 
   0   6 -11    6.00    0.32 
   0  -7  11   -0.06    0.07 
   0   7 -11    0.01    0.07 
   0  -8  11    1.03    0.15 
   0  -9  11    0.12    0.09 
   0 -10  11    0.15    0.09 
   0 -11  11    0.01    0.09 
   0 -12  11    1.00    0.17 
   0 -13  11   -0.02    0.10 
   0 -14  11    0.18    0.13 
   0 -15  11    0.01    0.13 
   0 -16  11    0.35    0.16 
   0 -17  11   -0.08    0.13 
   0 -18  11    0.41    0.19 
   1 -18 -11   -0.02    0.13 
   1 -17 -11   -0.06    0.11 
   1 -16 -11    0.03    0.11 
   1 -15 -11   -0.03    0.09 
   1 -14 -11    0.15    0.10 
   1 -13 -11    1.34    0.15 
   1 -12 -11    0.02    0.08 
   1 -11 -11    0.03    0.07 
   1 -10 -11    0.09    0.07 
   1  -9 -11    5.39    0.28 
   1  -8 -11    0.07    0.06 
   1  -7 -11    8.16    0.36 
   1  -6 -11    0.53    0.08 
   1  -5 -11   10.09    0.42 
  -1   4  11    0.12    0.03 
   1  -4 -11    0.15    0.06 
   1  -4 -11    0.23    0.06 
  -1   3  11    0.10    0.03 
   1  -3 -11    0.11    0.05 
   1  -3 -11    0.09    0.05 
  -1   2  11    2.23    0.12 
   1  -2 -11    2.10    0.14 
   1  -2 -11    2.04    0.13 
  -1   1  11    2.45    0.13 
   1  -1 -11    2.14    0.14 
  -1   0  11    0.05    0.04 
   1   0 -11    0.00    0.03 
   1   0 -11    0.00    0.04 
  -1  -1  11    2.35    0.15 
   1   1 -11    2.24    0.12 
   1   1 -11    2.33    0.15 
  -1  -2  11    2.01    0.14 
   1   2 -11    2.17    0.11 
   1   2 -11    2.01    0.14 
  -1  -3  11    0.15    0.06 
   1   3 -11    0.05    0.05 
  -1  -4  11    0.17    0.07 
   1   4 -11    0.13    0.06 
  -1  -5  11    9.75    0.44 
   1   5 -11    8.97    0.42 
  -1  -6  11    0.46    0.10 
   1   6 -11    0.37    0.09 
  -1  -7  11    8.35    0.41 
   1   7 -11    8.17    0.40 
  -1  -8  11    0.12    0.08 
  -1  -9  11    5.41    0.32 
  -1 -10  11    0.11    0.09 
  -1 -11  11    0.10    0.10 
  -1 -12  11   -0.04    0.10 
  -1 -13  11    1.33    0.21 
  -1 -14  11    0.15    0.12 
  -1 -15  11    0.09    0.13 
  -1 -16  11    0.31    0.15 
  -1 -17  11    0.09    0.16 
  -1 -18  11    0.21    0.17 
   2 -18 -11   -0.01    0.13 
   2 -17 -11   -0.04    0.11 
   2 -16 -11    0.06    0.10 
   2 -15 -11    0.02    0.10 
   2 -14 -11   -0.01    0.09 
   2 -13 -11    0.08    0.09 
   2 -12 -11    3.18    0.22 
   2 -11 -11    0.05    0.08 
   2 -10 -11    0.12    0.07 
   2  -9 -11    0.29    0.08 
   2  -8 -11    1.82    0.15 
   2  -7 -11    1.62    0.14 
   2  -6 -11    2.18    0.15 
   2  -5 -11    1.54    0.13 
  -2   4  11    2.33    0.11 
   2  -4 -11    2.34    0.15 
  -2   3  11    0.36    0.05 
   2  -3 -11    0.33    0.07 
  -2   2  11    9.22    0.38 
   2  -2 -11    9.39    0.39 
  -2   1  11    0.80    0.08 
   2  -1 -11    0.89    0.08 
   2  -1 -11    0.88    0.09 
  -2   0  11    0.03    0.03 
   2   0 -11   -0.05    0.02 
   2   0 -11   -0.04    0.04 
  -2  -1  11    0.98    0.10 
   2   1 -11    0.86    0.07 
   2   1 -11    0.81    0.09 
  -2  -2  11    9.16    0.41 
   2   2 -11    9.19    0.40 
   2   2 -11    9.32    0.36 
  -2  -3  11    0.31    0.07 
   2   3 -11    0.35    0.07 
  -2  -4  11    2.61    0.18 
   2   4 -11    2.43    0.17 
  -2  -5  11    1.28    0.14 
   2   5 -11    1.62    0.14 
  -2  -6  11    1.91    0.17 
   2   6 -11    1.89    0.16 
  -2  -7  11    1.36    0.16 
   2   7 -11    1.36    0.15 
  -2  -8  11    1.66    0.18 
   2   8 -11    1.72    0.17 
  -2  -9  11    0.25    0.10 
  -2 -10  11    0.04    0.09 
  -2 -11  11    0.10    0.09 
  -2 -12  11    2.84    0.26 
  -2 -13  11    0.00    0.11 
  -2 -14  11   -0.16    0.10 
  -2 -15  11   -0.02    0.13 
  -2 -16  11   -0.05    0.12 
  -2 -17  11   -0.10    0.14 
  -2 -18  11   -0.04    0.16 
   3 -18 -11   -0.10    0.11 
   3 -17 -11   -0.13    0.11 
   3 -16 -11    0.25    0.13 
   3 -15 -11    0.93    0.15 
   3 -14 -11    0.23    0.10 
   3 -13 -11    1.48    0.16 
   3 -12 -11    0.10    0.09 
   3 -11 -11    0.16    0.08 
   3 -10 -11    1.27    0.14 
   3  -9 -11    0.95    0.12 
   3  -8 -11    2.52    0.18 
   3  -7 -11    0.14    0.07 
   3  -6 -11    0.09    0.06 
   3  -5 -11    6.22    0.29 
  -3   4  11    3.48    0.15 
   3  -4 -11    3.44    0.19 
  -3   3  11    3.08    0.15 
   3  -3 -11    3.09    0.18 
  -3   2  11    0.24    0.05 
   3  -2 -11    0.17    0.06 
  -3   1  11    0.10    0.04 
   3  -1 -11    0.01    0.03 
   3  -1 -11    0.05    0.05 
   3   0 -11   -0.02    0.03 
   3   0 -11    0.01    0.04 
   3   0 -11    0.02    0.04 
   3   1 -11    0.07    0.03 
   3   1 -11   -0.01    0.04 
   3   1 -11    0.14    0.06 
   3   2 -11    0.28    0.03 
   3   2 -11    0.27    0.06 
   3   2 -11    0.21    0.07 
   3   3 -11    2.98    0.19 
   3   3 -11    3.09    0.18 
   3   4 -11    3.05    0.18 
   3   4 -11    3.03    0.20 
   3   5 -11    5.75    0.30 
   3   5 -11    6.14    0.32 
   3   6 -11   -0.06    0.06 
   3   6 -11    0.02    0.07 
   3   7 -11    0.42    0.10 
   3   7 -11    0.21    0.09 
  -3  -8  11    2.27    0.21 
   3   8 -11    2.55    0.20 
  -3  -9  11    1.13    0.16 
  -3 -10  11    1.37    0.18 
  -3 -11  11    0.08    0.09 
  -3 -12  11    0.11    0.12 
  -3 -13  11    1.54    0.21 
  -3 -14  11    0.26    0.14 
  -3 -15  11    1.05    0.21 
  -3 -16  11    0.27    0.16 
  -3 -17  11   -0.03    0.15 
   4 -17 -11    0.06    0.12 
   4 -16 -11    0.12    0.12 
   4 -15 -11    0.20    0.11 
   4 -14 -11    0.07    0.09 
   4 -13 -11    0.27    0.10 
   4 -12 -11    0.75    0.13 
   4 -11 -11    0.63    0.12 
   4 -10 -11    0.16    0.09 
   4  -9 -11    1.69    0.16 
   4  -8 -11    1.95    0.16 
   4  -7 -11    3.80    0.22 
   4  -6 -11    1.45    0.14 
   4  -5 -11    1.70    0.14 
  -4   4  11    8.94    0.36 
   4  -4 -11    9.22    0.40 
   4  -3 -11    2.26    0.13 
   4  -3 -11    2.61    0.16 
   4  -2 -11    5.30    0.26 
   4  -2 -11    5.19    0.24 
   4  -1 -11    0.20    0.05 
   4  -1 -11    0.23    0.06 
   4   0 -11    0.03    0.03 
   4   0 -11   -0.02    0.04 
   4   0 -11    0.00    0.04 
   4   1 -11    0.20    0.03 
   4   1 -11    0.25    0.07 
   4   1 -11    0.26    0.06 
   4   2 -11    5.46    0.27 
   4   2 -11    5.11    0.26 
   4   3 -11    2.10    0.16 
   4   3 -11    2.41    0.16 
   4   4 -11    8.20    0.38 
   4   4 -11    8.72    0.40 
   4   5 -11    2.09    0.18 
   4   5 -11    1.63    0.15 
   4   6 -11    1.25    0.15 
   4   6 -11    1.42    0.14 
   4   7 -11    4.14    0.25 
   4   7 -11    4.09    0.27 
   4   8 -11    1.93    0.18 
   4   8 -11    1.93    0.20 
   4   9 -11    1.91    0.19 
   4   9 -11    1.73    0.20 
   4  10 -11    0.37    0.13 
  -4 -11  11    0.64    0.14 
  -4 -12  11    0.86    0.17 
  -4 -13  11    0.12    0.12 
  -4 -14  11    0.30    0.15 
  -4 -15  11    0.01    0.13 
  -4 -16  11    0.08    0.14 
  -4 -17  11    0.22    0.18 
   5 -17 -11   -0.04    0.12 
   5 -16 -11   -0.01    0.11 
   5 -15 -11    0.57    0.14 
   5 -14 -11    0.29    0.11 
   5 -13 -11    0.31    0.11 
   5 -12 -11    0.13    0.09 
   5 -11 -11    0.06    0.08 
   5 -10 -11    0.51    0.11 
   5  -9 -11    2.08    0.18 
   5  -8 -11    0.91    0.13 
   5  -7 -11    4.06    0.24 
   5  -6 -11    0.62    0.10 
   5  -5 -11    1.65    0.14 
   5  -4 -11    0.43    0.06 
   5  -4 -11    0.25    0.08 
   5  -3 -11    1.69    0.13 
   5  -3 -11    1.36    0.11 
   5  -2 -11    1.61    0.12 
   5  -2 -11    1.50    0.13 
   5  -1 -11    2.09    0.14 
   5  -1 -11    2.22    0.15 
   5   0 -11    0.10    0.05 
   5   0 -11    0.03    0.05 
   5   1 -11    2.00    0.10 
   5   1 -11    2.46    0.16 
   5   1 -11    1.96    0.14 
   5   2 -11    1.45    0.14 
   5   2 -11    1.56    0.13 
   5   3 -11    1.46    0.15 
   5   3 -11    1.65    0.14 
   5   4 -11    0.43    0.10 
   5   4 -11    0.34    0.08 
   5   5 -11    1.82    0.16 
   5   5 -11    1.67    0.17 
   5   6 -11    0.75    0.13 
   5   6 -11    0.57    0.11 
   5   7 -11    3.97    0.25 
   5   7 -11    4.11    0.27 
   5   8 -11    0.81    0.15 
   5   8 -11    0.96    0.14 
   5   9 -11    1.74    0.18 
   5   9 -11    2.19    0.22 
   5  10 -11    0.68    0.15 
   5  11 -11    0.12    0.11 
   5  12 -11   -0.05    0.10 
  -5 -13  11    0.50    0.15 
  -5 -14  11    0.42    0.16 
  -5 -15  11    0.90    0.21 
  -5 -16  11    0.07    0.16 
  -5 -17  11    0.08    0.17 
   6 -17 -11    0.04    0.12 
   6 -16 -11    0.42    0.15 
   6 -15 -11    0.15    0.11 
   6 -14 -11    0.08    0.10 
   6 -13 -11    0.08    0.10 
   6 -12 -11    0.33    0.11 
   6 -11 -11    0.39    0.11 
   6 -10 -11    0.30    0.10 
   6  -9 -11    1.11    0.14 
   6  -8 -11    0.05    0.08 
   6  -7 -11    9.40    0.43 
   6  -6 -11    1.69    0.15 
   6  -5 -11    0.82    0.11 
   6  -4 -11    2.50    0.17 
   6  -4 -11    2.57    0.14 
   6  -3 -11    0.04    0.05 
   6  -3 -11    0.01    0.06 
   6  -2 -11    0.50    0.09 
   6  -2 -11    0.60    0.08 
   6  -1 -11    0.02    0.05 
   6  -1 -11    0.08    0.06 
   6   0 -11    0.02    0.04 
   6   0 -11   -0.04    0.05 
   6   1 -11    0.11    0.06 
   6   1 -11    0.01    0.04 
   6   2 -11    0.68    0.10 
   6   2 -11    0.52    0.09 
   6   3 -11    0.15    0.07 
   6   3 -11    0.00    0.05 
   6   4 -11    2.62    0.19 
   6   4 -11    2.04    0.16 
   6   5 -11    1.03    0.13 
   6   5 -11    1.07    0.14 
   6   6 -11    1.81    0.16 
   6   6 -11    2.19    0.20 
   6   7 -11    9.32    0.44 
   6   7 -11    9.43    0.47 
   6   8 -11    0.12    0.09 
   6   8 -11   -0.03    0.09 
   6   9 -11    1.49    0.17 
   6   9 -11    1.11    0.17 
   6  10 -11    0.15    0.10 
   6  11 -11    0.37    0.14 
   6  12 -11    0.59    0.16 
   6  13 -11    0.01    0.12 
   6  14 -11    0.18    0.14 
  -6 -15  11    0.05    0.13 
  -6 -16  11    0.30    0.17 
  -6 -17  11   -0.07    0.16 
   7 -16 -11    0.36    0.14 
   7 -15 -11    0.52    0.14 
   7 -14 -11    0.03    0.11 
   7 -13 -11    0.09    0.10 
   7 -12 -11    0.19    0.10 
   7 -11 -11    0.02    0.08 
   7 -10 -11    0.00    0.08 
   7  -9 -11    0.17    0.09 
   7  -8 -11    0.16    0.09 
   7  -7 -11    0.10    0.08 
   7  -6 -11    1.76    0.16 
   7  -5 -11    1.12    0.13 
   7  -4 -11   -0.05    0.05 
   7  -4 -11    0.09    0.07 
   7  -3 -11    4.41    0.23 
   7  -3 -11    3.87    0.21 
   7  -2 -11    1.42    0.12 
   7  -2 -11    1.40    0.13 
   7  -1 -11    1.31    0.13 
   7  -1 -11    1.44    0.13 
   7   0 -11    0.00    0.05 
   7   0 -11   -0.11    0.05 
   7   1 -11    1.12    0.12 
   7   1 -11    1.04    0.11 
   7   2 -11    1.44    0.14 
   7   2 -11    1.32    0.13 
   7   3 -11    3.90    0.22 
   7   3 -11    3.87    0.24 
   7   4 -11    0.00    0.06 
   7   4 -11    0.00    0.06 
   7   5 -11    1.20    0.15 
   7   5 -11    1.17    0.14 
   7   6 -11    2.12    0.20 
   7   6 -11    2.34    0.18 
   7   7 -11    0.01    0.08 
   7   7 -11    0.09    0.09 
   7   8 -11    0.17    0.10 
   7   8 -11    0.27    0.11 
   7   9 -11    0.11    0.09 
   7   9 -11    0.11    0.10 
   7  10 -11    0.25    0.12 
   7  11 -11    0.12    0.11 
   7  12 -11    0.25    0.12 
   7  13 -11    0.01    0.12 
   7  14 -11    0.18    0.14 
   7  15 -11    0.62    0.19 
  -7 -16  11    0.26    0.18 
   8 -16 -11    0.07    0.13 
   8 -15 -11    0.23    0.13 
   8 -14 -11   -0.01    0.11 
   8 -13 -11    0.02    0.10 
   8 -12 -11    0.24    0.11 
   8 -11 -11   -0.07    0.08 
   8 -10 -11    0.07    0.09 
   8  -9 -11    2.25    0.20 
   8  -8 -11    0.29    0.10 
   8  -7 -11    0.17    0.09 
   8  -6 -11    1.24    0.14 
   8  -5 -11    0.55    0.11 
   8  -4 -11    0.18    0.07 
   8  -4 -11    0.13    0.08 
   8  -3 -11    0.09    0.06 
   8  -3 -11    0.00    0.07 
   8  -2 -11    0.41    0.08 
   8  -2 -11    0.27    0.08 
   8  -1 -11    0.64    0.10 
   8  -1 -11    0.51    0.09 
   8   0 -11    0.00    0.06 
   8   0 -11    0.05    0.06 
   8   1 -11    0.60    0.10 
   8   1 -11    0.36    0.09 
   8   2 -11    0.33    0.08 
   8   2 -11    0.42    0.09 
   8   3 -11    0.07    0.07 
   8   3 -11    0.16    0.08 
   8   4 -11    0.21    0.08 
   8   4 -11    0.07    0.07 
   8   5 -11    0.54    0.10 
   8   5 -11    0.66    0.13 
   8   6 -11    1.53    0.16 
   8   6 -11    1.30    0.17 
   8   7 -11   -0.11    0.07 
   8   7 -11    0.04    0.08 
   8   8 -11    0.48    0.12 
   8   8 -11    0.53    0.13 
   8   9 -11    2.34    0.24 
   8   9 -11    2.06    0.20 
   8  10 -11   -0.07    0.08 
   8  11 -11   -0.11    0.09 
   8  12 -11    0.31    0.14 
   8  13 -11   -0.07    0.10 
   8  14 -11    0.16    0.14 
   8  15 -11    0.30    0.17 
   8  16 -11    0.17    0.15 
   9 -16 -11    0.25    0.14 
   9 -15 -11    0.24    0.13 
   9 -14 -11    0.03    0.12 
   9 -13 -11    0.01    0.11 
   9 -12 -11    0.26    0.11 
   9 -11 -11    0.08    0.09 
   9 -10 -11    0.21    0.10 
   9  -9 -11    0.35    0.11 
   9  -8 -11   -0.04    0.08 
   9  -7 -11    1.23    0.15 
   9  -6 -11    2.82    0.20 
   9  -5 -11    2.68    0.20 
   9  -4 -11    0.11    0.08 
   9  -3 -11    0.16    0.08 
   9  -3 -11    0.20    0.08 
   9  -2 -11    0.64    0.10 
   9  -2 -11    0.96    0.12 
   9  -1 -11    0.79    0.11 
   9  -1 -11    0.74    0.11 
   9   0 -11   -0.04    0.06 
   9   0 -11   -0.06    0.05 
   9   1 -11    0.74    0.11 
   9   1 -11    0.85    0.11 
   9   2 -11    0.92    0.13 
   9   2 -11    0.94    0.12 
   9   3 -11    0.17    0.09 
   9   3 -11    0.21    0.08 
   9   4 -11    0.06    0.08 
   9   4 -11    0.03    0.07 
   9   5 -11    2.48    0.22 
   9   5 -11    2.59    0.19 
   9   6 -11    2.85    0.24 
   9   6 -11    2.86    0.21 
   9   7 -11    1.21    0.15 
   9   7 -11    1.05    0.17 
   9   8 -11    0.05    0.08 
   9   8 -11    0.10    0.09 
   9   9 -11    0.13    0.10 
   9   9 -11    0.19    0.11 
   9  10 -11    0.08    0.10 
   9  11 -11   -0.02    0.11 
   9  12 -11    0.14    0.12 
   9  13 -11    0.09    0.13 
   9  14 -11    0.04    0.14 
   9  15 -11    0.23    0.15 
   9  16 -11    0.26    0.15 
  10 -15 -11    0.05    0.12 
  10 -14 -11    0.03    0.10 
  10 -13 -11    0.08    0.10 
  10 -12 -11    0.05    0.10 
  10 -11 -11    0.03    0.10 
  10 -10 -11    0.02    0.09 
  10  -9 -11    0.74    0.14 
  10  -8 -11    0.16    0.09 
  10  -7 -11    0.01    0.08 
  10  -6 -11    0.09    0.09 
  10  -5 -11    2.10    0.18 
  10  -4 -11    0.02    0.08 
  10  -3 -11    0.09    0.07 
  10  -3 -11   -0.04    0.07 
  10  -2 -11    3.35    0.21 
  10  -2 -11    3.86    0.23 
  10  -1 -11    0.36    0.09 
  10  -1 -11    0.37    0.09 
  10   0 -11   -0.01    0.06 
  10   0 -11   -0.10    0.06 
  10   1 -11    0.37    0.09 
  10   1 -11    0.49    0.11 
  10   2 -11    3.20    0.21 
  10   2 -11    3.72    0.24 
  10   3 -11    0.03    0.08 
  10   3 -11   -0.03    0.07 
  10   4 -11    0.01    0.09 
  10   4 -11    0.00    0.07 
  10   5 -11    2.04    0.21 
  10   5 -11    1.96    0.17 
  10   6 -11    0.00    0.08 
  10   6 -11    0.04    0.09 
  10   7 -11    0.05    0.08 
  10   7 -11    0.12    0.09 
  10   8 -11    0.17    0.10 
  10   8 -11    0.12    0.10 
  10   9 -11    0.90    0.17 
  10   9 -11    0.94    0.16 
  10  10 -11    0.25    0.12 
  10  11 -11   -0.03    0.11 
  10  12 -11    0.02    0.13 
  10  13 -11   -0.02    0.13 
  10  14 -11    0.00    0.11 
  10  15 -11    0.49    0.16 
  11 -14 -11   -0.06    0.09 
  11 -13 -11    0.00    0.10 
  11 -12 -11    0.55    0.14 
  11 -11 -11    0.04    0.10 
  11 -10 -11    0.02    0.10 
  11  -9 -11    0.35    0.12 
  11  -8 -11    1.41    0.17 
  11  -7 -11   -0.05    0.09 
  11  -6 -11    0.31    0.11 
  11  -5 -11    0.09    0.09 
  11  -4 -11    0.53    0.12 
  11  -3 -11    0.12    0.08 
  11  -3 -11    0.12    0.10 
  11  -2 -11    0.90    0.13 
  11  -2 -11    0.79    0.12 
  11  -1 -11    0.16    0.09 
  11  -1 -11    0.33    0.09 
  11   0 -11   -0.03    0.08 
  11   0 -11   -0.01    0.08 
  11   1 -11    0.05    0.08 
  11   1 -11    0.26    0.09 
  11   2 -11    0.62    0.11 
  11   2 -11    0.73    0.14 
  11   3 -11   -0.08    0.08 
  11   3 -11    0.06    0.08 
  11   4 -11    0.64    0.12 
  11   4 -11    0.85    0.15 
  11   5 -11   -0.04    0.08 
  11   5 -11    0.19    0.09 
  11   6 -11    0.07    0.09 
  11   6 -11    0.14    0.09 
  11   7 -11    0.03    0.10 
  11   7 -11    0.00    0.10 
  11   8 -11    1.67    0.22 
  11   8 -11    1.41    0.17 
  11   9 -11    0.51    0.14 
  11   9 -11    0.03    0.11 
  11  10 -11    0.03    0.11 
  11  11 -11   -0.19    0.10 
  11  12 -11    0.62    0.18 
  11  13 -11    0.17    0.13 
  11  14 -11    0.20    0.14 
  12 -14 -11    0.02    0.10 
  12 -13 -11   -0.17    0.10 
  12 -12 -11    0.07    0.11 
  12 -11 -11   -0.04    0.10 
  12 -10 -11   -0.05    0.10 
  12  -9 -11    0.06    0.10 
  12  -8 -11    0.08    0.09 
  12  -7 -11    0.46    0.12 
  12  -6 -11   -0.03    0.09 
  12  -5 -11    0.73    0.13 
  12  -4 -11    0.00    0.08 
  12  -3 -11    0.42    0.11 
  12  -3 -11    0.63    0.12 
  12  -2 -11    0.23    0.10 
  12  -2 -11    0.35    0.11 
  12  -1 -11    1.98    0.17 
  12  -1 -11    2.02    0.19 
  12   0 -11    0.09    0.08 
  12   0 -11   -0.08    0.09 
  12   1 -11    2.12    0.18 
  12   1 -11    2.37    0.21 
  12   2 -11    0.06    0.10 
  12   2 -11    0.28    0.10 
  12   3 -11    0.42    0.11 
  12   3 -11    0.59    0.14 
  12   4 -11   -0.03    0.08 
  12   4 -11   -0.02    0.09 
  12   5 -11    0.74    0.15 
  12   5 -11    1.14    0.15 
  12   6 -11   -0.10    0.09 
  12   6 -11    0.01    0.10 
  12   7 -11    0.56    0.13 
  12   7 -11    0.40    0.14 
  12   8 -11   -0.04    0.10 
  12   9 -11    0.00    0.12 
  12  10 -11    0.05    0.13 
  12  11 -11   -0.03    0.13 
  12  12 -11    0.04    0.15 
  12  13 -11   -0.03    0.11 
  12  14 -11   -0.12    0.14 
  13 -13 -11    0.13    0.11 
  13 -12 -11    0.16    0.12 
  13 -11 -11   -0.06    0.10 
  13 -10 -11    0.17    0.12 
  13  -9 -11    0.00    0.10 
  13  -8 -11    0.64    0.14 
  13  -7 -11    0.10    0.10 
  13  -6 -11    0.05    0.10 
  13  -5 -11   -0.05    0.09 
  13  -4 -11    0.16    0.09 
  13  -3 -11    0.11    0.09 
  13  -3 -11    0.06    0.09 
  13  -2 -11    0.16    0.09 
  13  -2 -11    0.21    0.10 
  13  -1 -11    0.16    0.10 
  13  -1 -11    0.03    0.09 
  13   0 -11    0.04    0.09 
  13   0 -11    0.00    0.10 
  13   1 -11    0.14    0.09 
  13   1 -11    0.14    0.10 
  13   2 -11    0.20    0.11 
  13   2 -11    0.35    0.10 
  13   3 -11    0.08    0.10 
  13   3 -11    0.08    0.09 
  13   4 -11    0.20    0.11 
  13   4 -11    0.12    0.09 
  13   5 -11   -0.01    0.09 
  13   5 -11   -0.05    0.10 
  13   6 -11   -0.04    0.10 
  13   7 -11    0.11    0.11 
  13   8 -11    0.10    0.12 
  13   9 -11    0.10    0.12 
  13  10 -11    0.12    0.14 
  13  11 -11   -0.09    0.13 
  13  12 -11   -0.05    0.15 
  13  13 -11    0.29    0.16 
  14 -12 -11    0.28    0.12 
  14 -11 -11    0.00    0.11 
  14 -10 -11   -0.10    0.10 
  14  -9 -11    0.13    0.11 
  14  -8 -11    0.31    0.13 
  14  -7 -11   -0.02    0.11 
  14  -6 -11    0.06    0.10 
  14  -5 -11    0.03    0.10 
  14  -4 -11   -0.06    0.09 
  14  -3 -11    0.95    0.14 
  14  -2 -11   -0.06    0.09 
  14  -2 -11    0.07    0.10 
  14  -1 -11    0.29    0.11 
  14  -1 -11    0.35    0.13 
  14   0 -11    0.17    0.10 
  14   0 -11   -0.04    0.08 
  14   1 -11    0.25    0.10 
  14   1 -11    0.17    0.10 
  14   2 -11   -0.05    0.09 
  14   2 -11    0.07    0.10 
  14   3 -11    1.32    0.16 
  14   3 -11    1.07    0.18 
  14   4 -11    0.21    0.12 
  14   5 -11    0.14    0.12 
  14   6 -11    0.12    0.12 
  14   7 -11   -0.03    0.11 
  14   8 -11   -0.02    0.11 
  14   9 -11   -0.05    0.12 
  14  10 -11   -0.01    0.14 
  14  11 -11    0.14    0.16 
  14  12 -11    0.04    0.16 
  15 -11 -11    0.21    0.13 
  15 -10 -11   -0.05    0.12 
  15  -9 -11    0.01    0.12 
  15  -8 -11    0.30    0.13 
  15  -7 -11    0.01    0.11 
  15  -6 -11    0.28    0.12 
  15  -5 -11    0.00    0.10 
  15  -4 -11    0.05    0.10 
  15  -3 -11   -0.06    0.10 
  15  -2 -11    0.37    0.12 
  15  -2 -11    0.48    0.13 
  15  -1 -11    0.04    0.09 
  15  -1 -11    0.01    0.09 
  15   0 -11   -0.20    0.09 
  15   0 -11    0.04    0.10 
  15   1 -11    0.13    0.11 
  15   1 -11   -0.02    0.10 
  15   2 -11    0.36    0.13 
  15   3 -11   -0.02    0.11 
  15   4 -11    0.20    0.12 
  15   5 -11   -0.06    0.11 
  15   6 -11    0.16    0.14 
  15   7 -11   -0.12    0.12 
  15   8 -11    0.22    0.16 
  15   9 -11    0.19    0.16 
  15  10 -11   -0.13    0.13 
  15  11 -11   -0.12    0.15 
  16  -9 -11    0.17    0.12 
  16  -8 -11    0.19    0.13 
  16  -7 -11   -0.02    0.12 
  16  -6 -11   -0.06    0.10 
  16  -5 -11    0.12    0.12 
  16  -4 -11    0.24    0.12 
  16  -3 -11   -0.13    0.10 
  16  -2 -11    0.11    0.11 
  16  -1 -11    0.07    0.12 
  16   0 -11   -0.03    0.10 
  16   1 -11    0.13    0.13 
  16   2 -11    0.10    0.13 
  16   3 -11    0.13    0.12 
  16   4 -11   -0.06    0.12 
  16   5 -11    0.02    0.14 
  16   6 -11   -0.06    0.12 
  16   7 -11   -0.06    0.14 
  16   8 -11   -0.23    0.14 
  16   9 -11    0.13    0.16 
  17  -8 -11   -0.09    0.13 
  17  -7 -11    0.22    0.13 
  17  -6 -11    0.13    0.13 
  17  -5 -11    0.11    0.13 
  17  -4 -11   -0.07    0.13 
  17  -1 -11    0.09    0.13 
  17   0 -11    0.10    0.13 
  17   1 -11   -0.03    0.13 
  17   2 -11    0.12    0.14 
  17   3 -11    0.02    0.14 
  17   4 -11   -0.17    0.13 
  17   5 -11    0.17    0.17 
  17   6 -11    0.34    0.18 
  17   7 -11   -0.09    0.15 
  17   8 -11    0.07    0.16 
  18   0 -11    0.09    0.15 
  18   1 -11   -0.01    0.14 
  18   2 -11    0.12    0.16 
  18   3 -11    0.07    0.15 
  18   4 -11   -0.09    0.15 
  18   5 -11    0.09    0.16 
  18   4  12    0.21    0.11 
  18   3  12    0.28    0.12 
  18   2  12    0.23    0.11 
  18   1  12    0.51    0.13 
  18   0  12    0.15    0.11 
  18  -1  12    0.11    0.10 
  18  -2  12    0.27    0.12 
  18  -3  12    0.25    0.11 
  18  -4  12    0.15    0.10 
  17   7  12    0.05    0.11 
  17   6  12    0.20    0.11 
 -17  -6 -12    0.11    0.17 
  17   5  12    0.14    0.11 
 -17  -5 -12   -0.04    0.15 
  17   4  12    0.05    0.10 
 -17  -4 -12   -0.02    0.14 
  17   3  12    0.00    0.09 
 -17  -3 -12   -0.06    0.15 
  17   2  12   -0.01    0.10 
  17   1  12    0.20    0.12 
  17   0  12    0.31    0.12 
  17  -1  12    0.01    0.09 
  17  -2  12   -0.02    0.10 
  17  -3  12    0.09    0.10 
  17  -4  12    0.36    0.13 
  17  -5  12    0.12    0.10 
  17  -6  12    0.28    0.11 
  17  -7  12    0.07    0.15 
  16   8  12    0.07    0.14 
 -16  -8 -12   -0.07    0.15 
  16   7  12    0.24    0.12 
 -16  -7 -12   -0.02    0.15 
  16   6  12    0.09    0.11 
 -16  -6 -12    0.07    0.15 
  16   5  12    0.33    0.12 
 -16  -5 -12    0.10    0.15 
  16   4  12    0.30    0.12 
 -16  -4 -12   -0.05    0.14 
  16   3  12    0.04    0.10 
 -16  -3 -12   -0.04    0.14 
  16   2  12    0.20    0.11 
 -16  -2 -12    0.14    0.14 
  16   1  12    0.02    0.09 
  16   0  12    0.09    0.10 
  16  -1  12    0.10    0.09 
  16  -2  12   -0.01    0.09 
  16  -3  12   -0.02    0.09 
  16  -4  12    0.06    0.09 
  16  -5  12    0.20    0.11 
  16  -6  12    0.04    0.09 
  16  -7  12    0.11    0.15 
  16  -8  12   -0.14    0.14 
 -15 -10 -12    0.46    0.18 
 -15  -9 -12    0.01    0.15 
  15   8  12   -0.05    0.12 
 -15  -8 -12    0.01    0.14 
  15   7  12    0.26    0.12 
 -15  -7 -12   -0.18    0.13 
  15   6  12    0.15    0.11 
 -15  -6 -12    0.03    0.14 
  15   5  12   -0.05    0.09 
 -15  -5 -12   -0.04    0.13 
  15   4  12    0.25    0.12 
 -15  -4 -12    0.04    0.13 
  15   3  12    0.12    0.10 
 -15  -3 -12   -0.19    0.12 
  15   2  12    0.01    0.09 
 -15  -2 -12    0.06    0.11 
  15   1  12   -0.03    0.09 
 -15  -1 -12   -0.02    0.10 
  15   0  12    0.33    0.11 
  15  -1  12    0.12    0.10 
  15  -2  12   -0.10    0.09 
  15  -3  12   -0.01    0.09 
  15  -4  12    0.25    0.11 
  15  -5  12    0.05    0.10 
  15  -6  12    0.12    0.10 
  15  -7  12    0.06    0.14 
  15  -8  12   -0.06    0.14 
  15  -9  12    0.08    0.15 
  15 -10  12    0.17    0.17 
 -14 -11 -12    0.09    0.17 
 -14 -10 -12   -0.11    0.14 
 -14  -9 -12   -0.05    0.13 
  14   8  12   -0.01    0.12 
 -14  -8 -12    0.01    0.14 
  14   7  12    0.60    0.14 
 -14  -7 -12    0.76    0.18 
  14   6  12    0.11    0.10 
 -14  -6 -12    0.01    0.12 
  14   5  12    0.34    0.12 
 -14  -5 -12    0.15    0.13 
  14   4  12    0.08    0.10 
 -14  -4 -12    0.01    0.12 
  14   3  12   -0.05    0.08 
 -14  -3 -12    0.02    0.12 
  14   2  12    0.29    0.10 
 -14  -2 -12    0.11    0.11 
  14   1  12    0.06    0.09 
 -14  -1 -12    0.01    0.10 
  14   0  12   -0.08    0.07 
  14  -1  12    0.00    0.08 
  14  -2  12    0.18    0.10 
  14  -3  12    0.02    0.09 
  14  -4  12    0.12    0.10 
  14  -5  12    0.11    0.10 
  14  -6  12    0.05    0.10 
  14  -7  12    0.46    0.14 
  14  -8  12   -0.13    0.13 
  14  -9  12    0.14    0.14 
  14 -10  12    0.19    0.16 
  14 -11  12   -0.01    0.16 
 -13 -12 -12   -0.08    0.16 
 -13 -11 -12    0.09    0.16 
 -13 -10 -12    0.42    0.17 
 -13  -9 -12    0.05    0.14 
  13   8  12    0.58    0.13 
 -13  -8 -12    0.40    0.15 
  13   7  12    0.18    0.10 
 -13  -7 -12    0.25    0.14 
  13   6  12   -0.02    0.08 
 -13  -6 -12    0.11    0.11 
  13   5  12    0.15    0.08 
 -13  -5 -12   -0.08    0.11 
  13   4  12    1.43    0.17 
 -13  -4 -12    1.45    0.20 
  13   3  12    0.14    0.09 
 -13  -3 -12    0.27    0.13 
  13   2  12   -0.02    0.07 
 -13  -2 -12    0.02    0.10 
  13   1  12   -0.02    0.08 
 -13  -1 -12   -0.09    0.09 
  13   0  12    0.51    0.12 
 -13   0 -12    0.42    0.13 
  13  -1  12    0.08    0.10 
  13  -2  12    0.07    0.09 
  13  -3  12    0.03    0.08 
  13  -4  12    1.09    0.16 
  13  -5  12    0.07    0.09 
  13  -6  12   -0.07    0.08 
  13  -7  12    0.04    0.10 
  13  -8  12    0.53    0.16 
  13  -9  12   -0.19    0.12 
  13 -10  12    0.10    0.15 
  13 -11  12   -0.06    0.14 
  13 -12  12    0.00    0.15 
 -12 -13 -12    0.10    0.17 
 -12 -12 -12   -0.04    0.15 
 -12 -11 -12    0.07    0.14 
 -12 -10 -12   -0.13    0.12 
 -12  -9 -12    0.20    0.14 
 -12  -8 -12   -0.17    0.11 
  12   7  12    0.10    0.09 
 -12  -7 -12   -0.09    0.11 
  12   6  12    0.28    0.10 
 -12  -6 -12    0.45    0.15 
  12   5  12    0.21    0.10 
 -12  -5 -12    0.02    0.10 
  12   4  12    0.26    0.10 
 -12  -4 -12    0.11    0.11 
  12   3  12    0.14    0.08 
 -12  -3 -12   -0.03    0.10 
  12   2  12    1.64    0.18 
 -12  -2 -12    1.42    0.19 
  12   1  12    0.05    0.08 
 -12  -1 -12    0.17    0.10 
  12   0  12    3.39    0.24 
 -12   0 -12    3.20    0.25 
  12  -1  12    0.15    0.09 
  12  -2  12    1.45    0.17 
  12  -3  12    0.16    0.09 
  12  -4  12    0.25    0.11 
  12  -5  12    0.03    0.09 
  12  -6  12    0.08    0.11 
  12  -7  12    0.05    0.09 
  12  -8  12    0.04    0.11 
  12  -9  12    0.05    0.13 
  12 -10  12   -0.03    0.13 
  12 -11  12    0.02    0.13 
  12 -12  12    0.04    0.15 
  12 -13  12    0.23    0.18 
 -11 -14 -12    0.03    0.15 
 -11 -13 -12   -0.06    0.14 
 -11 -12 -12   -0.14    0.12 
 -11 -11 -12    0.17    0.14 
 -11 -10 -12   -0.03    0.12 
 -11  -9 -12    0.05    0.12 
 -11  -8 -12    0.33    0.14 
  11   7  12    0.13    0.09 
 -11  -7 -12    0.35    0.13 
  11   6  12    0.44    0.11 
 -11  -6 -12    0.45    0.14 
  11   5  12    0.07    0.08 
 -11  -5 -12    0.12    0.10 
  11   4  12    1.35    0.15 
 -11  -4 -12    1.29    0.17 
  11   3  12    0.14    0.09 
 -11  -3 -12   -0.09    0.08 
  11   2  12    0.68    0.12 
 -11  -2 -12    0.77    0.15 
  11   1  12    0.11    0.09 
 -11  -1 -12    0.05    0.10 
  11   0  12    0.39    0.10 
 -11   0 -12    0.25    0.11 
  11  -1  12    0.05    0.08 
 -11   1 -12    0.11    0.11 
  11  -2  12    0.90    0.15 
  11  -3  12    0.03    0.07 
  11  -4  12    1.42    0.17 
  11  -5  12    0.27    0.11 
  11  -6  12    0.51    0.13 
  11  -7  12    0.15    0.11 
  11  -8  12    0.45    0.14 
  11  -9  12    0.19    0.13 
  11 -10  12   -0.01    0.12 
  11 -11  12    0.08    0.13 
  11 -12  12   -0.23    0.12 
  11 -13  12   -0.03    0.15 
  11 -14  12    0.12    0.16 
 -10 -14 -12    0.17    0.16 
 -10 -13 -12    0.02    0.13 
 -10 -12 -12    0.44    0.17 
 -10 -11 -12    0.11    0.13 
 -10 -10 -12    0.00    0.11 
 -10  -9 -12    0.38    0.14 
 -10  -8 -12    0.06    0.10 
  10   7  12    0.31    0.10 
 -10  -7 -12    0.30    0.13 
  10   6  12    0.06    0.08 
 -10  -6 -12   -0.10    0.09 
  10   5  12    0.09    0.08 
 -10  -5 -12    0.10    0.10 
  10   4  12    0.39    0.10 
 -10  -4 -12    0.62    0.14 
  10   3  12    0.63    0.11 
 -10  -3 -12    0.53    0.13 
  10   2  12    0.58    0.11 
 -10  -2 -12    0.71    0.14 
  10   1  12    0.10    0.08 
 -10  -1 -12    0.05    0.09 
  10   0  12    1.82    0.17 
 -10   0 -12    1.45    0.17 
  10  -1  12    0.17    0.09 
 -10   1 -12    0.00    0.08 
  10  -2  12    0.70    0.13 
  10  -3  12    0.60    0.13 
  10  -4  12    0.51    0.12 
  10  -5  12   -0.01    0.08 
  10  -6  12    0.06    0.09 
  10  -7  12    0.19    0.10 
  10  -8  12    0.02    0.08 
  10  -9  12    0.12    0.12 
  10 -10  12    0.01    0.10 
  10 -11  12    0.17    0.13 
  10 -12  12    0.15    0.14 
  10 -13  12    0.14    0.15 
  10 -14  12   -0.03    0.15 
  -9 -15 -12    0.02    0.16 
  -9 -14 -12    0.61    0.19 
  -9 -13 -12    0.03    0.14 
  -9 -12 -12    0.00    0.12 
  -9 -11 -12    0.50    0.15 
  -9 -10 -12    0.42    0.14 
  -9  -9 -12    0.47    0.14 
  -9  -8 -12    0.03    0.10 
   9   7  12    0.39    0.10 
  -9  -7 -12    0.35    0.12 
   9   6  12    3.61    0.23 
  -9  -6 -12    3.67    0.26 
   9   5  12    0.04    0.07 
  -9  -5 -12   -0.03    0.09 
   9   4  12    1.83    0.16 
  -9  -4 -12    1.94    0.19 
   9   3  12    0.01    0.07 
  -9  -3 -12    0.10    0.10 
   9   2  12   -0.09    0.06 
  -9  -2 -12   -0.02    0.08 
   9   1  12    0.73    0.11 
  -9  -1 -12    0.65    0.13 
   9   0  12    1.68    0.16 
  -9   0 -12    1.30    0.16 
   9  -1  12    0.57    0.11 
  -9   1 -12    0.51    0.12 
   9  -2  12    0.00    0.07 
  -9   2 -12    0.10    0.09 
   9  -3  12    0.06    0.08 
   9  -4  12    1.95    0.19 
   9  -5  12    0.07    0.09 
   9  -6  12    4.07    0.27 
   9  -7  12    0.29    0.10 
   9  -8  12   -0.07    0.07 
   9  -9  12    0.33    0.13 
   9 -10  12    0.44    0.14 
   9 -11  12    0.23    0.14 
   9 -12  12    0.06    0.14 
   9 -13  12    0.11    0.14 
   9 -14  12    0.69    0.21 
   9 -15  12    0.12    0.16 
  -8 -15 -12   -0.11    0.14 
  -8 -14 -12   -0.04    0.14 
  -8 -13 -12    0.03    0.14 
  -8 -12 -12    0.04    0.12 
  -8 -11 -12    0.28    0.13 
  -8 -10 -12    0.41    0.14 
  -8  -9 -12    0.88    0.16 
  -8  -8 -12    0.03    0.09 
  -8  -7 -12    1.09    0.16 
   8   6  12    0.76    0.11 
  -8  -6 -12    0.95    0.15 
   8   5  12    2.14    0.16 
  -8  -5 -12    1.92    0.19 
   8   4  12    0.06    0.07 
  -8  -4 -12    0.32    0.11 
   8   3  12    0.57    0.10 
  -8  -3 -12    0.50    0.12 
   8   2  12   -0.05    0.06 
  -8  -2 -12    0.02    0.08 
  -8  -2 -12    0.05    0.06 
   8   1  12    2.22    0.16 
  -8  -1 -12    2.09    0.14 
  -8  -1 -12    1.58    0.17 
   8   0  12    0.74    0.12 
  -8   0 -12    1.00    0.11 
  -8   0 -12    1.01    0.13 
   8  -1  12    2.11    0.16 
  -8   1 -12    1.65    0.17 
   8  -2  12    0.02    0.08 
  -8   2 -12   -0.08    0.08 
   8  -3  12    0.81    0.13 
   8  -4  12    0.17    0.08 
   8  -5  12    2.49    0.21 
   8  -6  12    0.80    0.14 
   8  -7  12    0.98    0.15 
   8  -8  12    0.19    0.10 
   8  -9  12    0.98    0.16 
   8 -10  12    0.42    0.14 
   8 -11  12    0.35    0.13 
   8 -12  12    0.06    0.13 
   8 -13  12    0.02    0.13 
   8 -14  12    0.04    0.14 
   8 -15  12   -0.04    0.15 
   8 -16  12   -0.09    0.16 
  -7 -16 -12    0.12    0.16 
  -7 -15 -12    0.01    0.14 
  -7 -14 -12    0.28    0.15 
  -7 -13 -12    0.35    0.15 
  -7 -12 -12   -0.19    0.09 
  -7 -11 -12    0.39    0.13 
  -7 -10 -12    1.73    0.20 
  -7  -9 -12    0.13    0.11 
  -7  -8 -12    0.86    0.16 
  -7  -7 -12    2.13    0.20 
   7   6  12    0.07    0.06 
  -7  -6 -12    0.07    0.09 
   7   5  12    0.01    0.05 
  -7  -5 -12   -0.03    0.08 
   7   4  12    0.18    0.07 
  -7  -4 -12    0.28    0.07 
  -7  -4 -12    0.19    0.10 
   7   3  12    4.03    0.22 
  -7  -3 -12    3.98    0.25 
  -7  -3 -12    4.03    0.21 
   7   2  12    0.03    0.06 
  -7  -2 -12    0.11    0.06 
  -7  -2 -12    0.08    0.08 
   7   1  12    1.69    0.14 
  -7  -1 -12    1.56    0.16 
  -7  -1 -12    1.70    0.13 
   7   0  12    5.67    0.29 
  -7   0 -12    5.88    0.31 
  -7   0 -12    5.93    0.28 
   7  -1  12    1.44    0.15 
  -7   1 -12    1.54    0.16 
  -7   1 -12    1.60    0.13 
   7  -2  12    0.06    0.07 
  -7   2 -12    0.01    0.08 
   7  -3  12    4.35    0.25 
   7  -4  12    0.25    0.09 
   7  -5  12    0.00    0.08 
   7  -6  12    0.17    0.09 
   7  -7  12    1.94    0.19 
   7  -8  12    0.94    0.15 
   7  -9  12    0.19    0.11 
   7 -10  12    1.76    0.21 
   7 -11  12    0.19    0.12 
   7 -12  12   -0.08    0.09 
   7 -13  12    0.36    0.15 
   7 -14  12    0.27    0.15 
   7 -15  12    0.07    0.16 
   7 -16  12   -0.13    0.15 
  -6 -16 -12    0.03    0.16 
  -6 -15 -12    0.02    0.13 
  -6 -14 -12    0.07    0.14 
  -6 -13 -12   -0.07    0.11 
  -6 -12 -12   -0.06    0.11 
  -6 -11 -12    0.18    0.11 
  -6 -10 -12    0.30    0.12 
  -6  -9 -12   -0.04    0.08 
  -6  -8 -12    0.07    0.09 
  -6  -7 -12    0.22    0.10 
   6   6  12    1.55    0.12 
  -6  -6 -12    1.40    0.16 
  -6  -6 -12    1.65    0.12 
   6   5  12    3.22    0.18 
  -6  -5 -12    3.30    0.22 
  -6  -5 -12    3.22    0.18 
   6   4  12   -0.02    0.04 
  -6  -4 -12    0.03    0.08 
  -6  -4 -12   -0.01    0.05 
   6   3  12    1.46    0.13 
  -6  -3 -12    1.29    0.11 
  -6  -3 -12    1.52    0.15 
   6   2  12    0.70    0.10 
  -6  -2 -12    0.83    0.10 
  -6  -2 -12    0.78    0.12 
   6   1  12    0.31    0.08 
  -6  -1 -12    0.35    0.08 
  -6  -1 -12    0.42    0.08 
   6   0  12    3.06    0.19 
  -6   0 -12    3.01    0.19 
  -6   0 -12    3.35    0.19 
   6  -1  12    0.38    0.08 
  -6   1 -12    0.23    0.07 
  -6   1 -12    0.36    0.08 
   6  -2  12    0.95    0.12 
  -6   2 -12    0.74    0.11 
  -6   2 -12    0.69    0.10 
   6  -3  12    1.38    0.15 
   6  -4  12   -0.04    0.06 
   6  -5  12    3.75    0.24 
   6  -6  12    1.47    0.17 
   6  -7  12    0.25    0.10 
   6  -8  12    0.06    0.07 
   6  -9  12    0.08    0.09 
   6 -10  12    0.31    0.12 
   6 -11  12    0.24    0.12 
   6 -12  12    0.01    0.10 
   6 -13  12   -0.03    0.11 
   6 -14  12    0.08    0.14 
   6 -15  12   -0.02    0.14 
   6 -16  12   -0.02    0.16 
  -5 -17 -12    0.75    0.23 
  -5 -16 -12    0.02    0.15 
  -5 -15 -12    0.23    0.16 
  -5 -14 -12    0.40    0.15 
  -5 -13 -12    0.56    0.16 
  -5 -12 -12    0.25    0.12 
  -5 -11 -12    0.51    0.14 
  -5 -10 -12    0.24    0.11 
  -5  -9 -12    0.21    0.07 
  -5  -9 -12    0.45    0.13 
  -5  -8 -12    1.67    0.13 
  -5  -8 -12    1.72    0.18 
  -5  -7 -12    2.63    0.20 
  -5  -7 -12    2.67    0.16 
   5   6  12    1.38    0.11 
  -5  -6 -12    1.35    0.11 
  -5  -6 -12    1.35    0.16 
   5   5  12    0.10    0.05 
  -5  -5 -12    0.17    0.06 
  -5  -5 -12    0.07    0.08 
   5   4  12    2.69    0.16 
  -5  -4 -12    2.88    0.20 
  -5  -4 -12    2.90    0.16 
  -5  -3 -12    2.09    0.14 
  -5  -3 -12    1.90    0.16 
   5   2  12    0.02    0.04 
  -5  -2 -12    0.07    0.05 
  -5  -2 -12    0.04    0.06 
   5   1  12    1.45    0.13 
  -5  -1 -12    1.66    0.13 
  -5  -1 -12    1.68    0.13 
   5   0  12    0.50    0.09 
  -5   0 -12    0.54    0.09 
  -5   0 -12    0.71    0.09 
   5  -1  12    1.61    0.14 
  -5   1 -12    1.46    0.13 
  -5   1 -12    1.51    0.14 
   5  -2  12   -0.07    0.05 
  -5   2 -12   -0.04    0.04 
  -5   2 -12    0.03    0.05 
   5  -3  12    2.03    0.16 
  -5   3 -12    1.86    0.15 
   5  -4  12    2.90    0.20 
   5  -5  12    0.11    0.08 
   5  -6  12    1.12    0.15 
   5  -7  12    2.40    0.19 
   5  -8  12    1.85    0.19 
   5  -9  12    0.35    0.11 
   5 -10  12    0.16    0.11 
   5 -11  12    0.36    0.12 
   5 -12  12    0.39    0.14 
   5 -13  12    0.63    0.17 
   5 -14  12    0.25    0.15 
   5 -15  12   -0.02    0.12 
   5 -16  12   -0.21    0.14 
   5 -17  12    0.71    0.21 
  -4 -17 -12    0.13    0.17 
  -4 -16 -12   -0.06    0.14 
  -4 -15 -12   -0.04    0.13 
  -4 -14 -12    0.19    0.14 
  -4 -13 -12   -0.01    0.10 
  -4 -12 -12    0.16    0.12 
  -4 -11 -12    0.07    0.08 
  -4 -11 -12    0.01    0.10 
  -4 -10 -12    0.70    0.14 
  -4 -10 -12    0.51    0.10 
  -4  -9 -12    4.02    0.22 
  -4  -9 -12    4.20    0.27 
  -4  -8 -12    0.23    0.10 
  -4  -8 -12    0.28    0.07 
  -4  -7 -12    0.06    0.09 
  -4  -7 -12    0.09    0.06 
   4   6  12    0.97    0.09 
  -4  -6 -12    0.95    0.14 
  -4  -6 -12    0.85    0.10 
   4   5  12    3.36    0.17 
  -4  -5 -12    3.22    0.18 
  -4  -5 -12    3.22    0.21 
   4   4  12    1.06    0.09 
  -4  -4 -12    0.94    0.12 
  -4  -4 -12    0.94    0.09 
   4   3  12    1.63    0.11 
  -4  -3 -12    1.55    0.12 
  -4  -3 -12    1.30    0.13 
   4   2  12    7.10    0.33 
  -4  -2 -12    7.86    0.33 
  -4  -2 -12    7.63    0.35 
   4   1  12    0.63    0.08 
  -4  -1 -12    0.58    0.08 
  -4  -1 -12    0.55    0.09 
   4   0  12    5.89    0.27 
  -4   0 -12    5.24    0.27 
  -4   0 -12    5.52    0.27 
   4  -1  12    0.66    0.10 
  -4   1 -12    0.49    0.08 
  -4   1 -12    0.56    0.08 
   4  -2  12    8.09    0.37 
  -4   2 -12    7.65    0.36 
  -4   2 -12    8.19    0.37 
   4  -3  12    1.69    0.15 
  -4   3 -12    1.54    0.14 
  -4   3 -12    1.57    0.13 
   4  -4  12    0.97    0.13 
  -4   4 -12    0.94    0.12 
   4  -5  12    3.53    0.22 
   4  -6  12    0.90    0.13 
   4  -7  12    0.09    0.08 
   4  -8  12    0.16    0.09 
   4  -9  12    4.09    0.27 
   4 -10  12    0.74    0.15 
   4 -11  12    0.05    0.10 
   4 -12  12    0.22    0.12 
   4 -13  12   -0.06    0.10 
   4 -14  12    0.19    0.15 
   4 -15  12   -0.03    0.14 
   4 -16  12    0.08    0.15 
   4 -17  12    0.03    0.16 
  -3 -17 -12    0.93    0.22 
  -3 -16 -12    0.05    0.15 
  -3 -15 -12    0.27    0.16 
  -3 -14 -12    0.23    0.13 
  -3 -13 -12    0.34    0.10 
  -3 -13 -12    0.31    0.13 
  -3 -12 -12    0.01    0.10 
  -3 -12 -12    0.20    0.09 
  -3 -11 -12    3.82    0.22 
  -3 -11 -12    3.92    0.28 
  -3 -10 -12    0.13    0.10 
  -3 -10 -12    0.10    0.07 
  -3  -9 -12    0.59    0.13 
  -3  -9 -12    0.82    0.10 
  -3  -8 -12    0.56    0.09 
  -3  -8 -12    0.67    0.13 
  -3  -7 -12    6.10    0.33 
  -3  -7 -12    6.26    0.29 
  -3  -6 -12    1.61    0.13 
  -3  -6 -12    1.41    0.15 
   3   5  12    0.12    0.04 
  -3  -5 -12    0.00    0.05 
  -3  -5 -12    0.02    0.05 
   3   4  12    2.76    0.14 
  -3  -4 -12    2.48    0.17 
  -3  -4 -12    2.70    0.16 
   3   3  12    2.39    0.14 
  -3  -3 -12    2.46    0.17 
  -3  -3 -12    2.41    0.15 
  -3  -2 -12    2.26    0.15 
  -3  -2 -12    1.65    0.13 
   3   1  12    2.71    0.16 
  -3  -1 -12    2.64    0.16 
  -3  -1 -12    2.59    0.16 
   3   0  12    2.60    0.15 
  -3   0 -12    2.29    0.15 
  -3   0 -12    2.30    0.15 
   3  -1  12    2.66    0.16 
  -3   1 -12    2.63    0.16 
  -3   1 -12    2.62    0.17 
   3  -2  12    1.80    0.14 
  -3   2 -12    2.00    0.14 
  -3   2 -12    1.99    0.15 
   3  -3  12    2.19    0.16 
  -3   3 -12    2.39    0.15 
  -3   3 -12    2.49    0.17 
   3  -4  12    2.96    0.19 
  -3   4 -12    3.09    0.20 
   3  -5  12    0.08    0.07 
  -3   5 -12    0.04    0.06 
   3  -6  12    1.40    0.15 
   3  -7  12    6.33    0.34 
   3  -8  12    0.59    0.12 
   3  -9  12    0.55    0.12 
   3 -10  12    0.12    0.10 
   3 -11  12    3.56    0.27 
   3 -12  12    0.08    0.11 
   3 -13  12    0.22    0.12 
   3 -14  12    0.24    0.14 
   3 -15  12    0.21    0.15 
   3 -16  12    0.04    0.15 
   3 -17  12    0.83    0.22 
  -2 -17 -12   -0.08    0.15 
  -2 -16 -12    0.09    0.15 
  -2 -15 -12   -0.11    0.11 
  -2 -14 -12    0.27    0.10 
  -2 -14 -12    0.18    0.12 
  -2 -13 -12   -0.03    0.08 
  -2 -13 -12   -0.12    0.09 
  -2 -12 -12    0.30    0.10 
  -2 -12 -12    0.32    0.12 
  -2 -11 -12    0.79    0.11 
  -2 -11 -12    0.76    0.15 
  -2 -10 -12    0.09    0.09 
  -2 -10 -12   -0.04    0.06 
  -2  -9 -12    0.41    0.09 
  -2  -9 -12    0.33    0.11 
  -2  -8 -12    0.88    0.14 
  -2  -8 -12    0.97    0.11 
  -2  -7 -12    1.63    0.13 
  -2  -7 -12    1.33    0.16 
  -2  -6 -12   -0.03    0.08 
  -2  -6 -12   -0.02    0.05 
   2   5  12    1.26    0.09 
  -2  -5 -12    1.22    0.13 
  -2  -5 -12    1.20    0.11 
   2   4  12    0.07    0.04 
  -2  -4 -12    0.11    0.06 
  -2  -4 -12    0.11    0.05 
   2   3  12    5.54    0.24 
  -2  -3 -12    4.97    0.26 
  -2  -3 -12    5.27    0.25 
   2   2  12    0.27    0.06 
  -2  -2 -12    0.23    0.07 
  -2  -2 -12    0.40    0.07 
  -2  -1 -12    0.43    0.07 
  -2  -1 -12    0.45    0.08 
   2   0  12    0.31    0.07 
  -2   0 -12    0.33    0.07 
  -2   0 -12    0.16    0.06 
   2  -1  12    0.51    0.08 
  -2   1 -12    0.41    0.07 
  -2   1 -12    0.52    0.08 
   2  -2  12    0.33    0.08 
  -2   2 -12    0.27    0.07 
   2  -3  12    5.24    0.27 
  -2   3 -12    5.49    0.25 
  -2   3 -12    5.15    0.27 
   2  -4  12    0.12    0.07 
  -2   4 -12   -0.02    0.05 
   2  -5  12    1.15    0.13 
  -2   5 -12    1.24    0.14 
   2  -6  12   -0.06    0.05 
  -2   6 -12    0.07    0.07 
   2  -7  12    1.44    0.16 
   2  -8  12    0.92    0.14 
   2  -9  12    0.42    0.11 
   2 -10  12    0.07    0.09 
   2 -11  12    0.73    0.15 
   2 -12  12    0.37    0.13 
   2 -13  12   -0.04    0.11 
   2 -14  12    0.34    0.15 
   2 -15  12    0.03    0.13 
   2 -16  12    0.14    0.15 
   2 -17  12    0.14    0.17 
  -1 -17 -12    0.17    0.17 
  -1 -16 -12    0.18    0.13 
  -1 -16 -12    0.04    0.11 
  -1 -15 -12   -0.02    0.11 
  -1 -15 -12    0.12    0.10 
  -1 -14 -12    0.05    0.12 
  -1 -14 -12    0.06    0.09 
  -1 -13 -12    0.11    0.11 
  -1 -13 -12    0.01    0.08 
  -1 -12 -12    0.01    0.09 
  -1 -12 -12    0.03    0.07 
  -1 -11 -12    2.74    0.24 
  -1 -11 -12    2.84    0.19 
  -1 -10 -12    0.05    0.06 
  -1 -10 -12   -0.06    0.08 
  -1  -9 -12    0.00    0.06 
  -1  -9 -12    0.10    0.09 
  -1  -8 -12    0.00    0.08 
  -1  -8 -12    0.14    0.07 
  -1  -7 -12    7.92    0.36 
  -1  -7 -12    7.84    0.39 
  -1  -6 -12    0.81    0.12 
  -1  -6 -12    0.90    0.10 
  -1  -5 -12    1.14    0.11 
  -1  -5 -12    1.33    0.13 
   1   4  12    0.69    0.06 
  -1  -4 -12    0.82    0.11 
  -1  -4 -12    0.63    0.09 
   1   3  12   17.13    0.66 
  -1  -3 -12   17.56    0.67 
  -1  -3 -12   17.19    0.70 
   1   2  12    0.47    0.06 
  -1  -2 -12    0.39    0.07 
  -1  -2 -12    0.28    0.07 
  -1  -1 -12   11.45    0.48 
  -1  -1 -12   12.18    0.49 
   1   0  12    1.67    0.12 
  -1   0 -12    1.34    0.10 
  -1   0 -12    1.69    0.12 
   1  -1  12   11.87    0.46 
  -1   1 -12    9.50    0.44 
  -1   1 -12   11.63    0.46 
   1  -2  12    0.46    0.08 
  -1   2 -12    0.45    0.08 
  -1   2 -12    0.44    0.07 
   1  -3  12   16.17    0.67 
  -1   3 -12   16.86    0.66 
  -1   3 -12   16.44    0.65 
   1  -4  12    0.95    0.12 
  -1   4 -12    0.70    0.11 
   1  -5  12    1.23    0.14 
  -1   5 -12    1.27    0.14 
   1  -6  12    0.97    0.13 
  -1   6 -12    0.86    0.12 
   1  -7  12    7.38    0.39 
  -1   7 -12    7.93    0.39 
   1  -8  12    0.07    0.07 
   1  -9  12    0.11    0.08 
   1 -10  12    0.07    0.09 
   1 -11  12    2.61    0.24 
   1 -12  12   -0.01    0.09 
   1 -13  12    0.05    0.11 
   1 -14  12   -0.02    0.12 
   1 -15  12    0.02    0.13 
   1 -16  12    0.21    0.16 
   1 -17  12    0.07    0.18 
   0 -17 -12    0.01    0.11 
   0 -16 -12    0.08    0.11 
   0 -15 -12   -0.08    0.09 
   0 -14 -12    0.69    0.13 
   0 -13 -12   -0.01    0.08 
   0 -12 -12    0.03    0.07 
   0 -11 -12    0.11    0.07 
   0 -10 -12    0.20    0.08 
   0  -9 -12    0.07    0.06 
   0  -8 -12    1.94    0.15 
   0  -7 -12    0.11    0.06 
   0  -7 -12    0.06    0.08 
   0  -6 -12    1.46    0.14 
   0  -6 -12    1.52    0.13 
   0  -5 -12   -0.02    0.05 
   0  -5 -12    0.01    0.05 
   0   4  12    6.02    0.25 
   0  -4 -12    6.01    0.28 
   0  -4 -12    6.00    0.30 
   0   3  12    0.03    0.04 
   0  -3 -12    0.04    0.05 
   0  -3 -12    0.10    0.05 
   0   2  12    0.06    0.04 
   0  -2 -12    0.01    0.04 
   0  -2 -12    0.16    0.05 
   0   1  12    0.00    0.05 
   0  -1 -12    0.05    0.04 
   0  -1 -12    0.07    0.05 
   0   0  12    0.04    0.05 
   0   0 -12    0.14    0.05 
   0   0 -12   -0.02    0.04 
   0  -1  12    0.03    0.05 
   0   1 -12    0.05    0.05 
   0   1 -12    0.05    0.04 
   0  -2  12   -0.06    0.04 
   0   2 -12   -0.04    0.03 
   0   2 -12    0.01    0.05 
   0  -3  12   -0.02    0.06 
   0   3 -12    0.09    0.05 
   0   3 -12    0.13    0.04 
   0  -4  12    5.87    0.30 
   0   4 -12    5.36    0.28 
   0  -5  12    0.09    0.06 
   0   5 -12   -0.06    0.06 
   0  -6  12    1.56    0.16 
   0   6 -12    1.25    0.14 
   0  -7  12    0.02    0.08 
   0   7 -12    0.09    0.08 
   0  -8  12    1.81    0.19 
   0  -9  12   -0.04    0.07 
   0 -10  12    0.11    0.08 
   0 -11  12    0.09    0.10 
   0 -12  12   -0.15    0.09 
   0 -13  12    0.14    0.12 
   0 -14  12    0.77    0.18 
   0 -15  12    0.01    0.13 
   0 -16  12    0.09    0.13 
   0 -17  12   -0.18    0.15 
   1 -17 -12    0.19    0.12 
   1 -16 -12    0.19    0.12 
   1 -15 -12   -0.09    0.09 
   1 -14 -12    0.05    0.09 
   1 -13 -12    0.14    0.09 
   1 -12 -12   -0.07    0.07 
   1 -11 -12    2.41    0.18 
   1 -10 -12   -0.02    0.06 
   1  -9 -12    0.01    0.06 
   1  -8 -12    0.11    0.07 
   1  -7 -12    8.89    0.40 
   1  -6 -12    0.73    0.10 
   1  -5 -12    1.02    0.12 
   1  -5 -12    1.28    0.12 
  -1   4  12    0.60    0.05 
   1  -4 -12    0.72    0.10 
   1  -4 -12    0.61    0.09 
  -1   3  12   17.97    0.67 
   1  -3 -12   16.92    0.69 
   1  -3 -12   18.44    0.72 
  -1   2  12    0.52    0.06 
   1  -2 -12    0.45    0.07 
   1  -2 -12    0.50    0.08 
  -1   1  12   11.61    0.47 
   1  -1 -12   11.62    0.48 
   1   0 -12    1.59    0.13 
   1   0 -12    1.69    0.11 
  -1  -1  12   12.26    0.51 
   1   1 -12   12.17    0.48 
   1   1 -12   12.05    0.50 
  -1  -2  12    0.42    0.08 
   1   2 -12    0.49    0.05 
   1   2 -12    0.34    0.08 
  -1  -3  12   17.43    0.70 
   1   3 -12   16.68    0.68 
  -1  -4  12    0.45    0.09 
   1   4 -12    0.45    0.09 
  -1  -5  12    1.27    0.14 
   1   5 -12    1.31    0.14 
  -1  -6  12    0.54    0.12 
   1   6 -12    1.07    0.13 
  -1  -7  12    8.08    0.41 
   1   7 -12    7.89    0.40 
  -1  -8  12    0.03    0.08 
   1   8 -12   -0.06    0.07 
  -1  -9  12    0.09    0.09 
  -1 -10  12    0.12    0.10 
  -1 -11  12    2.66    0.25 
  -1 -12  12    0.05    0.11 
  -1 -13  12    0.02    0.11 
  -1 -14  12   -0.01    0.13 
  -1 -15  12   -0.02    0.13 
  -1 -16  12    0.12    0.16 
  -1 -17  12    0.18    0.18 
   2 -17 -12    0.04    0.12 
   2 -16 -12    0.06    0.11 
   2 -15 -12   -0.02    0.10 
   2 -14 -12    0.21    0.10 
   2 -13 -12    0.00    0.08 
   2 -12 -12    0.40    0.11 
   2 -11 -12    0.79    0.12 
   2 -10 -12    0.05    0.08 
   2  -9 -12    0.38    0.10 
   2  -8 -12    0.89    0.12 
   2  -7 -12    1.62    0.14 
   2  -6 -12    0.03    0.06 
   2  -5 -12    1.08    0.12 
  -2   4  12    0.06    0.04 
   2  -4 -12    0.05    0.06 
  -2   3  12    5.34    0.23 
   2  -3 -12    5.47    0.26 
   2  -3 -12    5.17    0.26 
  -2   2  12    0.30    0.06 
   2  -2 -12    0.29    0.07 
  -2   1  12    0.39    0.07 
   2  -1 -12    0.37    0.08 
   2  -1 -12    0.39    0.06 
  -2   0  12    0.08    0.04 
   2   0 -12    0.23    0.05 
   2   0 -12    0.19    0.06 
  -2  -1  12    0.33    0.07 
   2   1 -12    0.26    0.07 
   2   1 -12    0.34    0.05 
  -2  -2  12    0.27    0.07 
   2   2 -12    0.17    0.06 
   2   2 -12    0.30    0.04 
  -2  -3  12    5.29    0.28 
   2   3 -12    5.16    0.27 
  -2  -4  12    0.02    0.06 
   2   4 -12    0.11    0.07 
  -2  -5  12    1.32    0.15 
   2   5 -12    1.25    0.14 
  -2  -6  12   -0.03    0.06 
   2   6 -12   -0.01    0.07 
  -2  -7  12    1.49    0.17 
   2   7 -12    1.51    0.16 
  -2  -8  12    0.80    0.14 
   2   8 -12    0.83    0.14 
  -2  -9  12    0.32    0.10 
  -2 -10  12    0.07    0.08 
  -2 -11  12    0.80    0.16 
  -2 -12  12    0.27    0.12 
  -2 -13  12    0.08    0.12 
  -2 -14  12    0.16    0.14 
  -2 -15  12   -0.01    0.13 
  -2 -16  12    0.18    0.16 
  -2 -17  12   -0.03    0.15 
   3 -17 -12    0.75    0.17 
   3 -16 -12    0.10    0.11 
   3 -15 -12    0.36    0.12 
   3 -14 -12    0.30    0.12 
   3 -13 -12    0.37    0.11 
   3 -12 -12   -0.11    0.07 
   3 -11 -12    3.79    0.24 
   3 -10 -12    0.08    0.08 
   3  -9 -12    0.47    0.11 
   3  -8 -12    0.63    0.11 
   3  -7 -12    6.86    0.33 
   3  -6 -12    1.54    0.14 
   3  -5 -12   -0.02    0.06 
   3  -4 -12    2.61    0.17 
  -3   3  12    2.42    0.13 
   3  -3 -12    2.52    0.16 
  -3   2  12    2.06    0.13 
   3  -2 -12    2.03    0.15 
   3  -2 -12    1.97    0.13 
  -3   1  12    2.62    0.15 
   3  -1 -12    2.61    0.15 
   3  -1 -12    2.71    0.17 
   3   0 -12    2.57    0.13 
   3   0 -12    2.19    0.15 
  -3  -1  12    2.59    0.16 
   3   1 -12    2.73    0.13 
   3   1 -12    2.39    0.16 
  -3  -2  12    2.29    0.16 
   3   2 -12    1.81    0.14 
   3   2 -12    2.33    0.11 
  -3  -3  12    2.24    0.16 
   3   3 -12    2.21    0.15 
  -3  -4  12    3.17    0.20 
   3   4 -12    2.87    0.20 
  -3  -5  12    0.08    0.07 
   3   5 -12    0.04    0.07 
  -3  -6  12    1.38    0.15 
   3   6 -12    1.57    0.15 
  -3  -7  12    6.73    0.36 
   3   7 -12    6.26    0.34 
  -3  -8  12    0.63    0.13 
   3   8 -12    0.48    0.12 
  -3  -9  12    0.48    0.12 
   3   9 -12    0.62    0.13 
  -3 -10  12    0.03    0.09 
  -3 -11  12    3.85    0.28 
  -3 -12  12   -0.07    0.09 
  -3 -13  12    0.31    0.14 
  -3 -14  12    0.00    0.12 
  -3 -15  12    0.25    0.15 
  -3 -16  12    0.09    0.16 
  -3 -17  12    0.59    0.20 
   4 -17 -12    0.06    0.13 
   4 -16 -12   -0.08    0.10 
   4 -15 -12   -0.18    0.09 
   4 -14 -12   -0.07    0.09 
   4 -13 -12    0.10    0.09 
   4 -12 -12    0.09    0.09 
   4 -11 -12   -0.02    0.08 
   4 -10 -12    0.60    0.12 
   4  -9 -12    4.15    0.25 
   4  -8 -12    0.35    0.09 
   4  -7 -12    0.05    0.07 
   4  -6 -12    0.72    0.11 
   4  -5 -12    3.22    0.20 
   4  -4 -12    1.08    0.12 
  -4   3  12    1.40    0.10 
   4  -3 -12    1.64    0.14 
   4  -2 -12    6.97    0.34 
   4  -2 -12    7.54    0.32 
   4  -1 -12    0.72    0.09 
   4  -1 -12    0.67    0.07 
   4  -1 -12    0.64    0.09 
   4   0 -12    5.91    0.24 
   4   0 -12    5.34    0.27 
   4   0 -12    5.19    0.27 
   4   1 -12    0.72    0.06 
   4   1 -12    0.71    0.10 
   4   1 -12    0.77    0.10 
   4   2 -12    7.80    0.36 
   4   2 -12    7.05    0.34 
   4   3 -12    1.34    0.14 
   4   3 -12    1.34    0.14 
   4   4 -12    0.84    0.12 
   4   4 -12    0.89    0.13 
   4   5 -12    3.48    0.23 
   4   5 -12    3.34    0.22 
   4   6 -12    1.02    0.13 
   4   6 -12    0.77    0.14 
   4   7 -12   -0.06    0.08 
   4   7 -12   -0.04    0.08 
   4   8 -12    0.18    0.10 
   4   8 -12    0.23    0.10 
   4   9 -12    3.18    0.26 
   4   9 -12    4.43    0.27 
  -4 -10  12    0.70    0.14 
  -4 -11  12    0.02    0.08 
  -4 -12  12    0.12    0.11 
  -4 -13  12    0.07    0.13 
  -4 -14  12    0.26    0.15 
  -4 -15  12    0.00    0.13 
  -4 -16  12    0.01    0.14 
  -4 -17  12   -0.04    0.17 
   5 -17 -12    0.88    0.19 
   5 -16 -12    0.07    0.12 
   5 -15 -12    0.02    0.11 
   5 -14 -12    0.23    0.11 
   5 -13 -12    0.87    0.15 
   5 -12 -12    0.21    0.10 
   5 -11 -12    0.50    0.12 
   5 -10 -12    0.22    0.09 
   5  -9 -12    0.31    0.10 
   5  -8 -12    1.77    0.17 
   5  -7 -12    2.53    0.19 
   5  -6 -12    1.09    0.13 
   5  -5 -12    0.18    0.08 
   5  -4 -12    2.88    0.19 
   5  -3 -12    1.90    0.13 
   5  -3 -12    1.94    0.15 
   5  -2 -12    0.00    0.05 
   5  -2 -12    0.03    0.06 
   5  -1 -12    1.47    0.14 
   5  -1 -12    1.68    0.13 
   5   0 -12    0.62    0.10 
   5   0 -12    0.73    0.10 
   5   0 -12    0.69    0.07 
   5   1 -12    1.39    0.13 
   5   1 -12    1.76    0.15 
   5   2 -12    0.04    0.06 
   5   2 -12    0.00    0.06 
   5   3 -12    2.22    0.17 
   5   3 -12    2.13    0.17 
   5   4 -12    3.06    0.20 
   5   4 -12    2.84    0.20 
   5   5 -12   -0.01    0.07 
   5   5 -12    0.02    0.07 
   5   6 -12    0.93    0.13 
   5   6 -12    1.18    0.15 
   5   7 -12    2.87    0.23 
   5   7 -12    2.83    0.21 
   5   8 -12    1.97    0.19 
   5   8 -12    1.38    0.19 
   5   9 -12    0.07    0.10 
   5   9 -12    0.08    0.10 
   5  10 -12    0.18    0.11 
   5  11 -12    0.45    0.14 
  -5 -12  12    0.15    0.11 
  -5 -13  12    0.68    0.17 
  -5 -14  12    0.20    0.15 
  -5 -15  12    0.14    0.16 
  -5 -16  12   -0.03    0.15 
  -5 -17  12    0.75    0.22 
   6 -16 -12   -0.05    0.12 
   6 -15 -12    0.01    0.11 
   6 -14 -12    0.09    0.10 
   6 -13 -12    0.01    0.09 
   6 -12 -12    0.06    0.09 
   6 -11 -12    0.26    0.10 
   6 -10 -12    0.28    0.10 
   6  -9 -12    0.04    0.08 
   6  -8 -12    0.13    0.08 
   6  -7 -12    0.29    0.09 
   6  -6 -12    1.42    0.15 
   6  -5 -12    3.09    0.20 
   6  -4 -12   -0.09    0.06 
   6  -3 -12    1.56    0.14 
   6  -3 -12    1.51    0.12 
   6  -2 -12    0.78    0.09 
   6  -2 -12    0.53    0.10 
   6  -1 -12    0.36    0.08 
   6  -1 -12    0.34    0.09 
   6   0 -12    3.17    0.19 
   6   0 -12    2.64    0.18 
   6   1 -12    0.46    0.09 
   6   1 -12    0.28    0.09 
   6   2 -12    0.85    0.11 
   6   2 -12    0.77    0.12 
   6   3 -12    1.37    0.15 
   6   3 -12    1.39    0.14 
   6   4 -12    0.32    0.10 
   6   4 -12    0.03    0.07 
   6   5 -12    3.40    0.24 
   6   5 -12    3.53    0.23 
   6   6 -12    1.43    0.18 
   6   6 -12    1.47    0.16 
   6   7 -12    0.29    0.11 
   6   7 -12    0.26    0.10 
   6   8 -12   -0.03    0.09 
   6   8 -12    0.26    0.11 
   6   9 -12    0.01    0.09 
   6   9 -12    0.04    0.10 
   6  10 -12    0.13    0.10 
   6  11 -12    0.49    0.15 
   6  12 -12    0.04    0.11 
   6  13 -12    0.01    0.12 
  -6 -14  12    0.00    0.13 
  -6 -15  12    0.01    0.15 
  -6 -16  12    0.12    0.16 
   7 -16 -12    0.10    0.13 
   7 -15 -12   -0.03    0.12 
   7 -14 -12    0.23    0.12 
   7 -13 -12    0.25    0.12 
   7 -12 -12    0.05    0.10 
   7 -11 -12    0.30    0.11 
   7 -10 -12    1.35    0.16 
   7  -9 -12    0.06    0.08 
   7  -8 -12    0.93    0.13 
   7  -7 -12    2.13    0.18 
   7  -6 -12    0.00    0.08 
   7  -5 -12    0.06    0.08 
   7  -4 -12    0.48    0.10 
   7  -3 -12    4.25    0.24 
   7  -3 -12    4.07    0.22 
   7  -2 -12    0.12    0.06 
   7  -2 -12   -0.03    0.07 
   7  -1 -12    1.67    0.14 
   7  -1 -12    1.76    0.15 
   7   0 -12    5.66    0.30 
   7   0 -12    6.14    0.30 
   7   1 -12    1.86    0.15 
   7   1 -12    1.79    0.16 
   7   2 -12    0.04    0.06 
   7   2 -12    0.05    0.06 
   7   3 -12    3.80    0.24 
   7   3 -12    4.09    0.24 
   7   4 -12    0.52    0.11 
   7   4 -12    0.32    0.09 
   7   5 -12    0.11    0.09 
   7   5 -12   -0.01    0.07 
   7   6 -12    0.12    0.09 
   7   6 -12   -0.02    0.08 
   7   7 -12    2.23    0.20 
   7   7 -12    2.25    0.22 
   7   8 -12    0.90    0.16 
   7   8 -12    0.97    0.15 
   7   9 -12    0.02    0.11 
   7   9 -12    0.15    0.11 
   7  10 -12    1.43    0.18 
   7  10 -12    1.34    0.20 
   7  11 -12    0.51    0.15 
   7  12 -12    0.09    0.13 
   7  13 -12    0.42    0.17 
   7  14 -12    0.22    0.14 
  -7 -15  12   -0.26    0.12 
  -7 -16  12   -0.08    0.16 
   8 -16 -12    0.04    0.14 
   8 -15 -12   -0.02    0.12 
   8 -14 -12    0.01    0.11 
   8 -13 -12    0.02    0.10 
   8 -12 -12    0.07    0.10 
   8 -11 -12    0.20    0.11 
   8 -10 -12    0.45    0.12 
   8  -9 -12    0.95    0.14 
   8  -8 -12    0.16    0.09 
   8  -7 -12    0.99    0.14 
   8  -6 -12    1.03    0.14 
   8  -5 -12    1.94    0.17 
   8  -4 -12    0.13    0.09 
   8  -3 -12    0.41    0.10 
   8  -3 -12    0.50    0.09 
   8  -2 -12    0.06    0.07 
   8  -2 -12   -0.07    0.06 
   8  -1 -12    1.92    0.16 
   8  -1 -12    2.07    0.17 
   8   0 -12    0.87    0.12 
   8   0 -12    0.79    0.11 
   8   1 -12    1.92    0.17 
   8   1 -12    1.87    0.16 
   8   2 -12   -0.08    0.06 
   8   2 -12    0.04    0.07 
   8   3 -12    0.68    0.12 
   8   3 -12    0.65    0.11 
   8   4 -12    0.11    0.08 
   8   4 -12    0.27    0.10 
   8   5 -12    2.17    0.20 
   8   5 -12    1.53    0.16 
   8   6 -12    1.37    0.16 
   8   6 -12    1.04    0.16 
   8   7 -12    1.08    0.15 
   8   7 -12    1.19    0.17 
   8   8 -12    0.17    0.10 
   8   8 -12    0.16    0.10 
   8   9 -12    1.05    0.16 
   8   9 -12    1.04    0.18 
   8  10 -12    0.36    0.13 
   8  10 -12    0.57    0.15 
   8  11 -12    0.22    0.12 
   8  12 -12   -0.14    0.10 
   8  13 -12    0.16    0.13 
   8  14 -12    0.07    0.14 
   8  15 -12    0.24    0.16 
  -8 -16  12   -0.09    0.16 
   9 -15 -12    0.06    0.13 
   9 -14 -12    0.26    0.14 
   9 -13 -12    0.05    0.12 
   9 -12 -12   -0.06    0.10 
   9 -11 -12    0.32    0.11 
   9 -10 -12    0.20    0.11 
   9  -9 -12    0.66    0.13 
   9  -8 -12    0.14    0.09 
   9  -7 -12    0.30    0.11 
   9  -6 -12    3.79    0.24 
   9  -5 -12    0.07    0.09 
   9  -4 -12    2.49    0.19 
   9  -3 -12    0.24    0.08 
   9  -3 -12    0.17    0.09 
   9  -2 -12   -0.01    0.07 
   9  -2 -12    0.02    0.06 
   9  -1 -12    0.65    0.11 
   9  -1 -12    0.76    0.12 
   9   0 -12    1.57    0.15 
   9   0 -12    1.50    0.15 
   9   1 -12    0.68    0.11 
   9   1 -12    0.62    0.11 
   9   2 -12   -0.05    0.07 
   9   2 -12    0.06    0.06 
   9   3 -12    0.17    0.08 
   9   3 -12    0.12    0.08 
   9   4 -12    2.50    0.22 
   9   4 -12    2.57    0.19 
   9   5 -12   -0.02    0.08 
   9   5 -12    0.02    0.09 
   9   6 -12    4.13    0.29 
   9   6 -12    4.03    0.25 
   9   7 -12    0.47    0.12 
   9   7 -12    0.22    0.10 
   9   8 -12    0.12    0.09 
   9   8 -12    0.14    0.10 
   9   9 -12    0.53    0.13 
   9   9 -12    0.39    0.14 
   9  10 -12    0.36    0.14 
   9  10 -12    0.18    0.11 
   9  11 -12    0.17    0.13 
   9  12 -12    0.01    0.13 
   9  13 -12   -0.08    0.11 
   9  14 -12    0.46    0.18 
   9  15 -12    0.08    0.14 
  10 -15 -12    0.30    0.14 
  10 -14 -12   -0.05    0.11 
  10 -13 -12    0.02    0.10 
  10 -12 -12    0.47    0.13 
  10 -11 -12    0.24    0.11 
  10 -10 -12   -0.01    0.09 
  10  -9 -12    0.28    0.11 
  10  -8 -12    0.11    0.10 
  10  -7 -12    0.10    0.09 
  10  -6 -12    0.04    0.09 
  10  -5 -12   -0.02    0.08 
  10  -4 -12    0.62    0.12 
  10  -3 -12    0.41    0.11 
  10  -2 -12    0.62    0.11 
  10  -2 -12    0.68    0.12 
  10  -1 -12    0.02    0.07 
  10  -1 -12    0.11    0.08 
  10   0 -12    2.06    0.17 
  10   0 -12    1.95    0.18 
  10   1 -12    0.05    0.07 
  10   1 -12    0.02    0.07 
  10   2 -12    0.59    0.11 
  10   2 -12    0.69    0.13 
  10   3 -12    0.45    0.11 
  10   3 -12    0.43    0.11 
  10   4 -12    0.44    0.12 
  10   4 -12    0.56    0.12 
  10   5 -12    0.02    0.08 
  10   5 -12    0.00    0.09 
  10   6 -12    0.07    0.09 
  10   6 -12   -0.04    0.09 
  10   7 -12    0.27    0.11 
  10   7 -12    0.27    0.11 
  10   8 -12    0.10    0.10 
  10   8 -12   -0.08    0.10 
  10   9 -12    0.39    0.13 
  10   9 -12    0.09    0.11 
  10  10 -12    0.14    0.13 
  10  10 -12   -0.07    0.10 
  10  11 -12    0.11    0.13 
  10  12 -12    0.22    0.15 
  10  13 -12    0.11    0.14 
  10  14 -12   -0.04    0.13 
  11 -14 -12    0.19    0.11 
  11 -13 -12    0.16    0.11 
  11 -12 -12    0.00    0.10 
  11 -11 -12    0.18    0.12 
  11 -10 -12   -0.02    0.09 
  11  -9 -12    0.02    0.09 
  11  -8 -12    0.41    0.12 
  11  -7 -12    0.10    0.10 
  11  -6 -12    0.17    0.10 
  11  -5 -12    0.11    0.09 
  11  -4 -12    1.42    0.16 
  11  -3 -12   -0.01    0.08 
  11  -2 -12    0.92    0.13 
  11  -2 -12    0.82    0.13 
  11  -1 -12    0.12    0.09 
  11  -1 -12    0.06    0.08 
  11   0 -12    0.14    0.09 
  11   0 -12    0.36    0.10 
  11   1 -12    0.10    0.08 
  11   1 -12   -0.10    0.08 
  11   2 -12    0.84    0.13 
  11   2 -12    0.71    0.14 
  11   3 -12    0.08    0.09 
  11   3 -12    0.07    0.09 
  11   4 -12    1.43    0.16 
  11   4 -12    1.64    0.19 
  11   5 -12    0.10    0.09 
  11   5 -12    0.00    0.08 
  11   6 -12    0.32    0.12 
  11   6 -12    0.45    0.12 
  11   7 -12    0.33    0.12 
  11   7 -12    0.18    0.11 
  11   8 -12    0.46    0.15 
  11   8 -12    0.28    0.12 
  11   9 -12   -0.12    0.10 
  11   9 -12    0.16    0.11 
  11  10 -12   -0.05    0.11 
  11  10 -12   -0.09    0.12 
  11  11 -12    0.26    0.14 
  11  12 -12    0.12    0.16 
  11  13 -12   -0.04    0.16 
  11  14 -12    0.27    0.14 
  12 -13 -12    0.16    0.12 
  12 -12 -12    0.02    0.12 
  12 -11 -12   -0.05    0.10 
  12 -10 -12    0.15    0.12 
  12  -9 -12    0.20    0.11 
  12  -8 -12   -0.05    0.09 
  12  -7 -12    0.11    0.11 
  12  -6 -12    0.06    0.10 
  12  -5 -12    0.00    0.10 
  12  -4 -12    0.21    0.10 
  12  -3 -12   -0.03    0.08 
  12  -2 -12    1.31    0.16 
  12  -2 -12    1.77    0.17 
  12  -1 -12    0.14    0.09 
  12  -1 -12    0.16    0.09 
  12   0 -12    3.26    0.22 
  12   0 -12    3.31    0.24 
  12   1 -12    0.09    0.09 
  12   1 -12    0.17    0.10 
  12   2 -12    1.46    0.18 
  12   2 -12    1.35    0.15 
  12   3 -12    0.23    0.11 
  12   3 -12    0.07    0.09 
  12   4 -12    0.02    0.09 
  12   4 -12    0.23    0.10 
  12   5 -12    0.02    0.09 
  12   5 -12    0.01    0.10 
  12   6 -12    0.35    0.13 
  12   6 -12    0.44    0.13 
  12   7 -12    0.18    0.12 
  12   7 -12    0.14    0.11 
  12   8 -12    0.06    0.11 
  12   8 -12    0.04    0.11 
  12   9 -12    0.14    0.13 
  12  10 -12    0.10    0.14 
  12  11 -12    0.00    0.13 
  12  12 -12   -0.20    0.13 
  12  13 -12    0.10    0.17 
  13 -12 -12    0.01    0.11 
  13 -11 -12   -0.05    0.10 
  13 -10 -12    0.25    0.13 
  13  -9 -12    0.03    0.10 
  13  -8 -12    0.34    0.13 
  13  -7 -12    0.23    0.12 
  13  -6 -12    0.09    0.10 
  13  -5 -12    0.04    0.10 
  13  -4 -12    1.27    0.16 
  13  -3 -12    0.06    0.10 
  13  -2 -12    0.04    0.10 
  13  -2 -12   -0.12    0.08 
  13  -1 -12    0.01    0.08 
  13  -1 -12    0.15    0.10 
  13   0 -12    0.45    0.11 
  13   0 -12    0.37    0.12 
  13   1 -12    0.24    0.11 
  13   1 -12    0.07    0.08 
  13   2 -12    0.17    0.11 
  13   2 -12   -0.01    0.08 
  13   3 -12   -0.04    0.08 
  13   3 -12    0.22    0.10 
  13   4 -12    1.41    0.20 
  13   4 -12    1.07    0.15 
  13   5 -12   -0.05    0.09 
  13   5 -12    0.17    0.12 
  13   6 -12   -0.06    0.10 
  13   6 -12    0.04    0.11 
  13   7 -12    0.27    0.13 
  13   8 -12    0.20    0.14 
  13   9 -12   -0.01    0.14 
  13  10 -12    0.32    0.16 
  13  11 -12    0.08    0.14 
  13  12 -12    0.23    0.17 
  14 -11 -12    0.00    0.11 
  14 -10 -12    0.06    0.11 
  14  -9 -12   -0.10    0.10 
  14  -8 -12   -0.06    0.10 
  14  -7 -12    0.85    0.16 
  14  -6 -12    0.04    0.11 
  14  -5 -12    0.16    0.11 
  14  -4 -12    0.03    0.10 
  14  -3 -12   -0.08    0.10 
  14  -2 -12    0.10    0.10 
  14  -1 -12    0.14    0.10 
  14  -1 -12   -0.07    0.09 
  14   0 -12   -0.10    0.09 
  14   0 -12   -0.06    0.08 
  14   1 -12   -0.04    0.09 
  14   1 -12    0.04    0.08 
  14   2 -12    0.33    0.12 
  14   2 -12    0.19    0.10 
  14   3 -12    0.03    0.10 
  14   3 -12    0.05    0.09 
  14   4 -12    0.01    0.10 
  14   4 -12   -0.01    0.10 
  14   5 -12    0.14    0.13 
  14   6 -12   -0.03    0.12 
  14   7 -12    0.55    0.17 
  14   8 -12    0.03    0.13 
  14   9 -12    0.08    0.15 
  14  10 -12    0.04    0.15 
  14  11 -12    0.24    0.18 
  15 -10 -12    0.31    0.13 
  15  -9 -12    0.19    0.13 
  15  -8 -12   -0.08    0.11 
  15  -7 -12   -0.02    0.11 
  15  -6 -12    0.23    0.13 
  15  -5 -12    0.02    0.11 
  15  -4 -12    0.42    0.13 
  15  -3 -12   -0.19    0.09 
  15  -2 -12    0.03    0.10 
  15  -1 -12   -0.04    0.09 
  15  -1 -12   -0.06    0.09 
  15   0 -12    0.14    0.12 
  15   0 -12    0.23    0.11 
  15   1 -12    0.02    0.10 
  15   1 -12    0.00    0.09 
  15   2 -12   -0.02    0.11 
  15   3 -12   -0.02    0.11 
  15   4 -12    0.21    0.13 
  15   5 -12    0.06    0.13 
  15   6 -12    0.10    0.13 
  15   7 -12    0.07    0.13 
  15   8 -12    0.12    0.15 
  15   9 -12   -0.22    0.13 
  15  10 -12    0.24    0.18 
  16  -9 -12    0.13    0.13 
  16  -8 -12    0.18    0.13 
  16  -7 -12    0.22    0.13 
  16  -6 -12   -0.11    0.11 
  16  -5 -12    0.00    0.12 
  16  -4 -12    0.21    0.13 
  16  -3 -12    0.00    0.11 
  16  -2 -12    0.10    0.12 
  16  -1 -12    0.18    0.12 
  16  -1 -12    0.00    0.11 
  16   0 -12    0.03    0.12 
  16   1 -12   -0.11    0.10 
  16   2 -12    0.08    0.14 
  16   3 -12    0.04    0.13 
  16   4 -12    0.22    0.15 
  16   5 -12    0.24    0.14 
  16   6 -12    0.15    0.16 
  16   7 -12    0.15    0.16 
  16   8 -12    0.01    0.14 
  17  -7 -12    0.18    0.13 
  17  -6 -12   -0.01    0.13 
  17  -5 -12    0.07    0.12 
  17  -4 -12   -0.08    0.12 
  17   0 -12    0.34    0.16 
  17   1 -12   -0.04    0.12 
  17   2 -12   -0.07    0.13 
  17   3 -12   -0.03    0.14 
  17   4 -12    0.03    0.15 
  17   5 -12    0.02    0.15 
  17   6 -12    0.16    0.16 
  17   7 -12    0.15    0.17 
  18   0 -12    0.04    0.16 
  18   1 -12    0.09    0.16 
  18   2 -12   -0.10    0.14 
  18   3 -12    0.08    0.16 
  18   4 -12   -0.15    0.16 
  18   0  13    0.04    0.09 
  17   5  13    0.25    0.11 
 -17  -5 -13    0.13    0.17 
  17   4  13    0.02    0.11 
 -17  -4 -13   -0.02    0.15 
  17   3  13   -0.01    0.10 
 -17  -3 -13   -0.03    0.15 
  17   2  13    0.24    0.11 
  17   1  13    0.13    0.10 
  17   0  13    0.13    0.11 
  17  -1  13    0.00    0.09 
  17  -2  13    0.11    0.10 
  17  -3  13    0.22    0.11 
  17  -4  13    0.20    0.11 
  17  -5  13    0.24    0.10 
  16   7  13    0.18    0.13 
 -16  -7 -13    0.04    0.17 
  16   6  13    0.30    0.13 
 -16  -6 -13    0.02    0.15 
  16   5  13    0.20    0.12 
 -16  -5 -13    0.08    0.17 
  16   4  13    0.00    0.10 
 -16  -4 -13    0.23    0.17 
  16   3  13    0.13    0.11 
 -16  -3 -13   -0.06    0.12 
  16   2  13    0.23    0.11 
 -16  -2 -13    0.05    0.12 
  16   1  13    0.24    0.11 
  16   0  13    0.07    0.09 
  16  -1  13    0.08    0.10 
  16  -2  13    0.19    0.10 
  16  -3  13    0.01    0.10 
  16  -4  13    0.07    0.10 
  16  -5  13    0.38    0.13 
  16  -6  13    0.25    0.11 
  16  -7  13    0.26    0.11 
 -15  -9 -13    0.11    0.18 
 -15  -8 -13    0.00    0.16 
  15   7  13    0.26    0.14 
 -15  -7 -13   -0.15    0.14 
  15   6  13    0.15    0.12 
 -15  -6 -13    0.07    0.15 
  15   5  13    0.43    0.13 
 -15  -5 -13    0.15    0.16 
  15   4  13   -0.08    0.09 
 -15  -4 -13    0.00    0.13 
  15   3  13    0.06    0.11 
 -15  -3 -13    0.03    0.13 
  15   2  13    0.07    0.10 
 -15  -2 -13    0.07    0.12 
  15   1  13    0.05    0.10 
 -15  -1 -13    0.02    0.12 
  15   0  13   -0.05    0.08 
  15  -1  13   -0.02    0.09 
  15  -2  13    0.13    0.11 
  15  -3  13   -0.04    0.07 
  15  -4  13    0.04    0.09 
  15  -5  13    0.09    0.10 
  15  -6  13   -0.02    0.10 
  15  -7  13    0.13    0.10 
  15  -8  13    0.16    0.16 
  15  -9  13   -0.13    0.14 
 -14 -10 -13    0.32    0.18 
 -14  -9 -13    0.54    0.20 
 -14  -8 -13    0.09    0.15 
  14   7  13    0.44    0.15 
 -14  -7 -13    0.27    0.16 
  14   6  13    0.23    0.12 
 -14  -6 -13    0.34    0.16 
  14   5  13    0.59    0.13 
 -14  -5 -13    0.41    0.16 
  14   4  13    0.18    0.11 
 -14  -4 -13    0.21    0.13 
  14   3  13   -0.03    0.09 
 -14  -3 -13    0.05    0.12 
  14   2  13   -0.08    0.08 
 -14  -2 -13    0.09    0.12 
  14   1  13    0.22    0.10 
 -14  -1 -13    0.09    0.11 
  14   0  13    0.10    0.10 
  14  -1  13    0.15    0.09 
  14  -2  13   -0.07    0.08 
  14  -3  13   -0.01    0.09 
  14  -4  13    0.22    0.11 
  14  -5  13    0.66    0.14 
  14  -6  13    0.13    0.10 
  14  -7  13    0.33    0.13 
  14  -8  13    0.03    0.12 
  14  -9  13    0.42    0.17 
  14 -10  13    0.06    0.15 
 -13 -11 -13    0.25    0.17 
 -13 -10 -13   -0.06    0.15 
 -13  -9 -13    0.09    0.16 
 -13  -8 -13    0.06    0.13 
  13   7  13    0.16    0.12 
 -13  -7 -13   -0.05    0.13 
  13   6  13    0.09    0.10 
 -13  -6 -13   -0.03    0.12 
  13   5  13   -0.07    0.08 
 -13  -5 -13   -0.02    0.10 
  13   4  13    0.16    0.10 
 -13  -4 -13   -0.03    0.11 
  13   3  13    0.01    0.08 
 -13  -3 -13    0.10    0.11 
  13   2  13    0.08    0.09 
 -13  -2 -13    0.10    0.10 
  13   1  13    0.11    0.08 
 -13  -1 -13    0.00    0.11 
  13   0  13   -0.04    0.08 
 -13   0 -13    0.11    0.12 
  13  -1  13    0.06    0.09 
  13  -2  13    0.22    0.10 
  13  -3  13    0.15    0.10 
  13  -4  13    0.14    0.09 
  13  -5  13    0.18    0.11 
  13  -6  13   -0.01    0.09 
  13  -7  13    0.23    0.11 
  13  -8  13    0.08    0.11 
  13  -9  13   -0.05    0.14 
  13 -10  13   -0.02    0.14 
  13 -11  13    0.07    0.16 
 -12 -12 -13    0.36    0.17 
 -12 -11 -13    0.13    0.16 
 -12 -10 -13   -0.06    0.14 
 -12  -9 -13    0.80    0.19 
 -12  -8 -13    0.24    0.14 
  12   7  13    1.10    0.16 
 -12  -7 -13    0.80    0.19 
  12   6  13    0.29    0.11 
 -12  -6 -13    0.07    0.11 
  12   5  13    0.64    0.13 
 -12  -5 -13    0.57    0.15 
  12   4  13    0.12    0.09 
 -12  -4 -13    0.29    0.13 
  12   3  13    0.10    0.09 
 -12  -3 -13   -0.09    0.10 
  12   2  13    0.14    0.09 
 -12  -2 -13   -0.03    0.10 
  12   1  13   -0.19    0.06 
 -12  -1 -13    0.03    0.10 
  12   0  13    0.04    0.08 
 -12   0 -13    0.13    0.10 
  12  -1  13    0.03    0.08 
  12  -2  13    0.06    0.08 
  12  -3  13    0.13    0.09 
  12  -4  13    0.22    0.09 
  12  -5  13    0.69    0.14 
  12  -6  13    0.08    0.11 
  12  -7  13    1.26    0.19 
  12  -8  13    0.38    0.13 
  12  -9  13    0.82    0.19 
  12 -10  13    0.02    0.14 
  12 -11  13    0.25    0.16 
  12 -12  13    0.07    0.14 
 -11 -13 -13    0.16    0.17 
 -11 -12 -13    0.06    0.15 
 -11 -11 -13    0.03    0.14 
 -11 -10 -13    0.12    0.14 
 -11  -9 -13   -0.05    0.11 
 -11  -8 -13    0.01    0.13 
 -11  -7 -13    0.23    0.12 
  11   6  13    0.04    0.09 
 -11  -6 -13   -0.10    0.10 
  11   5  13    0.18    0.09 
 -11  -5 -13    0.13    0.11 
  11   4  13    0.20    0.09 
 -11  -4 -13    0.13    0.10 
  11   3  13    0.26    0.10 
 -11  -3 -13    0.14    0.11 
  11   2  13    0.12    0.09 
 -11  -2 -13    0.14    0.10 
  11   1  13    0.07    0.09 
 -11  -1 -13    0.11    0.10 
  11   0  13    0.00    0.08 
 -11   0 -13   -0.01    0.09 
  11  -1  13   -0.05    0.08 
 -11   1 -13   -0.03    0.09 
  11  -2  13    0.14    0.09 
  11  -3  13    0.25    0.10 
  11  -4  13    0.05    0.08 
  11  -5  13   -0.03    0.08 
  11  -6  13    0.08    0.10 
  11  -7  13    0.14    0.11 
  11  -8  13    0.04    0.09 
  11  -9  13    0.00    0.12 
  11 -10  13    0.05    0.13 
  11 -11  13   -0.05    0.14 
  11 -12  13   -0.06    0.13 
  11 -13  13    0.15    0.17 
 -10 -14 -13    0.11    0.16 
 -10 -13 -13    0.33    0.17 
 -10 -12 -13    0.12    0.15 
 -10 -11 -13    0.29    0.15 
 -10 -10 -13   -0.01    0.13 
 -10  -9 -13    0.26    0.13 
 -10  -8 -13    1.12    0.18 
 -10  -7 -13    0.04    0.11 
  10   6  13    0.02    0.07 
 -10  -6 -13    0.04    0.10 
  10   5  13    0.62    0.11 
 -10  -5 -13    0.57    0.14 
  10   4  13    0.45    0.10 
 -10  -4 -13    0.31    0.12 
  10   3  13    0.52    0.11 
 -10  -3 -13    0.52    0.13 
  10   2  13    0.93    0.14 
 -10  -2 -13    0.90    0.15 
  10   1  13    0.78    0.13 
 -10  -1 -13    1.21    0.16 
  10   0  13   -0.05    0.07 
 -10   0 -13   -0.05    0.08 
  10  -1  13    1.10    0.14 
 -10   1 -13    0.88    0.15 
  10  -2  13    0.81    0.13 
  10  -3  13    0.48    0.12 
  10  -4  13    0.49    0.12 
  10  -5  13    0.41    0.11 
  10  -6  13    0.20    0.10 
  10  -7  13   -0.04    0.08 
  10  -8  13    1.39    0.19 
  10  -9  13    0.30    0.13 
  10 -10  13    0.23    0.13 
  10 -11  13    0.39    0.15 
  10 -12  13    0.14    0.15 
  10 -13  13    0.29    0.17 
  10 -14  13    0.24    0.18 
  -9 -14 -13    0.13    0.15 
  -9 -13 -13   -0.06    0.14 
  -9 -12 -13   -0.02    0.13 
  -9 -11 -13    0.11    0.14 
  -9 -10 -13    0.21    0.13 
  -9  -9 -13   -0.05    0.10 
  -9  -8 -13   -0.10    0.09 
  -9  -7 -13    0.02    0.10 
   9   6  13    0.73    0.12 
  -9  -6 -13    0.86    0.15 
   9   5  13    0.11    0.08 
  -9  -5 -13    0.18    0.10 
   9   4  13    0.69    0.11 
  -9  -4 -13    0.90    0.15 
   9   3  13    0.98    0.13 
  -9  -3 -13    0.87    0.15 
   9   2  13    0.08    0.08 
  -9  -2 -13   -0.05    0.09 
   9   1  13   -0.03    0.07 
  -9  -1 -13   -0.03    0.09 
   9   0  13    0.06    0.08 
  -9   0 -13   -0.09    0.09 
   9  -1  13   -0.12    0.07 
  -9   1 -13    0.01    0.08 
   9  -2  13   -0.09    0.07 
  -9   2 -13    0.03    0.08 
   9  -3  13    0.95    0.14 
   9  -4  13    0.62    0.12 
   9  -5  13    0.19    0.10 
   9  -6  13    0.99    0.15 
   9  -7  13   -0.01    0.08 
   9  -8  13   -0.04    0.09 
   9  -9  13    0.07    0.10 
   9 -10  13    0.18    0.13 
   9 -11  13   -0.02    0.12 
   9 -12  13   -0.07    0.13 
   9 -13  13    0.15    0.14 
   9 -14  13   -0.02    0.16 
   9 -15  13   -0.02    0.16 
  -8 -15 -13    0.20    0.16 
  -8 -14 -13    0.16    0.16 
  -8 -13 -13    0.07    0.15 
  -8 -12 -13    0.61    0.17 
  -8 -11 -13   -0.17    0.11 
  -8 -10 -13   -0.01    0.10 
  -8  -9 -13    0.16    0.12 
  -8  -8 -13    1.69    0.20 
  -8  -7 -13    1.03    0.17 
   8   6  13    0.04    0.04 
  -8  -6 -13    0.34    0.11 
   8   5  13    5.42    0.27 
  -8  -5 -13    4.37    0.30 
   8   4  13    1.92    0.16 
  -8  -4 -13    1.99    0.20 
   8   3  13    6.90    0.34 
  -8  -3 -13    7.39    0.38 
   8   2  13    0.64    0.11 
  -8  -2 -13    0.65    0.13 
   8   1  13    4.49    0.25 
  -8  -1 -13    4.51    0.23 
  -8  -1 -13    4.05    0.26 
   8   0  13    0.03    0.07 
  -8   0 -13   -0.15    0.07 
  -8   0 -13   -0.01    0.06 
   8  -1  13    4.83    0.27 
  -8   1 -13    4.75    0.29 
   8  -2  13    0.76    0.12 
  -8   2 -13    0.64    0.13 
   8  -3  13    7.05    0.37 
   8  -4  13    2.01    0.19 
   8  -5  13    5.36    0.31 
   8  -6  13   -0.03    0.08 
   8  -7  13    0.93    0.15 
   8  -8  13    2.06    0.21 
   8  -9  13    0.15    0.10 
   8 -10  13    0.06    0.11 
   8 -11  13   -0.03    0.11 
   8 -12  13    0.64    0.18 
   8 -13  13    0.04    0.14 
   8 -14  13    0.00    0.15 
   8 -15  13    0.14    0.17 
  -7 -15 -13   -0.04    0.13 
  -7 -14 -13    0.00    0.14 
  -7 -13 -13   -0.10    0.13 
  -7 -12 -13    0.03    0.12 
  -7 -11 -13    0.56    0.14 
  -7 -10 -13   -0.09    0.09 
  -7  -9 -13    0.57    0.14 
  -7  -8 -13    0.25    0.11 
  -7  -7 -13    0.48    0.12 
   7   6  13    2.12    0.15 
  -7  -6 -13    2.11    0.20 
  -7  -5 -13    0.99    0.15 
   7   4  13    1.36    0.13 
  -7  -4 -13    0.83    0.14 
   7   3  13    0.29    0.08 
  -7  -3 -13    0.40    0.08 
  -7  -3 -13    0.23    0.10 
   7   2  13    0.06    0.06 
  -7  -2 -13    0.04    0.09 
  -7  -2 -13    0.24    0.08 
   7   1  13    0.14    0.08 
  -7  -1 -13    0.33    0.08 
  -7  -1 -13    0.19    0.10 
   7   0  13    0.06    0.07 
  -7   0 -13   -0.05    0.08 
  -7   0 -13   -0.01    0.05 
   7  -1  13    0.22    0.09 
  -7   1 -13    0.23    0.10 
  -7   1 -13    0.27    0.08 
   7  -2  13    0.11    0.08 
  -7   2 -13    0.08    0.09 
  -7   2 -13    0.11    0.07 
   7  -3  13    0.29    0.09 
   7  -4  13    1.06    0.15 
   7  -5  13    0.82    0.14 
   7  -6  13    1.95    0.19 
   7  -7  13    0.40    0.11 
   7  -8  13    0.24    0.10 
   7  -9  13    0.34    0.11 
   7 -10  13   -0.06    0.10 
   7 -11  13    0.66    0.16 
   7 -12  13    0.05    0.13 
   7 -13  13   -0.04    0.12 
   7 -14  13   -0.07    0.13 
   7 -15  13   -0.06    0.15 
  -6 -16 -13    0.35    0.17 
  -6 -15 -13    0.20    0.17 
  -6 -14 -13    0.01    0.15 
  -6 -13 -13    0.10    0.13 
  -6 -12 -13    0.48    0.15 
  -6 -11 -13    0.12    0.11 
  -6 -10 -13   -0.03    0.09 
  -6  -9 -13   -0.02    0.09 
  -6  -8 -13    0.13    0.10 
  -6  -7 -13    1.67    0.18 
  -6  -6 -13    4.07    0.21 
  -6  -6 -13    3.96    0.26 
   6   5  13    1.82    0.13 
  -6  -5 -13    1.59    0.17 
  -6  -5 -13    1.74    0.13 
   6   4  13    0.03    0.04 
  -6  -4 -13    0.31    0.07 
  -6  -4 -13    0.10    0.09 
   6   3  13    6.45    0.30 
  -6  -3 -13    5.92    0.33 
  -6  -3 -13    6.30    0.29 
   6   2  13   15.16    0.62 
  -6  -2 -13   15.07    0.65 
  -6  -2 -13   14.83    0.60 
   6   1  13    2.14    0.15 
  -6  -1 -13    1.73    0.17 
  -6  -1 -13    1.97    0.15 
   6   0  13   -0.05    0.05 
  -6   0 -13    0.01    0.06 
  -6   0 -13    0.04    0.08 
   6  -1  13    2.04    0.16 
  -6   1 -13    2.28    0.17 
  -6   1 -13    2.13    0.16 
   6  -2  13   14.29    0.61 
  -6   2 -13   14.30    0.61 
  -6   2 -13   14.33    0.59 
   6  -3  13    6.58    0.34 
  -6   3 -13    6.21    0.32 
   6  -4  13    0.15    0.09 
   6  -5  13    1.78    0.17 
   6  -6  13    4.61    0.28 
   6  -7  13    2.21    0.21 
   6  -8  13    0.20    0.10 
   6  -9  13   -0.14    0.08 
   6 -10  13   -0.16    0.08 
   6 -11  13    0.03    0.11 
   6 -12  13    0.43    0.15 
   6 -13  13    0.28    0.15 
   6 -14  13    0.16    0.14 
   6 -15  13    0.38    0.17 
   6 -16  13    0.41    0.19 
  -5 -16 -13   -0.06    0.15 
  -5 -15 -13   -0.05    0.15 
  -5 -14 -13   -0.07    0.13 
  -5 -13 -13    0.12    0.12 
  -5 -12 -13    0.60    0.15 
  -5 -11 -13    0.13    0.11 
  -5 -10 -13    0.16    0.11 
  -5  -9 -13    0.03    0.10 
  -5  -8 -13   -0.04    0.06 
  -5  -8 -13   -0.01    0.08 
  -5  -7 -13    0.16    0.06 
  -5  -7 -13    0.09    0.09 
  -5  -6 -13    1.03    0.11 
  -5  -6 -13    1.15    0.15 
   5   5  13    0.17    0.06 
  -5  -5 -13    0.20    0.10 
  -5  -5 -13    0.13    0.07 
   5   4  13   -0.02    0.05 
  -5  -4 -13    0.12    0.08 
  -5  -4 -13    0.07    0.05 
  -5  -3 -13    0.66    0.12 
  -5  -3 -13    0.68    0.09 
   5   2  13    0.76    0.10 
  -5  -2 -13    0.53    0.11 
  -5  -2 -13    0.85    0.10 
   5   1  13    0.58    0.09 
  -5  -1 -13    0.43    0.09 
  -5  -1 -13    0.47    0.10 
   5   0  13   -0.03    0.05 
  -5   0 -13   -0.04    0.05 
  -5   0 -13    0.03    0.06 
   5  -1  13    0.47    0.09 
  -5   1 -13    0.57    0.09 
  -5   1 -13    0.67    0.10 
   5  -2  13    0.80    0.12 
  -5   2 -13    0.94    0.11 
  -5   2 -13    0.76    0.11 
   5  -3  13    0.64    0.11 
  -5   3 -13    0.62    0.10 
  -5   3 -13    0.65    0.11 
   5  -4  13    0.10    0.08 
  -5   4 -13    0.06    0.07 
   5  -5  13    0.13    0.08 
   5  -6  13    1.03    0.15 
   5  -7  13   -0.04    0.07 
   5  -8  13    0.01    0.08 
   5  -9  13   -0.04    0.07 
   5 -10  13   -0.01    0.09 
   5 -11  13    0.02    0.10 
   5 -12  13    0.57    0.14 
   5 -13  13    0.20    0.14 
   5 -14  13    0.10    0.15 
   5 -15  13    0.05    0.15 
   5 -16  13   -0.12    0.15 
  -4 -16 -13    0.54    0.20 
  -4 -15 -13   -0.06    0.14 
  -4 -14 -13   -0.02    0.11 
  -4 -13 -13   -0.01    0.11 
  -4 -12 -13    0.70    0.15 
  -4 -11 -13    0.00    0.09 
  -4 -10 -13    1.80    0.15 
  -4 -10 -13    1.74    0.20 
  -4  -9 -13    2.12    0.20 
  -4  -9 -13    1.74    0.15 
  -4  -8 -13    0.02    0.09 
  -4  -8 -13   -0.04    0.06 
  -4  -7 -13   -0.01    0.08 
  -4  -7 -13    0.10    0.06 
  -4  -6 -13   10.29    0.49 
  -4  -6 -13   10.36    0.43 
   4   5  13    0.79    0.08 
  -4  -5 -13    0.77    0.09 
  -4  -5 -13    0.73    0.12 
   4   4  13    1.28    0.10 
  -4  -4 -13    1.14    0.11 
  -4  -4 -13    1.19    0.14 
   4   3  13    0.28    0.06 
  -4  -3 -13    0.26    0.07 
  -4  -3 -13    0.21    0.07 
  -4  -2 -13    7.95    0.37 
  -4  -2 -13    7.50    0.34 
   4   1  13    1.77    0.13 
  -4  -1 -13    2.11    0.15 
  -4  -1 -13    1.98    0.14 
   4   0  13   -0.06    0.05 
  -4   0 -13    0.00    0.05 
  -4   0 -13    0.01    0.05 
   4  -1  13    2.02    0.15 
  -4   1 -13    1.94    0.15 
  -4   1 -13    2.00    0.14 
   4  -2  13    7.63    0.37 
  -4   2 -13    8.00    0.37 
  -4   2 -13    8.06    0.36 
   4  -3  13    0.23    0.08 
  -4   3 -13    0.31    0.08 
  -4   3 -13    0.27    0.07 
   4  -4  13    1.31    0.15 
  -4   4 -13    1.21    0.14 
   4  -5  13    0.76    0.12 
  -4   5 -13    0.73    0.12 
   4  -6  13   10.19    0.48 
   4  -7  13    0.09    0.09 
   4  -8  13   -0.03    0.09 
   4  -9  13    1.87    0.20 
   4 -10  13    1.69    0.20 
   4 -11  13    0.23    0.12 
   4 -12  13    0.82    0.17 
   4 -13  13    0.05    0.13 
   4 -14  13   -0.09    0.12 
   4 -15  13    0.08    0.15 
   4 -16  13    0.47    0.20 
  -3 -17 -13   -0.01    0.16 
  -3 -16 -13    0.16    0.15 
  -3 -15 -13    0.09    0.11 
  -3 -14 -13    0.21    0.12 
  -3 -13 -13    0.06    0.11 
  -3 -12 -13   -0.05    0.08 
  -3 -12 -13    0.03    0.10 
  -3 -11 -13    0.45    0.10 
  -3 -11 -13    0.30    0.12 
  -3 -10 -13    0.46    0.10 
  -3 -10 -13    0.35    0.12 
  -3  -9 -13   -0.01    0.08 
  -3  -9 -13   -0.05    0.06 
  -3  -8 -13    0.65    0.10 
  -3  -8 -13    0.86    0.14 
  -3  -7 -13    0.16    0.07 
  -3  -7 -13    0.13    0.09 
  -3  -6 -13    0.19    0.07 
  -3  -6 -13    0.14    0.09 
  -3  -5 -13    0.84    0.13 
   3   4  13    0.09    0.05 
  -3  -4 -13    0.00    0.05 
  -3  -4 -13    0.21    0.08 
   3   3  13    0.39    0.06 
  -3  -3 -13    0.43    0.09 
  -3  -3 -13    0.30    0.07 
   3   2  13    0.52    0.08 
  -3  -2 -13    1.07    0.11 
  -3  -2 -13    0.94    0.10 
   3   1  13    0.10    0.06 
  -3  -1 -13    0.02    0.05 
  -3  -1 -13    0.07    0.06 
   3   0  13    0.04    0.05 
  -3   0 -13   -0.03    0.04 
  -3   0 -13    0.03    0.06 
   3  -1  13    0.08    0.06 
  -3   1 -13    0.09    0.05 
  -3   1 -13    0.03    0.05 
   3  -2  13    1.11    0.12 
  -3   2 -13    1.05    0.11 
  -3   2 -13    0.93    0.11 
   3  -3  13    0.46    0.09 
  -3   3 -13    0.48    0.09 
  -3   3 -13    0.29    0.06 
   3  -4  13    0.02    0.07 
  -3   4 -13    0.08    0.07 
   3  -5  13    0.81    0.12 
  -3   5 -13    0.56    0.11 
   3  -6  13    0.21    0.09 
  -3   6 -13    0.16    0.09 
   3  -7  13    0.04    0.08 
   3  -8  13    0.81    0.14 
   3  -9  13    0.04    0.07 
   3 -10  13    0.40    0.12 
   3 -11  13    0.41    0.13 
   3 -12  13    0.08    0.11 
   3 -13  13   -0.07    0.10 
   3 -14  13    0.06    0.13 
   3 -15  13   -0.07    0.14 
   3 -16  13    0.04    0.16 
   3 -17  13    0.20    0.17 
  -2 -17 -13    0.03    0.17 
  -2 -16 -13    1.01    0.20 
  -2 -15 -13    0.25    0.13 
  -2 -14 -13    0.00    0.11 
  -2 -14 -13    0.07    0.09 
  -2 -13 -13    0.13    0.11 
  -2 -13 -13    0.05    0.09 
  -2 -12 -13    2.08    0.17 
  -2 -12 -13    1.62    0.20 
  -2 -11 -13   -0.04    0.09 
  -2 -11 -13    0.09    0.08 
  -2 -10 -13    0.45    0.12 
  -2 -10 -13    0.56    0.11 
  -2  -9 -13    0.08    0.07 
  -2  -9 -13   -0.03    0.08 
  -2  -8 -13    2.80    0.18 
  -2  -8 -13    2.91    0.22 
  -2  -7 -13    2.81    0.18 
  -2  -7 -13    3.44    0.23 
  -2  -6 -13    4.01    0.24 
  -2  -6 -13    3.38    0.20 
  -2  -5 -13    3.63    0.23 
  -2  -5 -13    3.94    0.21 
   2   4  13    1.19    0.09 
  -2  -4 -13    1.02    0.11 
  -2  -4 -13    0.84    0.12 
   2   3  13    0.02    0.04 
  -2  -3 -13   -0.04    0.04 
  -2  -3 -13   -0.02    0.05 
   2   2  13   10.32    0.42 
  -2  -2 -13   10.05    0.44 
  -2  -2 -13    9.78    0.42 
   2   1  13   -0.02    0.03 
  -2  -1 -13    0.01    0.05 
  -2  -1 -13    0.07    0.05 
   2   0  13   -0.06    0.05 
  -2   0 -13   -0.01    0.05 
  -2   0 -13   -0.08    0.04 
   2  -1  13    0.08    0.06 
  -2   1 -13    0.61    0.09 
  -2   1 -13    0.03    0.05 
   2  -2  13    9.75    0.44 
  -2   2 -13   10.16    0.44 
   2  -3  13    0.06    0.06 
  -2   3 -13    0.02    0.04 
  -2   3 -13    0.02    0.06 
   2  -4  13    1.11    0.13 
  -2   4 -13    1.13    0.13 
   2  -5  13    4.02    0.25 
  -2   5 -13    4.34    0.25 
   2  -6  13    3.72    0.24 
  -2   6 -13    3.45    0.24 
   2  -7  13    3.52    0.24 
   2  -8  13    2.98    0.22 
   2  -9  13    0.02    0.07 
   2 -10  13    0.35    0.11 
   2 -11  13    0.08    0.11 
   2 -12  13    2.06    0.23 
   2 -13  13    0.00    0.12 
   2 -14  13   -0.06    0.11 
   2 -15  13    0.15    0.15 
   2 -16  13    1.06    0.22 
   2 -17  13    0.03    0.16 
  -1 -17 -13    0.21    0.14 
  -1 -16 -13   -0.08    0.11 
  -1 -15 -13    0.17    0.10 
  -1 -15 -13    0.17    0.13 
  -1 -14 -13    0.08    0.09 
  -1 -14 -13    0.15    0.12 
  -1 -13 -13    0.28    0.11 
  -1 -13 -13    0.32    0.13 
  -1 -12 -13    0.02    0.08 
  -1 -12 -13    0.09    0.10 
  -1 -11 -13    0.13    0.08 
  -1 -11 -13    0.19    0.11 
  -1 -10 -13   -0.04    0.09 
  -1 -10 -13   -0.10    0.06 
  -1  -9 -13    1.46    0.14 
  -1  -9 -13    1.87    0.19 
  -1  -8 -13    0.33    0.09 
  -1  -8 -13    0.41    0.12 
  -1  -7 -13   -0.01    0.09 
  -1  -7 -13    0.28    0.08 
  -1  -6 -13    0.03    0.09 
  -1  -6 -13    0.04    0.07 
  -1  -5 -13    0.28    0.08 
  -1  -5 -13    0.05    0.06 
   1   4  13    0.23    0.05 
  -1  -4 -13    0.34    0.08 
  -1  -4 -13    0.28    0.07 
   1   3  13    1.37    0.10 
  -1  -3 -13    1.51    0.13 
  -1  -3 -13    1.52    0.13 
   1   2  13    0.21    0.06 
  -1  -2 -13    0.27    0.07 
  -1  -2 -13    0.28    0.07 
   1   1  13    4.71    0.26 
  -1  -1 -13    6.49    0.29 
  -1  -1 -13    6.68    0.29 
   1   0  13   -0.04    0.05 
  -1   0 -13   -0.03    0.05 
  -1   0 -13    0.04    0.04 
   1  -1  13    6.49    0.31 
  -1   1 -13    6.82    0.32 
  -1   1 -13    6.91    0.30 
   1  -2  13    0.24    0.08 
  -1   2 -13    0.34    0.08 
  -1   2 -13    0.26    0.06 
   1  -3  13    1.76    0.15 
  -1   3 -13    1.47    0.11 
  -1   3 -13    1.30    0.14 
   1  -4  13    0.11    0.08 
  -1   4 -13    0.22    0.08 
   1  -5  13    0.08    0.07 
  -1   5 -13    0.08    0.08 
   1  -6  13    0.17    0.08 
  -1   6 -13   -0.05    0.07 
   1  -7  13    0.04    0.08 
  -1   7 -13    0.02    0.08 
   1  -8  13    0.09    0.09 
   1  -9  13    1.39    0.17 
   1 -10  13    0.02    0.08 
   1 -11  13    0.08    0.09 
   1 -12  13    0.02    0.10 
   1 -13  13    0.22    0.13 
   1 -14  13    0.01    0.12 
   1 -15  13    0.05    0.14 
   1 -16  13   -0.09    0.16 
   1 -17  13    0.16    0.17 
   0 -17 -13   -0.06    0.11 
   0 -17 -13    0.12    0.14 
   0 -16 -13    0.78    0.18 
   0 -16 -13    0.70    0.15 
   0 -15 -13   -0.06    0.10 
   0 -14 -13    0.00    0.09 
   0 -13 -13   -0.04    0.08 
   0 -12 -13    2.46    0.20 
   0 -11 -13    0.07    0.08 
   0 -10 -13   -0.05    0.07 
   0 -10 -13   -0.16    0.08 
   0  -9 -13    0.15    0.10 
   0  -9 -13   -0.03    0.07 
   0  -8 -13    9.89    0.44 
   0  -8 -13    9.75    0.48 
   0  -7 -13   -0.05    0.06 
   0  -7 -13   -0.13    0.07 
   0  -6 -13    0.08    0.07 
   0  -6 -13    0.08    0.08 
   0  -5 -13   -0.04    0.05 
   0  -5 -13   -0.03    0.05 
   0  -4 -13   11.43    0.49 
   0  -4 -13   11.79    0.51 
   0   3  13    0.01    0.04 
   0  -3 -13   -0.04    0.05 
   0  -3 -13   -0.02    0.05 
   0   2  13    9.47    0.38 
   0  -2 -13    9.27    0.40 
   0  -2 -13    8.73    0.40 
   0   1  13   -0.01    0.05 
   0  -1 -13    0.07    0.06 
   0  -1 -13    0.03    0.04 
   0   0  13   -0.03    0.04 
   0   0 -13   -0.02    0.05 
   0   0 -13   -0.01    0.04 
   0  -1  13    0.06    0.06 
   0   1 -13    0.02    0.04 
   0   1 -13    0.00    0.05 
   0  -2  13    8.62    0.39 
   0   2 -13    8.30    0.39 
   0   2 -13    8.92    0.36 
   0  -3  13   -0.02    0.05 
   0   3 -13    0.01    0.04 
   0   3 -13   -0.04    0.06 
   0  -4  13   12.43    0.53 
   0   4 -13   11.45    0.51 
   0  -5  13   -0.02    0.06 
   0   5 -13   -0.06    0.06 
   0  -6  13   -0.02    0.07 
   0   6 -13   -0.08    0.06 
   0  -7  13   -0.07    0.07 
   0   7 -13   -0.06    0.07 
   0  -8  13    8.83    0.45 
   0  -9  13   -0.03    0.08 
   0 -10  13    0.09    0.08 
   0 -11  13   -0.07    0.08 
   0 -12  13    2.13    0.23 
   0 -13  13    0.01    0.12 
   0 -14  13    0.09    0.12 
   0 -15  13    0.08    0.14 
   0 -16  13    0.77    0.21 
   0 -17  13    0.03    0.17 
   1 -17 -13    0.29    0.14 
   1 -16 -13    0.04    0.12 
   1 -15 -13    0.01    0.11 
   1 -14 -13   -0.18    0.08 
   1 -13 -13    0.21    0.10 
   1 -12 -13    0.11    0.09 
   1 -11 -13   -0.02    0.08 
   1 -10 -13    0.06    0.08 
   1  -9 -13    1.80    0.16 
   1  -8 -13    0.39    0.09 
   1  -7 -13    0.15    0.08 
   1  -6 -13    0.03    0.08 
   1  -6 -13    0.05    0.07 
   1  -5 -13    0.10    0.07 
   1  -5 -13    0.11    0.07 
   1  -4 -13    0.34    0.08 
   1  -4 -13    0.34    0.08 
  -1   3  13    1.62    0.10 
   1  -3 -13    1.59    0.13 
   1  -3 -13    1.71    0.14 
  -1   2  13    0.15    0.06 
   1  -2 -13    0.20    0.07 
   1  -2 -13    0.17    0.06 
  -1   1  13    6.65    0.29 
   1  -1 -13    6.27    0.31 
   1  -1 -13    6.66    0.29 
  -1   0  13    0.05    0.04 
   1   0 -13   -0.01    0.05 
   1   0 -13    0.02    0.04 
  -1  -1  13    7.10    0.34 
   1   1 -13    7.20    0.31 
   1   1 -13    7.29    0.34 
  -1  -2  13    0.10    0.07 
   1   2 -13    0.10    0.06 
   1   2 -13    0.15    0.04 
  -1  -3  13    1.74    0.15 
   1   3 -13    1.32    0.14 
   1   3 -13    1.33    0.09 
  -1  -4  13    0.32    0.09 
   1   4 -13    0.25    0.08 
  -1  -5  13    0.14    0.08 
   1   5 -13    0.06    0.07 
  -1  -6  13    0.08    0.08 
   1   6 -13    0.06    0.08 
  -1  -7  13    0.15    0.10 
   1   7 -13    0.19    0.10 
  -1  -8  13    0.21    0.11 
   1   8 -13    0.46    0.12 
  -1  -9  13    1.53    0.19 
  -1 -10  13   -0.05    0.08 
  -1 -11  13    0.09    0.09 
  -1 -12  13    0.03    0.11 
  -1 -13  13    0.17    0.14 
  -1 -14  13    0.05    0.13 
  -1 -15  13    0.01    0.13 
  -1 -16  13   -0.02    0.15 
  -1 -17  13    0.13    0.17 
   2 -17 -13    0.26    0.15 
   2 -16 -13    1.02    0.17 
   2 -15 -13    0.23    0.12 
   2 -14 -13   -0.03    0.09 
   2 -13 -13   -0.08    0.08 
   2 -12 -13    2.16    0.19 
   2 -11 -13   -0.07    0.08 
   2 -10 -13    0.45    0.11 
   2  -9 -13   -0.04    0.06 
   2  -8 -13    2.91    0.20 
   2  -7 -13    3.22    0.21 
   2  -6 -13    3.81    0.22 
   2  -5 -13    4.51    0.25 
   2  -4 -13    1.26    0.12 
   2  -4 -13    1.35    0.13 
  -2   3  13    0.03    0.04 
   2  -3 -13   -0.01    0.06 
   2  -3 -13    0.01    0.05 
  -2   2  13    9.63    0.38 
   2  -2 -13    8.38    0.40 
  -2   1  13    0.05    0.05 
   2  -1 -13    0.06    0.06 
   2  -1 -13    0.09    0.04 
  -2   0  13    0.02    0.04 
   2   0 -13    0.07    0.04 
   2   0 -13   -0.02    0.04 
  -2  -1  13    0.09    0.06 
   2   1 -13    0.08    0.04 
   2   1 -13    0.05    0.06 
  -2  -2  13    9.77    0.44 
   2   2 -13    9.94    0.43 
   2   2 -13    9.45    0.38 
  -2  -3  13    0.01    0.06 
   2   3 -13   -0.02    0.06 
  -2  -4  13    1.27    0.14 
   2   4 -13    1.31    0.14 
  -2  -5  13    3.93    0.25 
   2   5 -13    3.99    0.24 
  -2  -6  13    3.59    0.24 
   2   6 -13    3.34    0.23 
  -2  -7  13    2.97    0.23 
   2   7 -13    2.84    0.22 
  -2  -8  13    2.56    0.23 
   2   8 -13    2.73    0.22 
  -2  -9  13   -0.05    0.08 
  -2 -10  13    0.48    0.12 
  -2 -11  13   -0.04    0.08 
  -2 -12  13    2.07    0.25 
  -2 -13  13    0.06    0.11 
  -2 -14  13    0.01    0.14 
  -2 -15  13    0.26    0.17 
  -2 -16  13    0.83    0.21 
  -2 -17  13    0.03    0.16 
   3 -17 -13    0.04    0.14 
   3 -16 -13    0.13    0.12 
   3 -15 -13    0.11    0.11 
   3 -14 -13   -0.08    0.09 
   3 -13 -13   -0.01    0.08 
   3 -12 -13    0.13    0.09 
   3 -11 -13    0.16    0.09 
   3 -10 -13    0.36    0.10 
   3  -9 -13    0.03    0.08 
   3  -8 -13    0.88    0.13 
   3  -7 -13    0.26    0.09 
   3  -6 -13    0.13    0.08 
   3  -5 -13    0.75    0.11 
   3  -4 -13    0.08    0.07 
  -3   3  13    0.54    0.07 
   3  -3 -13    0.60    0.09 
   3  -3 -13    0.37    0.09 
  -3   2  13    0.91    0.09 
   3  -2 -13    0.95    0.10 
   3  -2 -13    0.99    0.11 
  -3   1  13    0.12    0.05 
   3  -1 -13    0.02    0.06 
   3  -1 -13    0.04    0.05 
  -3   0  13    0.05    0.04 
   3   0 -13    0.02    0.04 
   3   0 -13    0.01    0.06 
  -3  -1  13    0.01    0.05 
   3   1 -13    0.01    0.06 
   3   1 -13    0.09    0.04 
  -3  -2  13    0.68    0.11 
   3   2 -13    0.75    0.11 
  -3  -3  13    0.59    0.10 
   3   3 -13    0.41    0.09 
  -3  -4  13   -0.01    0.07 
   3   4 -13    0.16    0.08 
  -3  -5  13    0.80    0.13 
   3   5 -13    0.78    0.12 
  -3  -6  13    0.12    0.09 
   3   6 -13    0.13    0.09 
  -3  -7  13    0.22    0.10 
   3   7 -13    0.19    0.10 
  -3  -8  13    0.80    0.15 
   3   8 -13    0.67    0.13 
  -3  -9  13    0.06    0.09 
   3   9 -13    0.04    0.09 
  -3 -10  13    0.34    0.12 
  -3 -11  13    0.66    0.14 
  -3 -12  13   -0.01    0.10 
  -3 -13  13    0.12    0.13 
  -3 -14  13    0.17    0.15 
  -3 -15  13   -0.01    0.15 
  -3 -16  13    0.08    0.16 
  -3 -17  13    0.11    0.17 
   4 -16 -13    0.31    0.14 
   4 -15 -13    0.20    0.13 
   4 -14 -13   -0.16    0.09 
   4 -13 -13    0.06    0.10 
   4 -12 -13    0.87    0.14 
   4 -11 -13    0.20    0.09 
   4 -10 -13    1.82    0.17 
   4  -9 -13    1.47    0.16 
   4  -8 -13   -0.02    0.07 
   4  -7 -13   -0.07    0.07 
   4  -6 -13   11.02    0.49 
   4  -5 -13    0.85    0.12 
   4  -4 -13    1.06    0.12 
  -4   3  13    0.25    0.06 
   4  -3 -13    0.30    0.09 
  -4   2  13    7.62    0.34 
   4  -2 -13    7.61    0.35 
  -4   1  13    1.83    0.13 
   4  -1 -13    2.03    0.15 
   4  -1 -13    1.88    0.12 
   4   0 -13   -0.06    0.05 
   4   0 -13   -0.02    0.03 
   4   0 -13   -0.05    0.06 
   4   1 -13    2.02    0.16 
   4   1 -13    2.07    0.16 
   4   2 -13    7.84    0.37 
   4   2 -13    7.78    0.38 
   4   3 -13    0.28    0.08 
   4   3 -13    0.20    0.08 
   4   4 -13    0.79    0.12 
   4   4 -13    0.88    0.13 
   4   5 -13    0.73    0.13 
   4   5 -13    0.81    0.12 
   4   6 -13   10.57    0.51 
   4   6 -13   10.27    0.48 
   4   7 -13   -0.01    0.08 
   4   7 -13   -0.03    0.08 
  -4  -8  13    0.01    0.08 
   4   8 -13   -0.04    0.09 
  -4  -9  13    1.54    0.19 
   4   9 -13    1.92    0.20 
  -4 -10  13    1.40    0.19 
  -4 -11  13    0.03    0.10 
  -4 -12  13    0.58    0.15 
  -4 -13  13    0.25    0.14 
  -4 -14  13   -0.05    0.13 
  -4 -15  13   -0.02    0.14 
  -4 -16  13    0.56    0.19 
   5 -16 -13   -0.15    0.11 
   5 -15 -13    0.23    0.13 
   5 -14 -13    0.04    0.10 
   5 -13 -13    0.00    0.09 
   5 -12 -13    0.65    0.14 
   5 -11 -13    0.00    0.09 
   5 -10 -13    0.08    0.09 
   5  -9 -13   -0.01    0.07 
   5  -8 -13   -0.02    0.08 
   5  -7 -13    0.07    0.08 
   5  -6 -13    0.80    0.13 
   5  -5 -13    0.09    0.08 
   5  -4 -13   -0.08    0.06 
   5  -3 -13    0.59    0.11 
   5  -2 -13    0.80    0.10 
   5  -2 -13    0.65    0.11 
   5  -1 -13    0.49    0.10 
   5  -1 -13    0.62    0.09 
   5   0 -13    0.00    0.06 
   5   0 -13   -0.05    0.05 
   5   1 -13    0.57    0.10 
   5   1 -13    0.71    0.11 
   5   2 -13    0.78    0.12 
   5   2 -13    0.61    0.11 
   5   3 -13    0.72    0.12 
   5   3 -13    0.82    0.12 
   5   4 -13    0.04    0.08 
   5   4 -13   -0.04    0.07 
   5   5 -13    0.12    0.08 
   5   5 -13    0.10    0.08 
   5   6 -13    0.90    0.15 
   5   6 -13    1.06    0.14 
   5   7 -13    0.09    0.09 
   5   7 -13   -0.02    0.08 
   5   8 -13    0.08    0.08 
   5   8 -13    0.07    0.10 
   5   9 -13    0.06    0.08 
   5   9 -13    0.09    0.10 
   5  10 -13    0.04    0.09 
  -5 -11  13    0.11    0.10 
  -5 -12  13    0.39    0.13 
  -5 -13  13    0.07    0.13 
  -5 -14  13    0.00    0.14 
  -5 -15  13    0.19    0.17 
  -5 -16  13    0.03    0.15 
   6 -16 -13    0.28    0.14 
   6 -15 -13    0.52    0.16 
   6 -14 -13   -0.03    0.11 
   6 -13 -13    0.17    0.11 
   6 -12 -13    0.47    0.13 
   6 -11 -13    0.07    0.09 
   6 -10 -13    0.07    0.09 
   6  -9 -13   -0.07    0.08 
   6  -8 -13    0.04    0.07 
   6  -7 -13    1.53    0.16 
   6  -6 -13    4.76    0.27 
   6  -5 -13    1.65    0.16 
   6  -4 -13    0.10    0.08 
   6  -3 -13    6.15    0.31 
   6  -2 -13   15.05    0.61 
   6  -2 -13   14.51    0.61 
   6  -1 -13    2.00    0.15 
   6  -1 -13    1.97    0.17 
   6   0 -13   -0.03    0.07 
   6   0 -13    0.00    0.06 
   6   1 -13    2.11    0.17 
   6   1 -13    1.84    0.16 
   6   2 -13   14.49    0.64 
   6   2 -13   15.29    0.62 
   6   3 -13    5.66    0.29 
   6   3 -13    4.85    0.29 
   6   4 -13    0.22    0.09 
   6   4 -13    0.27    0.09 
   6   5 -13    1.84    0.19 
   6   5 -13    1.65    0.17 
   6   6 -13    4.33    0.27 
   6   6 -13    4.61    0.29 
   6   7 -13    1.51    0.19 
   6   7 -13    1.50    0.17 
   6   8 -13   -0.03    0.09 
   6   8 -13    0.11    0.11 
   6   9 -13   -0.01    0.09 
   6   9 -13   -0.04    0.09 
   6  10 -13    0.04    0.10 
   6  10 -13   -0.09    0.09 
   6  11 -13    0.10    0.11 
   6  12 -13    0.31    0.14 
  -6 -13  13    0.06    0.13 
  -6 -14  13    0.15    0.16 
  -6 -15  13    0.26    0.18 
  -6 -16  13    0.42    0.19 
   7 -16 -13    0.01    0.13 
   7 -15 -13    0.06    0.12 
   7 -14 -13   -0.01    0.11 
   7 -13 -13   -0.05    0.10 
   7 -12 -13    0.18    0.11 
   7 -11 -13    0.59    0.14 
   7 -10 -13    0.05    0.09 
   7  -9 -13    0.47    0.12 
   7  -8 -13    0.32    0.10 
   7  -7 -13    0.52    0.11 
   7  -6 -13    2.58    0.20 
   7  -5 -13    0.99    0.14 
   7  -4 -13    0.93    0.13 
   7  -3 -13    0.29    0.10 
   7  -2 -13    0.13    0.08 
   7  -2 -13    0.19    0.07 
   7  -1 -13    0.28    0.08 
   7  -1 -13    0.18    0.08 
   7   0 -13   -0.01    0.07 
   7   0 -13   -0.05    0.05 
   7   1 -13    0.25    0.09 
   7   1 -13    0.22    0.08 
   7   2 -13    0.06    0.07 
   7   2 -13    0.14    0.08 
   7   3 -13    0.37    0.10 
   7   3 -13    0.25    0.09 
   7   4 -13    0.99    0.14 
   7   4 -13    1.48    0.17 
   7   5 -13    1.27    0.17 
   7   5 -13    1.05    0.15 
   7   6 -13    1.98    0.21 
   7   6 -13    2.40    0.20 
   7   7 -13    0.65    0.13 
   7   7 -13    0.56    0.13 
   7   8 -13    0.39    0.12 
   7   8 -13    0.32    0.12 
   7   9 -13    0.78    0.16 
   7   9 -13    0.61    0.14 
   7  10 -13   -0.02    0.09 
   7  10 -13    0.05    0.10 
   7  11 -13    0.67    0.16 
   7  12 -13   -0.03    0.12 
   7  13 -13    0.12    0.14 
  -7 -14  13    0.00    0.15 
  -7 -15  13    0.14    0.16 
   8 -15 -13    0.07    0.13 
   8 -14 -13   -0.03    0.11 
   8 -13 -13    0.09    0.11 
   8 -12 -13    0.37    0.13 
   8 -11 -13   -0.03    0.10 
   8 -10 -13    0.24    0.10 
   8  -9 -13    0.20    0.10 
   8  -8 -13    1.86    0.18 
   8  -7 -13    0.77    0.13 
   8  -6 -13    0.11    0.09 
   8  -5 -13    4.79    0.28 
   8  -4 -13    1.67    0.17 
   8  -3 -13    7.19    0.36 
   8  -2 -13    0.65    0.12 
   8  -2 -13    0.74    0.11 
   8  -1 -13    4.23    0.24 
   8  -1 -13    4.29    0.25 
   8   0 -13    0.05    0.07 
   8   0 -13    0.09    0.08 
   8   1 -13    3.65    0.24 
   8   1 -13    4.67    0.25 
   8   2 -13    0.62    0.11 
   8   2 -13    0.61    0.11 
   8   3 -13    7.48    0.36 
   8   3 -13    7.03    0.38 
   8   4 -13    1.95    0.19 
   8   4 -13    1.50    0.16 
   8   5 -13    4.95    0.28 
   8   5 -13    4.25    0.29 
   8   6 -13   -0.11    0.09 
   8   6 -13    0.04    0.09 
   8   7 -13    0.83    0.16 
   8   7 -13    1.02    0.15 
   8   8 -13    1.83    0.22 
   8   8 -13    1.69    0.19 
   8   9 -13    0.14    0.12 
   8   9 -13    0.03    0.10 
   8  10 -13   -0.06    0.11 
   8  10 -13   -0.06    0.10 
   8  11 -13    0.14    0.13 
   8  12 -13    0.40    0.16 
   8  13 -13    0.21    0.16 
   8  14 -13    0.23    0.15 
   8  15 -13    0.24    0.15 
   9 -15 -13   -0.03    0.13 
   9 -14 -13   -0.12    0.11 
   9 -13 -13   -0.04    0.12 
   9 -12 -13   -0.02    0.11 
   9 -11 -13    0.06    0.10 
   9 -10 -13    0.22    0.10 
   9  -9 -13    0.08    0.09 
   9  -8 -13    0.17    0.10 
   9  -7 -13    0.18    0.10 
   9  -6 -13    0.76    0.13 
   9  -5 -13    0.24    0.10 
   9  -4 -13    0.62    0.12 
   9  -3 -13    0.86    0.13 
   9  -2 -13    0.23    0.08 
   9  -2 -13    0.11    0.09 
   9  -1 -13    0.03    0.08 
   9  -1 -13   -0.04    0.06 
   9   0 -13    0.04    0.08 
   9   0 -13    0.05    0.07 
   9   1 -13   -0.08    0.06 
   9   1 -13    0.08    0.08 
   9   2 -13    0.13    0.08 
   9   2 -13    0.16    0.09 
   9   3 -13    0.96    0.15 
   9   3 -13    1.02    0.14 
   9   4 -13    0.73    0.14 
   9   4 -13    0.67    0.13 
   9   5 -13    0.15    0.10 
   9   5 -13    0.11    0.09 
   9   6 -13    0.69    0.13 
   9   6 -13    1.14    0.17 
   9   7 -13    0.00    0.09 
   9   7 -13    0.06    0.09 
   9   8 -13    0.20    0.11 
   9   8 -13    0.09    0.10 
   9   9 -13    0.11    0.11 
   9   9 -13    0.41    0.13 
   9  10 -13    0.28    0.14 
   9  10 -13    0.43    0.14 
   9  11 -13   -0.05    0.10 
   9  12 -13   -0.08    0.12 
   9  13 -13    0.00    0.15 
   9  14 -13    0.34    0.16 
   9  15 -13    0.12    0.13 
  10 -14 -13   -0.02    0.13 
  10 -13 -13    0.35    0.13 
  10 -12 -13    0.08    0.11 
  10 -11 -13    0.31    0.12 
  10 -10 -13    0.13    0.11 
  10  -9 -13    0.20    0.11 
  10  -8 -13    1.08    0.16 
  10  -7 -13    0.08    0.09 
  10  -6 -13    0.24    0.11 
  10  -5 -13    0.53    0.12 
  10  -4 -13    0.28    0.10 
  10  -3 -13    0.47    0.11 
  10  -2 -13    0.70    0.13 
  10  -2 -13    0.74    0.12 
  10  -1 -13    0.75    0.13 
  10  -1 -13    0.93    0.13 
  10   0 -13    0.12    0.08 
  10   0 -13    0.01    0.07 
  10   1 -13    0.80    0.13 
  10   1 -13    1.09    0.15 
  10   2 -13    0.75    0.13 
  10   2 -13    0.82    0.14 
  10   3 -13    0.46    0.12 
  10   3 -13    0.69    0.12 
  10   4 -13    0.36    0.12 
  10   4 -13    0.42    0.11 
  10   5 -13    0.40    0.12 
  10   5 -13    0.49    0.12 
  10   6 -13    0.33    0.12 
  10   6 -13    0.36    0.11 
  10   7 -13    0.05    0.10 
  10   7 -13    0.02    0.09 
  10   8 -13    1.29    0.20 
  10   8 -13    1.06    0.16 
  10   9 -13    0.12    0.12 
  10   9 -13    0.48    0.14 
  10  10 -13    0.06    0.12 
  10  10 -13    0.09    0.13 
  10  11 -13    0.21    0.15 
  10  12 -13    0.06    0.14 
  10  13 -13    0.58    0.18 
  10  14 -13    0.14    0.14 
  11 -13 -13    0.07    0.11 
  11 -12 -13    0.05    0.10 
  11 -11 -13   -0.11    0.09 
  11 -10 -13    0.08    0.10 
  11  -9 -13   -0.04    0.09 
  11  -8 -13    0.01    0.10 
  11  -7 -13    0.14    0.10 
  11  -6 -13   -0.01    0.09 
  11  -5 -13    0.07    0.09 
  11  -4 -13    0.16    0.10 
  11  -3 -13    0.12    0.10 
  11  -2 -13    0.08    0.09 
  11  -1 -13    0.00    0.08 
  11  -1 -13    0.13    0.09 
  11   0 -13   -0.11    0.08 
  11   0 -13    0.10    0.09 
  11   1 -13   -0.06    0.08 
  11   1 -13   -0.01    0.08 
  11   2 -13    0.09    0.09 
  11   2 -13    0.12    0.09 
  11   3 -13    0.15    0.10 
  11   3 -13    0.13    0.09 
  11   4 -13    0.03    0.09 
  11   4 -13    0.01    0.08 
  11   5 -13    0.05    0.10 
  11   5 -13    0.08    0.09 
  11   6 -13    0.12    0.10 
  11   6 -13    0.03    0.09 
  11   7 -13    0.20    0.11 
  11   7 -13    0.20    0.12 
  11   8 -13    0.04    0.11 
  11   8 -13    0.00    0.10 
  11   9 -13    0.17    0.13 
  11   9 -13   -0.08    0.11 
  11  10 -13    0.04    0.13 
  11  10 -13   -0.05    0.13 
  11  11 -13   -0.10    0.12 
  11  12 -13   -0.02    0.16 
  11  13 -13    0.17    0.17 
  12 -12 -13    0.19    0.11 
  12 -11 -13    0.08    0.11 
  12 -10 -13   -0.18    0.10 
  12  -9 -13    0.42    0.13 
  12  -8 -13    0.22    0.11 
  12  -7 -13    0.82    0.15 
  12  -6 -13    0.19    0.11 
  12  -5 -13    0.78    0.14 
  12  -4 -13    0.24    0.11 
  12  -3 -13    0.04    0.09 
  12  -2 -13   -0.02    0.09 
  12  -1 -13    0.03    0.08 
  12  -1 -13    0.05    0.09 
  12   0 -13   -0.06    0.07 
  12   0 -13    0.09    0.09 
  12   1 -13    0.06    0.08 
  12   1 -13   -0.03    0.08 
  12   2 -13    0.05    0.09 
  12   2 -13    0.06    0.10 
  12   3 -13    0.16    0.10 
  12   3 -13   -0.02    0.08 
  12   4 -13    0.11    0.10 
  12   4 -13    0.25    0.10 
  12   5 -13    0.65    0.13 
  12   5 -13    0.60    0.14 
  12   6 -13    0.15    0.11 
  12   6 -13    0.21    0.12 
  12   7 -13    0.95    0.18 
  12   7 -13    1.00    0.16 
  12   8 -13    0.65    0.16 
  12   8 -13    0.22    0.14 
  12   9 -13    0.57    0.17 
  12  10 -13   -0.02    0.13 
  12  11 -13   -0.07    0.13 
  12  12 -13   -0.02    0.16 
  13 -12 -13    0.18    0.11 
  13 -11 -13    0.13    0.11 
  13 -10 -13    0.16    0.11 
  13  -9 -13   -0.19    0.09 
  13  -8 -13   -0.02    0.10 
  13  -7 -13    0.18    0.12 
  13  -6 -13    0.05    0.10 
  13  -5 -13    0.04    0.10 
  13  -4 -13   -0.01    0.09 
  13  -3 -13    0.05    0.10 
  13  -2 -13    0.02    0.09 
  13  -1 -13    0.34    0.11 
  13  -1 -13    0.30    0.11 
  13   0 -13   -0.02    0.09 
  13   0 -13    0.03    0.09 
  13   1 -13    0.15    0.09 
  13   1 -13    0.05    0.10 
  13   2 -13    0.02    0.08 
  13   2 -13    0.19    0.10 
  13   3 -13    0.04    0.10 
  13   3 -13   -0.04    0.08 
  13   4 -13   -0.03    0.10 
  13   4 -13   -0.02    0.09 
  13   5 -13    0.04    0.10 
  13   5 -13    0.10    0.10 
  13   6 -13    0.13    0.12 
  13   6 -13   -0.08    0.10 
  13   7 -13    0.05    0.13 
  13   8 -13    0.06    0.13 
  13   9 -13   -0.02    0.13 
  13  10 -13    0.03    0.15 
  13  11 -13    0.02    0.14 
  13  12 -13   -0.05    0.16 
  14 -10 -13    0.01    0.11 
  14  -9 -13    0.54    0.15 
  14  -8 -13    0.11    0.12 
  14  -7 -13    0.39    0.14 
  14  -6 -13    0.20    0.12 
  14  -5 -13    0.31    0.12 
  14  -4 -13    0.08    0.11 
  14  -3 -13   -0.03    0.10 
  14  -2 -13    0.06    0.10 
  14  -1 -13    0.12    0.10 
  14   0 -13   -0.06    0.08 
  14   0 -13    0.01    0.10 
  14   1 -13    0.13    0.11 
  14   1 -13    0.02    0.09 
  14   2 -13    0.06    0.10 
  14   2 -13    0.11    0.11 
  14   3 -13    0.07    0.10 
  14   3 -13   -0.01    0.11 
  14   4 -13    0.25    0.12 
  14   4 -13    0.23    0.13 
  14   5 -13    0.53    0.16 
  14   6 -13    0.29    0.15 
  14   7 -13    0.23    0.15 
  14   8 -13    0.07    0.14 
  14   9 -13    0.63    0.20 
  14  10 -13    0.03    0.15 
  15  -9 -13    0.00    0.12 
  15  -8 -13    0.10    0.12 
  15  -7 -13    0.07    0.12 
  15  -6 -13    0.09    0.12 
  15  -5 -13    0.21    0.12 
  15  -4 -13    0.10    0.11 
  15  -3 -13   -0.07    0.11 
  15  -2 -13   -0.02    0.10 
  15  -1 -13    0.13    0.11 
  15   0 -13   -0.17    0.09 
  15   0 -13    0.08    0.10 
  15   1 -13    0.14    0.11 
  15   1 -13    0.13    0.11 
  15   2 -13    0.15    0.12 
  15   2 -13   -0.03    0.11 
  15   3 -13    0.04    0.12 
  15   4 -13    0.04    0.12 
  15   5 -13    0.11    0.13 
  15   6 -13    0.05    0.13 
  15   7 -13   -0.03    0.14 
  15   8 -13   -0.12    0.15 
  15   9 -13   -0.03    0.15 
  16  -8 -13    0.12    0.13 
  16  -7 -13    0.03    0.13 
  16  -6 -13   -0.03    0.12 
  16  -5 -13    0.29    0.14 
  16  -4 -13    0.07    0.12 
  16  -3 -13    0.07    0.12 
  16  -2 -13    0.23    0.13 
  16  -1 -13    0.01    0.12 
  16   0 -13   -0.08    0.12 
  16   1 -13    0.03    0.13 
  16   2 -13    0.09    0.13 
  16   3 -13    0.02    0.14 
  16   4 -13    0.10    0.14 
  16   5 -13    0.30    0.17 
  16   6 -13    0.02    0.15 
  16   7 -13   -0.07    0.15 
  16   8 -13    0.12    0.17 
  17  -5 -13   -0.08    0.13 
  17  -4 -13    0.01    0.13 
  17   1 -13    0.28    0.17 
  17   2 -13    0.01    0.14 
  17   3 -13    0.08    0.15 
  17   4 -13   -0.02    0.16 
  17   5 -13   -0.05    0.16 
  18   1 -13    0.13    0.17 
  17   3  14    0.22    0.13 
 -17  -3 -14    0.37    0.15 
  17   2  14    0.37    0.13 
  17   1  14    0.10    0.10 
  17   0  14    0.17    0.11 
  17  -1  14   -0.09    0.08 
  17  -2  14   -0.09    0.08 
  17  -3  14    0.42    0.12 
  16   6  14    0.12    0.13 
 -16  -6 -14    0.02    0.15 
  16   5  14    0.12    0.11 
 -16  -5 -14    0.16    0.16 
  16   4  14    0.02    0.11 
 -16  -4 -14    0.20    0.13 
  16   3  14    0.35    0.12 
 -16  -3 -14    0.11    0.13 
  16   2  14    0.38    0.13 
 -16  -2 -14    0.17    0.13 
  16   1  14    0.24    0.11 
  16   0  14    0.27    0.12 
  16  -1  14   -0.11    0.09 
  16  -2  14    0.10    0.11 
  16  -3  14    0.13    0.10 
  16  -4  14   -0.16    0.08 
  16  -5  14    0.27    0.11 
  16  -6  14    0.16    0.10 
 -15  -8 -14   -0.08    0.15 
 -15  -7 -14   -0.05    0.16 
  15   6  14    0.19    0.13 
 -15  -6 -14    0.19    0.17 
  15   5  14    0.02    0.11 
 -15  -5 -14    0.14    0.13 
  15   4  14    0.43    0.13 
 -15  -4 -14    0.49    0.16 
  15   3  14    0.00    0.10 
 -15  -3 -14    0.23    0.15 
  15   2  14   -0.01    0.09 
 -15  -2 -14   -0.04    0.11 
  15   1  14    0.18    0.10 
 -15  -1 -14    0.08    0.12 
  15   0  14   -0.01    0.09 
  15  -1  14    0.25    0.11 
  15  -2  14    0.15    0.11 
  15  -3  14    0.12    0.09 
  15  -4  14    0.32    0.11 
  15  -5  14    0.27    0.12 
  15  -6  14    0.01    0.09 
  15  -7  14    0.17    0.10 
  15  -8  14    0.21    0.12 
 -14 -10 -14    0.24    0.18 
 -14  -9 -14    0.06    0.16 
 -14  -8 -14    0.19    0.17 
 -14  -7 -14    0.36    0.17 
  14   6  14    0.21    0.12 
 -14  -6 -14   -0.07    0.11 
  14   5  14   -0.05    0.09 
 -14  -5 -14    0.15    0.13 
  14   4  14    0.16    0.11 
 -14  -4 -14    0.10    0.13 
  14   3  14    0.33    0.12 
 -14  -3 -14    0.14    0.13 
  14   2  14    0.16    0.10 
 -14  -2 -14   -0.01    0.11 
  14   1  14    0.10    0.09 
 -14  -1 -14    0.04    0.11 
  14   0  14    0.11    0.09 
  14  -1  14    0.07    0.10 
  14  -2  14    0.01    0.09 
  14  -3  14    0.18    0.11 
  14  -4  14    0.14    0.10 
  14  -5  14   -0.05    0.09 
  14  -6  14    0.21    0.12 
  14  -7  14    0.58    0.14 
  14  -8  14   -0.03    0.09 
  14  -9  14    0.19    0.16 
  14 -10  14    0.17    0.16 
 -13 -11 -14    0.30    0.19 
 -13 -10 -14   -0.17    0.13 
 -13  -9 -14    0.05    0.16 
 -13  -8 -14    0.35    0.17 
 -13  -7 -14    0.11    0.14 
  13   6  14    0.22    0.11 
 -13  -6 -14    0.24    0.14 
  13   5  14    0.46    0.13 
 -13  -5 -14    0.16    0.14 
  13   4  14    0.83    0.14 
 -13  -4 -14    0.75    0.17 
  13   3  14    0.13    0.10 
 -13  -3 -14    0.06    0.11 
  13   2  14    0.10    0.09 
 -13  -2 -14   -0.06    0.11 
  13   1  14    0.09    0.09 
 -13  -1 -14    0.15    0.12 
  13   0  14    0.30    0.11 
 -13   0 -14    0.32    0.14 
  13  -1  14    0.16    0.10 
  13  -2  14    0.06    0.09 
  13  -3  14    0.10    0.10 
  13  -4  14    0.75    0.15 
  13  -5  14    0.20    0.10 
  13  -6  14    0.23    0.11 
  13  -7  14    0.00    0.09 
  13  -8  14    0.57    0.14 
  13  -9  14   -0.01    0.09 
  13 -10  14    0.05    0.14 
  13 -11  14    0.06    0.15 
 -12 -12 -14    0.28    0.18 
 -12 -11 -14   -0.10    0.14 
 -12 -10 -14    0.02    0.15 
 -12  -9 -14    0.07    0.15 
 -12  -8 -14    0.00    0.12 
 -12  -7 -14    0.29    0.14 
  12   6  14    0.18    0.10 
 -12  -6 -14    0.02    0.11 
  12   5  14    0.15    0.09 
 -12  -5 -14   -0.07    0.11 
  12   4  14    0.19    0.09 
 -12  -4 -14    0.12    0.11 
  12   3  14    0.24    0.09 
 -12  -3 -14    0.10    0.11 
  12   2  14    0.34    0.11 
 -12  -2 -14    0.06    0.12 
  12   1  14    0.31    0.11 
 -12  -1 -14    0.32    0.14 
  12   0  14    0.06    0.08 
 -12   0 -14   -0.06    0.10 
  12  -1  14    0.48    0.12 
  12  -2  14    0.20    0.09 
  12  -3  14    0.25    0.11 
  12  -4  14    0.01    0.10 
  12  -5  14    0.13    0.11 
  12  -6  14    0.16    0.10 
  12  -7  14    0.15    0.11 
  12  -8  14    0.13    0.10 
  12  -9  14    0.01    0.10 
  12 -10  14    0.31    0.16 
  12 -11  14   -0.09    0.14 
  12 -12  14   -0.02    0.15 
 -11 -12 -14    0.20    0.17 
 -11 -11 -14    0.09    0.16 
 -11 -10 -14    0.38    0.16 
 -11  -9 -14    0.24    0.14 
 -11  -8 -14    0.22    0.13 
 -11  -7 -14    0.33    0.14 
  11   6  14   -0.03    0.09 
 -11  -6 -14    0.36    0.13 
  11   5  14    0.13    0.09 
 -11  -5 -14    0.04    0.10 
  11   4  14    0.79    0.13 
 -11  -4 -14    0.41    0.13 
  11   3  14    0.06    0.08 
 -11  -3 -14    0.07    0.10 
  11   2  14    0.25    0.10 
 -11  -2 -14    0.05    0.10 
  11   1  14    0.81    0.13 
 -11  -1 -14    0.74    0.15 
  11   0  14    1.78    0.18 
 -11   0 -14    1.77    0.20 
  11  -1  14    0.80    0.14 
 -11   1 -14    0.96    0.16 
  11  -2  14    0.25    0.10 
  11  -3  14    0.27    0.10 
  11  -4  14    0.50    0.13 
  11  -5  14    0.00    0.09 
  11  -6  14    0.22    0.10 
  11  -7  14    0.45    0.13 
  11  -8  14    0.18    0.10 
  11  -9  14    0.41    0.13 
  11 -10  14    0.33    0.15 
  11 -11  14   -0.01    0.15 
  11 -12  14    0.06    0.15 
  11 -13  14    0.04    0.16 
 -10 -13 -14   -0.02    0.14 
 -10 -12 -14    0.03    0.14 
 -10 -11 -14    0.38    0.17 
 -10 -10 -14   -0.05    0.12 
 -10  -9 -14    0.10    0.12 
 -10  -8 -14    0.04    0.12 
 -10  -7 -14    0.19    0.12 
 -10  -6 -14    1.20    0.18 
  10   5  14    0.09    0.08 
 -10  -5 -14    0.07    0.11 
  10   4  14    0.89    0.13 
 -10  -4 -14    0.73    0.15 
  10   3  14    0.23    0.09 
 -10  -3 -14    0.10    0.10 
  10   2  14    0.65    0.12 
 -10  -2 -14    0.45    0.13 
  10   1  14    0.83    0.13 
 -10  -1 -14    0.97    0.15 
  10   0  14    1.27    0.15 
 -10   0 -14    1.07    0.16 
  10  -1  14    0.71    0.13 
 -10   1 -14    0.84    0.15 
  10  -2  14    0.53    0.12 
  10  -3  14    0.25    0.10 
  10  -4  14    0.66    0.13 
  10  -5  14    0.02    0.08 
  10  -6  14    0.97    0.16 
  10  -7  14    0.07    0.10 
  10  -8  14    0.04    0.10 
  10  -9  14    0.28    0.11 
  10 -10  14    0.00    0.13 
  10 -11  14    0.27    0.16 
  10 -12  14    0.04    0.14 
  10 -13  14    0.29    0.18 
  -9 -14 -14    0.24    0.17 
  -9 -13 -14   -0.19    0.13 
  -9 -12 -14    0.20    0.16 
  -9 -11 -14    0.16    0.13 
  -9 -10 -14    0.65    0.16 
  -9  -9 -14    0.84    0.18 
  -9  -8 -14    0.03    0.10 
  -9  -7 -14    1.03    0.17 
  -9  -6 -14    0.50    0.13 
   9   5  14    1.13    0.13 
  -9  -5 -14    0.93    0.16 
   9   4  14    0.02    0.08 
  -9  -4 -14    0.10    0.10 
   9   3  14   -0.11    0.07 
  -9  -3 -14   -0.09    0.08 
   9   2  14    0.16    0.08 
  -9  -2 -14    0.12    0.10 
   9   1  14    0.86    0.13 
  -9  -1 -14    0.76    0.15 
   9   0  14    1.81    0.17 
  -9   0 -14    1.34    0.17 
   9  -1  14    0.72    0.13 
  -9   1 -14    0.63    0.13 
   9  -2  14    0.24    0.10 
  -9   2 -14    0.11    0.10 
   9  -3  14    0.03    0.08 
   9  -4  14    0.05    0.09 
   9  -5  14    0.96    0.15 
   9  -6  14    0.62    0.14 
   9  -7  14    0.90    0.16 
   9  -8  14    0.03    0.08 
   9  -9  14    1.17    0.18 
   9 -10  14    0.78    0.17 
   9 -11  14    0.23    0.14 
   9 -12  14    0.14    0.15 
   9 -13  14   -0.15    0.14 
   9 -14  14    0.81    0.22 
  -8 -14 -14   -0.10    0.15 
  -8 -13 -14    0.05    0.16 
  -8 -12 -14   -0.14    0.12 
  -8 -11 -14    0.04    0.11 
  -8 -10 -14    0.90    0.18 
  -8  -9 -14    0.74    0.16 
  -8  -8 -14    0.44    0.13 
  -8  -7 -14    0.11    0.10 
  -8  -6 -14    0.56    0.13 
   8   5  14    0.08    0.07 
  -8  -5 -14    0.04    0.10 
   8   4  14   -0.03    0.07 
  -8  -4 -14   -0.01    0.10 
   8   3  14    0.62    0.11 
  -8  -3 -14    0.62    0.13 
   8   2  14    0.51    0.10 
  -8  -2 -14    0.24    0.11 
   8   1  14    0.93    0.13 
  -8  -1 -14    1.13    0.12 
  -8  -1 -14    0.95    0.14 
   8   0  14    0.25    0.09 
  -8   0 -14    0.20    0.08 
  -8   0 -14    0.18    0.10 
   8  -1  14    0.89    0.13 
  -8   1 -14    0.87    0.14 
   8  -2  14    0.39    0.11 
  -8   2 -14    0.47    0.12 
   8  -3  14    0.56    0.12 
   8  -4  14   -0.05    0.08 
   8  -5  14    0.10    0.09 
   8  -6  14    0.54    0.13 
   8  -7  14    0.08    0.09 
   8  -8  14    0.45    0.13 
   8  -9  14    0.62    0.14 
   8 -10  14    0.45    0.13 
   8 -11  14    0.02    0.13 
   8 -12  14   -0.03    0.14 
   8 -13  14   -0.03    0.14 
   8 -14  14    0.05    0.16 
  -7 -15 -14    0.03    0.16 
  -7 -14 -14    0.48    0.19 
  -7 -13 -14    0.07    0.12 
  -7 -12 -14    0.16    0.13 
  -7 -11 -14    0.27    0.14 
  -7 -10 -14    0.19    0.12 
  -7  -9 -14    0.11    0.12 
  -7  -8 -14   -0.01    0.09 
  -7  -7 -14    0.24    0.11 
  -7  -6 -14    2.31    0.22 
   7   5  14    0.61    0.09 
  -7  -5 -14    1.06    0.16 
   7   4  14    0.11    0.06 
  -7  -4 -14   -0.07    0.08 
   7   3  14    0.08    0.06 
  -7  -3 -14    0.11    0.10 
  -7  -3 -14    0.17    0.07 
   7   2  14    0.08    0.07 
  -7  -2 -14    0.15    0.07 
  -7  -2 -14    0.05    0.09 
   7   1  14    0.73    0.11 
  -7  -1 -14    0.80    0.10 
  -7  -1 -14    0.77    0.13 
   7   0  14    2.23    0.17 
  -7   0 -14    2.06    0.16 
  -7   0 -14    2.02    0.19 
   7  -1  14    0.69    0.11 
  -7   1 -14    0.74    0.11 
  -7   1 -14    0.73    0.13 
   7  -2  14    0.04    0.08 
  -7   2 -14    0.04    0.09 
  -7   2 -14   -0.01    0.06 
   7  -3  14    0.02    0.08 
   7  -4  14    0.09    0.09 
   7  -5  14    1.25    0.17 
   7  -6  14    2.04    0.20 
   7  -7  14    0.38    0.11 
   7  -8  14   -0.03    0.08 
   7  -9  14    0.09    0.10 
   7 -10  14    0.32    0.12 
   7 -11  14    0.21    0.13 
   7 -12  14    0.05    0.14 
   7 -13  14   -0.07    0.12 
   7 -14  14    0.62    0.19 
   7 -15  14   -0.04    0.16 
  -6 -15 -14   -0.30    0.14 
  -6 -14 -14    0.54    0.16 
  -6 -13 -14    0.07    0.12 
  -6 -12 -14   -0.07    0.11 
  -6 -11 -14    0.20    0.12 
  -6 -10 -14    0.69    0.16 
  -6  -9 -14    0.20    0.12 
  -6  -8 -14   -0.07    0.09 
  -6  -7 -14    0.29    0.11 
  -6  -6 -14    1.83    0.19 
  -6  -5 -14    0.89    0.15 
  -6  -5 -14    0.94    0.11 
  -6  -4 -14    1.49    0.13 
  -6  -4 -14    1.44    0.17 
   6   3  14    0.42    0.09 
  -6  -3 -14    0.42    0.09 
  -6  -3 -14    0.24    0.10 
   6   2  14    2.02    0.15 
  -6  -2 -14    2.00    0.16 
  -6  -2 -14    2.39    0.18 
   6   1  14    1.11    0.13 
  -6  -1 -14    1.27    0.13 
  -6  -1 -14    1.17    0.14 
   6   0  14    5.96    0.31 
  -6   0 -14    6.40    0.33 
  -6   0 -14    6.60    0.31 
   6  -1  14    1.21    0.14 
  -6   1 -14    1.13    0.13 
  -6   1 -14    1.09    0.14 
   6  -2  14    2.10    0.17 
  -6   2 -14    2.03    0.18 
  -6   2 -14    1.72    0.16 
   6  -3  14    0.17    0.09 
  -6   3 -14    0.26    0.09 
   6  -4  14    1.63    0.17 
   6  -5  14    0.83    0.14 
   6  -6  14    1.64    0.18 
   6  -7  14    0.40    0.11 
   6  -8  14    0.07    0.09 
   6  -9  14   -0.02    0.08 
   6 -10  14    0.60    0.14 
   6 -11  14    0.07    0.12 
   6 -12  14    0.08    0.13 
   6 -13  14   -0.01    0.13 
   6 -14  14    0.50    0.18 
   6 -15  14   -0.16    0.14 
  -5 -16 -14   -0.12    0.15 
  -5 -15 -14    0.45    0.16 
  -5 -14 -14    0.12    0.13 
  -5 -13 -14    0.83    0.18 
  -5 -12 -14   -0.13    0.09 
  -5 -11 -14    0.13    0.11 
  -5 -10 -14    0.16    0.12 
  -5  -9 -14    1.45    0.19 
  -5  -8 -14    0.11    0.10 
  -5  -7 -14    0.67    0.09 
  -5  -7 -14    0.50    0.13 
  -5  -6 -14    5.35    0.27 
  -5  -6 -14    5.62    0.32 
  -5  -5 -14    0.23    0.08 
  -5  -5 -14    0.24    0.11 
   5   4  14    1.43    0.12 
  -5  -4 -14    1.64    0.17 
  -5  -4 -14    1.37    0.13 
  -5  -3 -14    2.54    0.19 
  -5  -3 -14    2.28    0.16 
   5   2  14    0.41    0.08 
  -5  -2 -14    0.29    0.10 
  -5  -2 -14    0.31    0.08 
   5   1  14    0.87    0.11 
  -5  -1 -14    0.81    0.11 
  -5  -1 -14    0.83    0.12 
   5   0  14    5.14    0.26 
  -5   0 -14    4.85    0.26 
  -5   0 -14    4.62    0.26 
   5  -1  14    0.78    0.11 
  -5   1 -14    0.80    0.11 
  -5   1 -14    0.69    0.11 
   5  -2  14    0.18    0.09 
  -5   2 -14    0.45    0.09 
  -5   2 -14    0.13    0.08 
   5  -3  14    2.44    0.19 
  -5   3 -14    2.62    0.19 
  -5   3 -14    2.80    0.18 
   5  -4  14    1.48    0.16 
  -5   4 -14    1.91    0.17 
   5  -5  14    0.20    0.10 
   5  -6  14    5.26    0.31 
   5  -7  14    0.54    0.13 
   5  -8  14    0.05    0.08 
   5  -9  14    1.16    0.17 
   5 -10  14    0.14    0.10 
   5 -11  14    0.10    0.11 
   5 -12  14    0.11    0.13 
   5 -13  14    0.59    0.18 
   5 -14  14    0.16    0.16 
   5 -15  14    0.12    0.17 
   5 -16  14    0.01    0.17 
  -4 -16 -14    0.13    0.15 
  -4 -15 -14    0.09    0.13 
  -4 -14 -14    0.77    0.18 
  -4 -13 -14   -0.02    0.11 
  -4 -12 -14   -0.13    0.09 
  -4 -11 -14   -0.06    0.10 
  -4 -10 -14    1.67    0.20 
  -4  -9 -14    0.25    0.08 
  -4  -9 -14    0.29    0.11 
  -4  -8 -14    0.07    0.09 
  -4  -8 -14    0.14    0.08 
  -4  -7 -14    0.73    0.10 
  -4  -7 -14    0.77    0.14 
  -4  -6 -14    0.59    0.10 
  -4  -6 -14    0.39    0.12 
  -4  -5 -14   -0.03    0.08 
  -4  -5 -14   -0.01    0.05 
   4   4  14    0.11    0.06 
  -4  -4 -14    0.14    0.07 
  -4  -4 -14    0.02    0.08 
   4   3  14    0.56    0.08 
  -4  -3 -14    0.52    0.09 
  -4  -3 -14    0.57    0.12 
   4   2  14    0.00    0.04 
  -4  -2 -14   -0.05    0.05 
  -4  -2 -14   -0.08    0.07 
   4   1  14    0.63    0.09 
  -4  -1 -14    0.47    0.09 
  -4  -1 -14    0.60    0.10 
   4   0  14    8.09    0.36 
  -4   0 -14    7.82    0.37 
  -4   0 -14    7.38    0.36 
   4  -1  14    0.70    0.10 
  -4   1 -14    0.74    0.11 
  -4   1 -14    0.51    0.09 
   4  -2  14   -0.01    0.06 
  -4   2 -14    0.10    0.07 
  -4   2 -14    0.04    0.06 
   4  -3  14    0.53    0.11 
  -4   3 -14    0.71    0.10 
  -4   3 -14    0.47    0.11 
   4  -4  14    0.24    0.09 
  -4   4 -14    0.20    0.09 
   4  -5  14    0.08    0.09 
  -4   5 -14    0.08    0.08 
   4  -6  14    0.53    0.12 
   4  -7  14    0.60    0.13 
   4  -8  14    0.16    0.09 
   4  -9  14    0.25    0.11 
   4 -10  14    1.97    0.21 
   4 -11  14   -0.23    0.08 
   4 -12  14   -0.19    0.11 
   4 -13  14   -0.06    0.12 
   4 -14  14    0.56    0.18 
   4 -15  14    0.14    0.17 
   4 -16  14    0.06    0.17 
  -3 -16 -14    0.05    0.11 
  -3 -15 -14    0.13    0.13 
  -3 -14 -14   -0.02    0.12 
  -3 -13 -14    0.38    0.14 
  -3 -12 -14    0.25    0.13 
  -3 -11 -14    0.79    0.12 
  -3 -11 -14    0.57    0.14 
  -3 -10 -14    0.23    0.09 
  -3 -10 -14    0.09    0.11 
  -3  -9 -14    1.31    0.14 
  -3  -9 -14    1.12    0.17 
  -3  -8 -14    4.25    0.28 
  -3  -8 -14    4.37    0.24 
  -3  -7 -14    3.77    0.25 
  -3  -7 -14    3.17    0.20 
  -3  -6 -14    0.02    0.06 
  -3  -6 -14    0.02    0.09 
  -3  -5 -14    0.82    0.13 
  -3  -5 -14    0.78    0.10 
   3   4  14    3.43    0.18 
  -3  -4 -14    3.50    0.20 
  -3  -4 -14    3.65    0.23 
   3   3  14   16.29    0.62 
  -3  -3 -14   14.83    0.62 
  -3  -3 -14   15.26    0.65 
   3   2  14    0.42    0.07 
  -3  -2 -14    0.27    0.08 
  -3  -2 -14    0.27    0.08 
   3   1  14   -0.02    0.05 
  -3  -1 -14    0.10    0.06 
  -3  -1 -14   -0.05    0.05 
   3   0  14    1.43    0.13 
  -3   0 -14    1.28    0.13 
  -3   0 -14    1.54    0.12 
   3  -1  14    0.05    0.06 
  -3   1 -14   -0.03    0.05 
  -3   1 -14    0.09    0.05 
   3  -2  14    0.44    0.09 
  -3   2 -14    0.43    0.08 
  -3   2 -14    0.46    0.09 
   3  -3  14   15.42    0.67 
  -3   3 -14   16.54    0.67 
   3  -4  14    3.27    0.22 
  -3   4 -14    3.63    0.23 
   3  -5  14    0.87    0.13 
  -3   5 -14    0.69    0.12 
   3  -6  14    0.03    0.08 
  -3   6 -14    0.12    0.09 
   3  -7  14    2.86    0.21 
   3  -8  14    4.21    0.28 
   3  -9  14    1.22    0.17 
   3 -10  14    0.16    0.11 
   3 -11  14    0.69    0.15 
   3 -12  14    0.22    0.12 
   3 -13  14    0.48    0.16 
   3 -14  14    0.01    0.13 
   3 -15  14    0.17    0.16 
   3 -16  14   -0.16    0.15 
  -2 -16 -14   -0.12    0.10 
  -2 -15 -14   -0.12    0.11 
  -2 -14 -14    0.11    0.12 
  -2 -13 -14    0.04    0.12 
  -2 -13 -14    0.07    0.09 
  -2 -12 -14    0.05    0.08 
  -2 -12 -14   -0.08    0.10 
  -2 -11 -14    0.12    0.08 
  -2 -11 -14   -0.01    0.10 
  -2 -10 -14    0.29    0.11 
  -2 -10 -14    0.31    0.09 
  -2  -9 -14    0.37    0.10 
  -2  -9 -14    0.43    0.12 
  -2  -8 -14    0.64    0.11 
  -2  -8 -14    0.62    0.14 
  -2  -7 -14    0.89    0.12 
  -2  -7 -14    0.97    0.15 
  -2  -6 -14    0.57    0.12 
  -2  -6 -14    0.58    0.10 
  -2  -5 -14    0.11    0.07 
  -2  -5 -14    0.03    0.08 
  -2  -4 -14    8.05    0.35 
  -2  -4 -14    7.43    0.37 
   2   3  14    1.68    0.12 
  -2  -3 -14    1.67    0.15 
  -2  -3 -14    1.80    0.14 
   2   2  14    0.88    0.09 
  -2  -2 -14    1.14    0.12 
  -2  -2 -14    0.68    0.10 
  -2  -1 -14    0.36    0.08 
  -2  -1 -14    0.51    0.08 
   2   0  14    2.56    0.16 
  -2   0 -14    2.44    0.17 
  -2   0 -14    2.38    0.15 
   2  -1  14    0.57    0.09 
  -2   1 -14    0.43    0.09 
  -2   1 -14    0.30    0.06 
   2  -2  14    1.03    0.12 
  -2   2 -14    0.67    0.09 
  -2   2 -14    0.80    0.12 
   2  -3  14    1.72    0.16 
  -2   3 -14    1.54    0.15 
  -2   3 -14    1.50    0.12 
   2  -4  14    7.83    0.40 
  -2   4 -14    8.87    0.41 
   2  -5  14   -0.05    0.07 
  -2   5 -14    0.07    0.08 
   2  -6  14    0.59    0.12 
  -2   6 -14    0.50    0.12 
   2  -7  14    0.79    0.14 
  -2   7 -14    0.76    0.14 
   2  -8  14    0.47    0.13 
   2  -9  14    0.39    0.12 
   2 -10  14    0.45    0.12 
   2 -11  14    0.12    0.10 
   2 -12  14   -0.03    0.12 
   2 -13  14    0.11    0.14 
   2 -14  14    0.31    0.15 
   2 -15  14   -0.21    0.13 
   2 -16  14    0.07    0.16 
  -1 -16 -14    0.12    0.13 
  -1 -15 -14    0.37    0.15 
  -1 -15 -14    0.28    0.12 
  -1 -14 -14    0.01    0.11 
  -1 -14 -14    0.00    0.09 
  -1 -13 -14    0.15    0.10 
  -1 -13 -14    0.01    0.10 
  -1 -12 -14    0.01    0.09 
  -1 -12 -14    0.07    0.11 
  -1 -11 -14    2.66    0.19 
  -1 -11 -14    2.19    0.23 
  -1 -10 -14    0.09    0.10 
  -1 -10 -14    0.06    0.08 
  -1  -9 -14    0.36    0.10 
  -1  -9 -14   -0.01    0.09 
  -1  -8 -14    3.65    0.22 
  -1  -8 -14    3.65    0.25 
  -1  -7 -14    4.52    0.24 
  -1  -7 -14    3.75    0.26 
  -1  -6 -14    1.49    0.16 
  -1  -6 -14    1.32    0.13 
  -1  -5 -14    3.34    0.20 
  -1  -5 -14    3.55    0.23 
  -1  -4 -14    1.09    0.12 
  -1  -4 -14    1.01    0.13 
   1   3  14    1.07    0.09 
  -1  -3 -14    1.07    0.12 
  -1  -3 -14    1.11    0.12 
   1   2  14    0.67    0.08 
  -1  -2 -14    0.47    0.09 
  -1  -2 -14    0.52    0.09 
   1   1  14    0.23    0.06 
  -1  -1 -14    0.22    0.06 
  -1  -1 -14    0.20    0.07 
   1   0  14    1.28    0.12 
  -1   0 -14    1.01    0.12 
   1  -1  14    0.24    0.07 
  -1   1 -14    0.27    0.06 
  -1   1 -14    0.26    0.08 
   1  -2  14    0.65    0.10 
  -1   2 -14    0.51    0.10 
  -1   2 -14    0.56    0.08 
   1  -3  14    1.16    0.13 
  -1   3 -14    1.13    0.13 
  -1   3 -14    1.24    0.10 
   1  -4  14    0.86    0.14 
  -1   4 -14    1.07    0.14 
   1  -5  14    3.83    0.24 
  -1   5 -14    3.49    0.24 
   1  -6  14    1.14    0.15 
  -1   6 -14    1.28    0.16 
   1  -7  14    3.83    0.26 
  -1   7 -14    4.44    0.28 
   1  -8  14    3.62    0.26 
   1  -9  14    0.03    0.08 
   1 -10  14    0.02    0.09 
   1 -11  14    2.24    0.23 
   1 -12  14    0.29    0.12 
   1 -13  14    0.12    0.14 
   1 -14  14   -0.01    0.13 
   1 -15  14    0.18    0.16 
   1 -16  14   -0.04    0.16 
   0 -16 -14    0.22    0.13 
   0 -16 -14   -0.02    0.13 
   0 -15 -14   -0.06    0.11 
   0 -15 -14   -0.05    0.11 
   0 -14 -14    0.47    0.13 
   0 -14 -14    0.80    0.17 
   0 -13 -14    0.09    0.11 
   0 -13 -14   -0.01    0.09 
   0 -12 -14   -0.15    0.07 
   0 -12 -14    0.09    0.11 
   0 -11 -14    0.08    0.11 
   0 -11 -14   -0.03    0.07 
   0 -10 -14   -0.08    0.07 
   0 -10 -14    0.04    0.09 
   0  -9 -14    0.01    0.09 
   0  -9 -14    0.16    0.09 
   0  -8 -14    1.27    0.16 
   0  -8 -14    1.33    0.14 
   0  -7 -14   -0.07    0.07 
   0  -7 -14    0.05    0.08 
   0  -6 -14    0.13    0.07 
   0  -6 -14    0.09    0.08 
   0  -5 -14    0.09    0.08 
   0  -5 -14    0.13    0.08 
   0  -4 -14   26.81    1.01 
   0  -4 -14   26.38    1.05 
   0   3  14   -0.02    0.04 
   0  -3 -14   -0.06    0.05 
   0  -3 -14    0.05    0.07 
   0   2  14    1.62    0.12 
   0  -2 -14    1.55    0.12 
   0  -2 -14    1.43    0.13 
   0   1  14   -0.03    0.04 
   0  -1 -14    0.00    0.03 
   0  -1 -14   -0.05    0.05 
   0   0  14    3.39    0.20 
   0   0 -14    4.00    0.22 
   0   0 -14    3.81    0.19 
   0  -1  14   -0.03    0.05 
   0   1 -14   -0.02    0.04 
   0   1 -14   -0.10    0.06 
   0  -2  14    1.92    0.15 
   0   2 -14    1.74    0.15 
   0   2 -14    1.61    0.11 
   0  -3  14   -0.01    0.06 
   0   3 -14    0.10    0.07 
   0   3 -14    0.00    0.04 
   0  -4  14   25.00    1.01 
   0   4 -14   25.77    1.00 
   0  -5  14    0.01    0.08 
   0   5 -14    0.18    0.09 
   0  -6  14    0.19    0.09 
   0   6 -14    0.04    0.07 
   0  -7  14   -0.07    0.08 
   0   7 -14   -0.05    0.07 
   0  -8  14    1.15    0.17 
   0   8 -14    1.28    0.17 
   0  -9  14   -0.10    0.07 
   0 -10  14    0.01    0.09 
   0 -11  14    0.01    0.10 
   0 -12  14    0.07    0.10 
   0 -13  14    0.19    0.14 
   0 -14  14    0.62    0.18 
   0 -15  14   -0.07    0.14 
   0 -16  14    0.24    0.17 
   1 -16 -14    0.10    0.12 
   1 -15 -14    0.45    0.14 
   1 -14 -14   -0.04    0.10 
   1 -13 -14    0.07    0.09 
   1 -12 -14   -0.03    0.08 
   1 -11 -14    2.20    0.19 
   1 -10 -14    0.01    0.08 
   1  -9 -14    0.22    0.11 
   1  -9 -14    0.24    0.09 
   1  -8 -14    3.85    0.26 
   1  -8 -14    4.08    0.24 
   1  -7 -14    4.21    0.26 
   1  -7 -14    4.11    0.24 
   1  -6 -14    1.36    0.14 
   1  -6 -14    1.17    0.15 
   1  -5 -14    3.96    0.23 
   1  -5 -14    3.27    0.22 
   1  -4 -14    0.98    0.12 
   1  -4 -14    0.85    0.12 
   1  -3 -14    0.92    0.12 
   1  -3 -14    1.21    0.12 
  -1   2  14    0.44    0.07 
   1  -2 -14    0.46    0.08 
   1  -2 -14    0.63    0.10 
  -1   1  14    0.37    0.07 
   1  -1 -14    0.29    0.08 
   1  -1 -14    0.39    0.07 
   1   0 -14    1.30    0.10 
   1   0 -14    1.09    0.12 
  -1  -1  14    0.36    0.08 
   1   1 -14    0.29    0.08 
   1   1 -14    0.40    0.06 
  -1  -2  14    0.52    0.10 
   1   2 -14    0.58    0.07 
   1   2 -14    0.41    0.09 
  -1  -3  14    1.34    0.14 
   1   3 -14    1.01    0.13 
  -1  -4  14    0.75    0.13 
   1   4 -14    0.91    0.13 
  -1  -5  14    3.59    0.24 
   1   5 -14    3.27    0.22 
  -1  -6  14    1.23    0.16 
   1   6 -14    1.33    0.16 
  -1  -7  14    3.92    0.27 
   1   7 -14    4.49    0.28 
  -1  -8  14    3.45    0.26 
   1   8 -14    3.65    0.26 
  -1  -9  14    0.17    0.10 
  -1 -10  14    0.06    0.10 
  -1 -11  14    2.28    0.24 
  -1 -12  14    0.12    0.11 
  -1 -13  14    0.13    0.13 
  -1 -14  14    0.03    0.13 
  -1 -15  14    0.18    0.16 
  -1 -16  14    0.07    0.16 
   2 -16 -14    0.13    0.13 
   2 -15 -14    0.03    0.11 
   2 -14 -14    0.19    0.12 
   2 -13 -14    0.09    0.10 
   2 -12 -14   -0.02    0.08 
   2 -11 -14    0.05    0.09 
   2 -10 -14    0.28    0.10 
   2  -9 -14    0.28    0.10 
   2  -8 -14    1.07    0.14 
   2  -7 -14    0.83    0.12 
   2  -6 -14    0.52    0.11 
   2  -6 -14    0.83    0.13 
   2  -5 -14    0.02    0.07 
   2  -5 -14    0.05    0.07 
   2  -4 -14    9.01    0.40 
   2  -4 -14    8.26    0.40 
   2  -3 -14    1.30    0.13 
   2  -3 -14    1.49    0.13 
  -2   2  14    0.91    0.09 
   2  -2 -14    0.47    0.07 
   2  -2 -14    0.99    0.11 
  -2   1  14    0.50    0.08 
   2  -1 -14    0.54    0.07 
   2  -1 -14    0.46    0.09 
   2   0 -14    2.12    0.16 
   2   0 -14    2.63    0.14 
  -2  -1  14    0.71    0.10 
   2   1 -14    0.59    0.10 
   2   1 -14    0.64    0.07 
  -2  -2  14    0.86    0.11 
   2   2 -14    0.70    0.11 
  -2  -3  14    1.16    0.14 
   2   3 -14    1.29    0.14 
  -2  -4  14    7.86    0.41 
   2   4 -14    8.60    0.40 
  -2  -5  14    0.09    0.08 
   2   5 -14    0.05    0.08 
  -2  -6  14    0.60    0.12 
   2   6 -14    0.69    0.13 
  -2  -7  14    0.71    0.14 
   2   7 -14    0.97    0.15 
  -2  -8  14    0.56    0.14 
   2   8 -14    0.54    0.13 
  -2  -9  14    0.19    0.10 
   2   9 -14    0.24    0.11 
  -2 -10  14    0.10    0.11 
  -2 -11  14   -0.01    0.10 
  -2 -12  14    0.01    0.10 
  -2 -13  14    0.04    0.12 
  -2 -14  14    0.44    0.18 
  -2 -15  14   -0.16    0.14 
  -2 -16  14    0.05    0.17 
   3 -16 -14   -0.02    0.12 
   3 -15 -14    0.17    0.12 
   3 -14 -14   -0.08    0.11 
   3 -13 -14    0.33    0.12 
   3 -12 -14    0.15    0.10 
   3 -11 -14    0.64    0.13 
   3 -10 -14    0.14    0.09 
   3  -9 -14    1.26    0.15 
   3  -8 -14    4.56    0.27 
   3  -7 -14    3.67    0.23 
   3  -6 -14    0.07    0.08 
   3  -5 -14    0.77    0.12 
   3  -4 -14    3.29    0.21 
   3  -4 -14    3.38    0.20 
   3  -3 -14    8.82    0.40 
  -3   2  14    0.45    0.07 
   3  -2 -14    0.43    0.08 
   3  -2 -14    0.39    0.10 
  -3   1  14   -0.08    0.05 
   3  -1 -14   -0.07    0.05 
   3  -1 -14   -0.06    0.04 
   3   0 -14    1.56    0.11 
   3   0 -14    1.46    0.14 
  -3  -1  14    0.03    0.05 
   3   1 -14    0.03    0.06 
  -3  -2  14    0.57    0.10 
   3   2 -14    0.29    0.09 
  -3  -3  14   14.41    0.62 
   3   3 -14   14.25    0.61 
  -3  -4  14    2.92    0.22 
   3   4 -14    3.27    0.22 
  -3  -5  14    0.75    0.13 
   3   5 -14    0.52    0.12 
  -3  -6  14   -0.05    0.07 
   3   6 -14   -0.01    0.08 
  -3  -7  14    3.29    0.24 
   3   7 -14    2.95    0.23 
  -3  -8  14    3.56    0.26 
   3   8 -14    3.99    0.27 
  -3  -9  14    1.29    0.18 
   3   9 -14    1.11    0.17 
  -3 -10  14    0.15    0.11 
  -3 -11  14    0.65    0.14 
  -3 -12  14   -0.06    0.10 
  -3 -13  14    0.23    0.13 
  -3 -14  14   -0.08    0.13 
  -3 -15  14    0.13    0.15 
  -3 -16  14    0.07    0.17 
   4 -16 -14   -0.03    0.12 
   4 -15 -14    0.04    0.12 
   4 -14 -14    0.57    0.15 
   4 -13 -14   -0.14    0.09 
   4 -12 -14   -0.03    0.09 
   4 -11 -14   -0.01    0.09 
   4 -10 -14    1.95    0.18 
   4  -9 -14    0.41    0.11 
   4  -8 -14    0.10    0.09 
   4  -7 -14    0.75    0.12 
   4  -6 -14    0.60    0.12 
   4  -5 -14    0.03    0.07 
   4  -4 -14    0.28    0.09 
   4  -3 -14    0.49    0.10 
  -4   2  14    0.07    0.06 
   4  -2 -14    0.08    0.06 
   4  -2 -14    0.06    0.07 
  -4   1  14    0.47    0.08 
   4  -1 -14    0.64    0.10 
   4  -1 -14    0.58    0.08 
   4   0 -14    8.30    0.39 
  -4  -1  14    0.58    0.10 
   4   1 -14    0.49    0.10 
  -4  -2  14    0.07    0.06 
   4   2 -14   -0.03    0.06 
  -4  -3  14    0.43    0.10 
   4   3 -14    0.61    0.11 
  -4  -4  14    0.01    0.09 
   4   4 -14    0.15    0.08 
  -4  -5  14   -0.02    0.08 
   4   5 -14    0.01    0.08 
  -4  -6  14    0.35    0.12 
   4   6 -14    0.65    0.13 
  -4  -7  14    0.79    0.15 
   4   7 -14    0.79    0.15 
  -4  -8  14   -0.05    0.09 
   4   8 -14    0.03    0.09 
  -4  -9  14    0.10    0.10 
   4   9 -14    0.47    0.13 
  -4 -10  14    1.64    0.21 
  -4 -11  14    0.10    0.10 
  -4 -12  14    0.03    0.10 
  -4 -13  14   -0.04    0.11 
  -4 -14  14    0.66    0.19 
  -4 -15  14    0.11    0.17 
  -4 -16  14    0.09    0.17 
   5 -16 -14   -0.04    0.12 
   5 -15 -14    0.08    0.13 
   5 -14 -14    0.05    0.12 
   5 -13 -14    0.41    0.13 
   5 -12 -14    0.02    0.10 
   5 -11 -14    0.09    0.09 
   5 -10 -14    0.10    0.09 
   5  -9 -14    1.55    0.17 
   5  -8 -14    0.07    0.09 
   5  -7 -14    0.46    0.11 
   5  -6 -14    5.37    0.30 
   5  -5 -14    0.20    0.09 
   5  -4 -14    1.31    0.14 
   5  -3 -14    2.48    0.19 
  -5   2  14    0.42    0.08 
   5  -2 -14    0.18    0.09 
   5  -1 -14    0.73    0.11 
   5  -1 -14    0.65    0.11 
   5   0 -14    4.62    0.26 
   5   0 -14    4.46    0.25 
   5   1 -14    0.66    0.11 
   5   1 -14    0.81    0.12 
   5   2 -14    0.27    0.09 
   5   2 -14    0.32    0.09 
   5   3 -14    2.28    0.20 
   5   3 -14    2.36    0.19 
   5   4 -14    1.53    0.17 
   5   4 -14    1.27    0.15 
   5   5 -14    0.33    0.11 
   5   5 -14    0.24    0.09 
   5   6 -14    6.03    0.35 
   5   6 -14    5.25    0.31 
   5   7 -14    0.38    0.12 
   5   7 -14    0.61    0.14 
   5   8 -14    0.01    0.09 
   5   8 -14   -0.09    0.08 
  -5  -9  14    1.31    0.19 
   5   9 -14    1.35    0.18 
  -5 -10  14   -0.09    0.08 
   5  10 -14    0.05    0.11 
  -5 -11  14    0.08    0.10 
  -5 -12  14    0.06    0.11 
  -5 -13  14    0.27    0.13 
  -5 -14  14    0.02    0.14 
  -5 -15  14    0.33    0.18 
  -5 -16  14    0.09    0.18 
   6 -15 -14    0.07    0.14 
   6 -14 -14    0.41    0.14 
   6 -13 -14    0.01    0.10 
   6 -12 -14    0.13    0.11 
   6 -11 -14    0.04    0.09 
   6 -10 -14    0.36    0.11 
   6  -9 -14    0.07    0.09 
   6  -8 -14    0.11    0.09 
   6  -7 -14    0.45    0.11 
   6  -6 -14    1.81    0.17 
   6  -5 -14    0.82    0.13 
   6  -4 -14    1.28    0.15 
   6  -3 -14    0.38    0.11 
   6  -2 -14    2.22    0.16 
   6  -2 -14    1.84    0.17 
   6  -1 -14    1.06    0.12 
   6  -1 -14    0.97    0.13 
   6   0 -14    5.69    0.31 
   6   0 -14    6.48    0.32 
   6   1 -14    1.23    0.14 
   6   1 -14    1.00    0.13 
   6   2 -14    2.31    0.19 
   6   2 -14    2.03    0.18 
   6   3 -14    0.45    0.11 
   6   3 -14    0.33    0.10 
   6   4 -14    1.38    0.16 
   6   4 -14    1.70    0.18 
   6   5 -14    0.83    0.15 
   6   5 -14    0.78    0.13 
   6   6 -14    1.73    0.18 
   6   6 -14    1.75    0.20 
   6   7 -14    0.24    0.11 
   6   7 -14    0.37    0.12 
   6   8 -14   -0.04    0.09 
   6   8 -14   -0.03    0.08 
   6   9 -14    0.04    0.11 
   6   9 -14    0.16    0.11 
   6  10 -14    0.71    0.16 
   6  10 -14    0.62    0.16 
   6  11 -14    0.06    0.12 
  -6 -12  14    0.02    0.08 
  -6 -13  14   -0.04    0.10 
  -6 -14  14    0.50    0.18 
  -6 -15  14   -0.07    0.15 
   7 -15 -14    0.35    0.16 
   7 -14 -14    0.19    0.13 
   7 -13 -14   -0.06    0.10 
   7 -12 -14    0.04    0.11 
   7 -11 -14    0.30    0.12 
   7 -10 -14    0.24    0.11 
   7  -9 -14   -0.04    0.09 
   7  -8 -14   -0.09    0.08 
   7  -7 -14    0.44    0.11 
   7  -6 -14    2.19    0.19 
   7  -5 -14    0.73    0.13 
   7  -4 -14    0.00    0.08 
   7  -3 -14   -0.05    0.07 
   7  -2 -14   -0.06    0.07 
   7  -1 -14    0.58    0.10 
   7  -1 -14    0.48    0.11 
   7   0 -14    2.01    0.17 
   7   0 -14    1.88    0.17 
   7   1 -14    0.95    0.13 
   7   1 -14    0.73    0.12 
   7   2 -14   -0.02    0.07 
   7   2 -14    0.01    0.07 
   7   3 -14   -0.02    0.08 
   7   3 -14    0.03    0.08 
   7   4 -14    0.04    0.09 
   7   4 -14   -0.04    0.07 
   7   5 -14    0.63    0.14 
   7   5 -14    0.86    0.14 
   7   6 -14    2.66    0.24 
   7   6 -14    2.53    0.22 
   7   7 -14    0.36    0.12 
   7   7 -14    0.25    0.11 
   7   8 -14   -0.04    0.10 
   7   8 -14    0.01    0.08 
   7   9 -14    0.07    0.10 
   7   9 -14   -0.11    0.07 
   7  10 -14    0.56    0.15 
   7  10 -14    0.42    0.14 
   7  11 -14    0.30    0.15 
   7  12 -14    0.06    0.14 
  -7 -13  14   -0.15    0.09 
  -7 -14  14    0.24    0.15 
  -7 -15  14    0.07    0.16 
   8 -14 -14   -0.01    0.13 
   8 -13 -14    0.09    0.13 
   8 -12 -14    0.06    0.11 
   8 -11 -14    0.13    0.11 
   8 -10 -14    0.65    0.14 
   8  -9 -14    0.82    0.15 
   8  -8 -14    0.12    0.10 
   8  -7 -14    0.05    0.09 
   8  -6 -14    0.60    0.13 
   8  -5 -14    0.04    0.08 
   8  -4 -14    0.03    0.09 
   8  -3 -14    0.45    0.11 
   8  -2 -14    0.31    0.11 
   8  -1 -14    1.04    0.13 
   8  -1 -14    0.84    0.13 
   8   0 -14    0.32    0.10 
   8   0 -14    0.22    0.08 
   8   1 -14    1.08    0.14 
   8   1 -14    1.07    0.14 
   8   2 -14    0.43    0.11 
   8   2 -14    0.40    0.11 
   8   3 -14    0.66    0.12 
   8   3 -14    0.35    0.12 
   8   4 -14    0.02    0.09 
   8   4 -14    0.06    0.08 
   8   5 -14    0.15    0.10 
   8   5 -14    0.08    0.09 
   8   6 -14    0.65    0.13 
   8   6 -14    0.47    0.14 
   8   7 -14    0.08    0.10 
   8   7 -14    0.23    0.11 
   8   8 -14    0.43    0.13 
   8   8 -14    0.31    0.13 
   8   9 -14    0.85    0.17 
   8   9 -14    0.62    0.15 
   8  10 -14    0.68    0.16 
   8  10 -14    0.88    0.19 
   8  11 -14    0.03    0.12 
   8  12 -14    0.10    0.14 
   8  13 -14    0.30    0.19 
   8  14 -14    0.09    0.16 
   9 -14 -14    0.45    0.16 
   9 -13 -14    0.02    0.13 
   9 -12 -14    0.08    0.12 
   9 -11 -14    0.05    0.11 
   9 -10 -14    0.45    0.13 
   9  -9 -14    1.17    0.17 
   9  -8 -14   -0.01    0.09 
   9  -7 -14    0.69    0.14 
   9  -6 -14    0.57    0.12 
   9  -5 -14    0.86    0.14 
   9  -4 -14   -0.01    0.08 
   9  -3 -14   -0.07    0.08 
   9  -2 -14    0.18    0.10 
   9  -1 -14    0.74    0.13 
   9  -1 -14    0.79    0.12 
   9   0 -14    1.40    0.16 
   9   0 -14    1.39    0.16 
   9   1 -14    0.75    0.13 
   9   1 -14    0.73    0.12 
   9   2 -14    0.21    0.10 
   9   2 -14    0.17    0.09 
   9   3 -14    0.14    0.09 
   9   3 -14   -0.05    0.08 
   9   4 -14    0.07    0.09 
   9   4 -14    0.05    0.08 
   9   5 -14    0.88    0.14 
   9   5 -14    1.10    0.17 
   9   6 -14    0.65    0.14 
   9   6 -14    0.67    0.15 
   9   7 -14    0.88    0.15 
   9   7 -14    0.88    0.17 
   9   8 -14   -0.10    0.10 
   9   8 -14    0.08    0.11 
   9   9 -14    1.48    0.22 
   9   9 -14    1.27    0.19 
   9  10 -14    0.72    0.18 
   9  10 -14    0.67    0.16 
   9  11 -14   -0.06    0.12 
   9  12 -14    0.04    0.14 
   9  13 -14   -0.02    0.16 
   9  14 -14    0.70    0.22 
  10 -13 -14   -0.07    0.12 
  10 -12 -14    0.03    0.10 
  10 -11 -14    0.37    0.13 
  10 -10 -14    0.06    0.10 
  10  -9 -14    0.34    0.12 
  10  -8 -14    0.15    0.10 
  10  -7 -14    0.09    0.10 
  10  -6 -14    0.95    0.15 
  10  -5 -14    0.09    0.09 
  10  -4 -14    0.70    0.13 
  10  -3 -14    0.05    0.09 
  10  -2 -14    0.40    0.11 
  10  -1 -14    0.78    0.13 
  10  -1 -14    0.89    0.14 
  10   0 -14    1.06    0.14 
  10   0 -14    0.94    0.14 
  10   1 -14    0.77    0.14 
  10   1 -14    0.78    0.13 
  10   2 -14    0.52    0.12 
  10   2 -14    0.43    0.11 
  10   3 -14    0.25    0.11 
  10   3 -14    0.13    0.09 
  10   4 -14    0.54    0.13 
  10   4 -14    0.52    0.12 
  10   5 -14   -0.05    0.08 
  10   5 -14    0.07    0.09 
  10   6 -14    1.17    0.17 
  10   6 -14    0.94    0.17 
  10   7 -14   -0.06    0.10 
  10   7 -14    0.14    0.11 
  10   8 -14    0.22    0.12 
  10   8 -14    0.26    0.14 
  10   9 -14    0.37    0.15 
  10   9 -14    0.49    0.14 
  10  10 -14    0.16    0.15 
  10  10 -14    0.14    0.14 
  10  11 -14    0.01    0.14 
  10  12 -14    0.17    0.16 
  10  13 -14    0.14    0.17 
  11 -13 -14    0.02    0.10 
  11 -12 -14    0.24    0.12 
  11 -11 -14   -0.11    0.10 
  11 -10 -14    0.39    0.13 
  11  -9 -14    0.24    0.12 
  11  -8 -14    0.20    0.11 
  11  -7 -14    0.19    0.11 
  11  -6 -14    0.19    0.11 
  11  -5 -14    0.00    0.09 
  11  -4 -14    0.57    0.13 
  11  -3 -14    0.04    0.09 
  11  -2 -14    0.17    0.10 
  11  -1 -14    1.00    0.15 
  11   0 -14    1.40    0.17 
  11   0 -14    1.40    0.16 
  11   1 -14    0.74    0.13 
  11   1 -14    0.80    0.14 
  11   2 -14    0.19    0.10 
  11   2 -14    0.23    0.10 
  11   3 -14    0.07    0.09 
  11   3 -14   -0.03    0.09 
  11   4 -14    0.61    0.13 
  11   4 -14    0.66    0.14 
  11   5 -14    0.11    0.10 
  11   5 -14    0.01    0.09 
  11   6 -14    0.27    0.12 
  11   6 -14    0.17    0.11 
  11   7 -14    0.04    0.11 
  11   7 -14    0.06    0.12 
  11   8 -14    0.22    0.12 
  11   8 -14   -0.07    0.11 
  11   9 -14    0.35    0.15 
  11   9 -14    0.25    0.13 
  11  10 -14    0.23    0.14 
  11  10 -14    0.38    0.15 
  11  11 -14   -0.03    0.13 
  11  12 -14    0.16    0.18 
  11  13 -14    0.06    0.17 
  12 -12 -14    0.05    0.10 
  12 -11 -14    0.15    0.11 
  12 -10 -14    0.09    0.12 
  12  -9 -14   -0.01    0.10 
  12  -8 -14    0.09    0.12 
  12  -7 -14    0.42    0.13 
  12  -6 -14    0.06    0.10 
  12  -5 -14    0.02    0.10 
  12  -4 -14   -0.01    0.10 
  12  -3 -14    0.13    0.10 
  12  -2 -14    0.27    0.10 
  12  -1 -14    0.44    0.12 
  12   0 -14    0.08    0.09 
  12   0 -14    0.12    0.10 
  12   1 -14    0.31    0.11 
  12   1 -14    0.30    0.11 
  12   2 -14    0.23    0.10 
  12   2 -14    0.31    0.11 
  12   3 -14    0.19    0.10 
  12   3 -14    0.15    0.10 
  12   4 -14   -0.09    0.10 
  12   4 -14    0.27    0.11 
  12   5 -14    0.04    0.10 
  12   5 -14    0.39    0.13 
  12   6 -14    0.16    0.12 
  12   6 -14    0.23    0.12 
  12   7 -14    0.45    0.15 
  12   7 -14    0.30    0.13 
  12   8 -14   -0.01    0.12 
  12   8 -14    0.04    0.13 
  12   9 -14    0.05    0.14 
  12   9 -14    0.08    0.15 
  12  10 -14    0.15    0.16 
  12  11 -14    0.12    0.16 
  12  12 -14   -0.10    0.16 
  13 -11 -14    0.14    0.12 
  13 -10 -14    0.02    0.11 
  13  -9 -14    0.13    0.12 
  13  -8 -14    0.36    0.13 
  13  -7 -14    0.03    0.11 
  13  -6 -14    0.03    0.11 
  13  -5 -14    0.23    0.12 
  13  -4 -14    0.89    0.16 
  13  -3 -14    0.02    0.10 
  13  -2 -14   -0.02    0.09 
  13  -1 -14    0.02    0.10 
  13   0 -14    0.25    0.11 
  13   0 -14    0.33    0.12 
  13   1 -14    0.07    0.10 
  13   1 -14    0.19    0.11 
  13   2 -14    0.07    0.10 
  13   2 -14    0.08    0.10 
  13   3 -14    0.03    0.10 
  13   3 -14    0.13    0.10 
  13   4 -14    0.47    0.14 
  13   4 -14    0.70    0.14 
  13   5 -14    0.41    0.13 
  13   5 -14    0.31    0.14 
  13   6 -14    0.31    0.13 
  13   6 -14    0.11    0.12 
  13   7 -14    0.15    0.14 
  13   8 -14    0.35    0.16 
  13   9 -14    0.03    0.15 
  13  10 -14   -0.06    0.14 
  13  11 -14    0.22    0.16 
  14 -10 -14    0.45    0.14 
  14  -9 -14    0.04    0.12 
  14  -8 -14    0.08    0.12 
  14  -7 -14    0.68    0.15 
  14  -6 -14   -0.01    0.11 
  14  -5 -14   -0.02    0.11 
  14  -4 -14   -0.12    0.11 
  14  -3 -14    0.30    0.13 
  14  -2 -14   -0.06    0.10 
  14  -1 -14    0.13    0.11 
  14   0 -14    0.17    0.11 
  14   1 -14    0.05    0.10 
  14   1 -14   -0.04    0.09 
  14   2 -14    0.01    0.11 
  14   2 -14   -0.08    0.10 
  14   3 -14    0.35    0.12 
  14   3 -14    0.29    0.13 
  14   4 -14    0.08    0.12 
  14   4 -14    0.12    0.11 
  14   5 -14    0.17    0.12 
  14   6 -14    0.00    0.13 
  14   7 -14    0.75    0.20 
  14   8 -14    0.11    0.15 
  14   9 -14    0.02    0.16 
  14  10 -14    0.02    0.17 
  15  -8 -14   -0.02    0.11 
  15  -7 -14   -0.01    0.12 
  15  -6 -14   -0.10    0.11 
  15  -5 -14    0.05    0.12 
  15  -4 -14    0.44    0.14 
  15  -3 -14    0.27    0.12 
  15  -2 -14    0.02    0.11 
  15  -1 -14    0.27    0.13 
  15   0 -14    0.00    0.11 
  15   1 -14    0.27    0.14 
  15   1 -14    0.28    0.11 
  15   2 -14    0.00    0.12 
  15   2 -14   -0.04    0.11 
  15   3 -14    0.34    0.16 
  15   4 -14    0.39    0.15 
  15   5 -14    0.10    0.13 
  15   6 -14    0.01    0.14 
  15   7 -14    0.09    0.15 
  15   8 -14    0.10    0.16 
  16  -6 -14    0.03    0.12 
  16  -5 -14   -0.05    0.12 
  16  -4 -14   -0.01    0.11 
  16  -3 -14    0.16    0.12 
  16  -2 -14    0.11    0.12 
  16  -1 -14    0.02    0.11 
  16   0 -14    0.29    0.13 
  16   1 -14    0.05    0.14 
  16   2 -14    0.00    0.14 
  16   3 -14    0.08    0.16 
  16   4 -14    0.03    0.14 
  16   5 -14   -0.06    0.15 
  16   6 -14    0.05    0.15 
  17  -4 -14   -0.10    0.11 
  17  -3 -14    0.09    0.13 
  17   2 -14   -0.14    0.14 
  17   3 -14    0.07    0.16 
  17   4 -14    0.02    0.17 
  16   5  15    0.06    0.12 
 -16  -5 -15    0.28    0.15 
  16   4  15    0.08    0.12 
 -16  -4 -15    0.01    0.12 
  16   3  15    0.44    0.13 
 -16  -3 -15    0.25    0.14 
  16   2  15    0.06    0.10 
 -16  -2 -15    0.24    0.14 
  16   1  15    0.09    0.11 
  16   0  15    0.26    0.11 
  16  -1  15   -0.02    0.09 
  16  -2  15    0.02    0.10 
  16  -3  15    0.19    0.11 
  16  -4  15    0.12    0.10 
  16  -5  15    0.29    0.12 
 -15  -7 -15    0.17    0.17 
 -15  -6 -15    0.26    0.14 
  15   5  15   -0.01    0.11 
 -15  -5 -15   -0.03    0.12 
  15   4  15    0.21    0.12 
 -15  -4 -15    0.29    0.14 
  15   3  15    0.23    0.12 
 -15  -3 -15    0.18    0.13 
  15   2  15    0.41    0.13 
 -15  -2 -15    0.16    0.13 
  15   1  15    0.11    0.10 
 -15  -1 -15    0.22    0.13 
  15   0  15    0.01    0.09 
  15  -1  15    0.23    0.11 
  15  -2  15    0.23    0.12 
  15  -3  15    0.12    0.10 
  15  -4  15    0.13    0.11 
  15  -5  15    0.22    0.11 
  15  -6  15    0.55    0.13 
  15  -7  15    0.19    0.11 
 -14  -8 -15   -0.04    0.15 
 -14  -7 -15    0.09    0.13 
 -14  -6 -15   -0.05    0.11 
  14   5  15    0.18    0.12 
 -14  -5 -15   -0.04    0.13 
  14   4  15    0.44    0.13 
 -14  -4 -15    0.09    0.12 
  14   3  15    0.27    0.11 
 -14  -3 -15    0.24    0.14 
  14   2  15    0.11    0.11 
 -14  -2 -15    0.29    0.14 
  14   1  15    0.00    0.09 
 -14  -1 -15    0.26    0.14 
  14   0  15   -0.11    0.09 
  14  -1  15    0.16    0.11 
  14  -2  15    0.13    0.10 
  14  -3  15    0.11    0.10 
  14  -4  15    0.11    0.10 
  14  -5  15    0.07    0.11 
  14  -6  15    0.10    0.11 
  14  -7  15    0.21    0.10 
  14  -8  15    0.09    0.09 
  14  -9  15    0.28    0.12 
 -13 -10 -15    0.36    0.18 
 -13  -9 -15   -0.04    0.14 
 -13  -8 -15    0.15    0.14 
 -13  -7 -15    0.03    0.12 
 -13  -6 -15    0.02    0.12 
  13   5  15    0.30    0.12 
 -13  -5 -15    0.14    0.13 
  13   4  15    0.05    0.09 
 -13  -4 -15    0.05    0.11 
  13   3  15   -0.01    0.08 
 -13  -3 -15    0.03    0.12 
  13   2  15    0.24    0.11 
 -13  -2 -15    0.45    0.14 
  13   1  15    0.08    0.10 
 -13  -1 -15    0.11    0.12 
  13   0  15   -0.07    0.09 
 -13   0 -15   -0.04    0.10 
  13  -1  15    0.05    0.08 
  13  -2  15    0.28    0.11 
  13  -3  15    0.05    0.10 
  13  -4  15    0.34    0.12 
  13  -5  15    0.12    0.11 
  13  -6  15    0.05    0.10 
  13  -7  15   -0.03    0.10 
  13  -8  15    0.27    0.12 
  13  -9  15    0.09    0.10 
  13 -10  15   -0.10    0.13 
 -12 -11 -15   -0.05    0.15 
 -12 -10 -15    0.30    0.18 
 -12  -9 -15    0.03    0.13 
 -12  -8 -15    0.14    0.13 
 -12  -7 -15   -0.01    0.12 
 -12  -6 -15    0.02    0.11 
  12   5  15    0.35    0.11 
 -12  -5 -15    0.22    0.13 
  12   4  15    0.05    0.09 
 -12  -4 -15    0.08    0.12 
  12   3  15    0.03    0.09 
 -12  -3 -15    0.10    0.12 
  12   2  15    0.14    0.09 
 -12  -2 -15   -0.05    0.10 
  12   1  15    0.09    0.09 
 -12  -1 -15    0.10    0.12 
  12   0  15    0.07    0.08 
 -12   0 -15    0.05    0.11 
  12  -1  15    0.08    0.09 
  12  -2  15   -0.09    0.08 
  12  -3  15    0.01    0.09 
  12  -4  15    0.07    0.10 
  12  -5  15    0.33    0.12 
  12  -6  15    0.18    0.11 
  12  -7  15    0.03    0.09 
  12  -8  15    0.04    0.10 
  12  -9  15    0.20    0.11 
  12 -10  15    0.42    0.13 
  12 -11  15    0.25    0.16 
 -11 -12 -15    0.50    0.20 
 -11 -11 -15    0.08    0.14 
 -11 -10 -15    0.08    0.14 
 -11  -9 -15    0.40    0.16 
 -11  -8 -15    0.60    0.17 
 -11  -7 -15    0.10    0.12 
 -11  -6 -15    0.05    0.11 
  11   5  15    0.20    0.10 
 -11  -5 -15    0.18    0.13 
  11   4  15    0.17    0.09 
 -11  -4 -15    0.14    0.11 
  11   3  15   -0.02    0.08 
 -11  -3 -15   -0.02    0.10 
  11   2  15    0.67    0.13 
 -11  -2 -15    0.73    0.15 
  11   1  15    0.15    0.10 
 -11  -1 -15    0.09    0.11 
  11   0  15   -0.02    0.08 
 -11   0 -15    0.02    0.11 
  11  -1  15    0.06    0.09 
 -11   1 -15    0.14    0.12 
  11  -2  15    0.80    0.14 
  11  -3  15   -0.08    0.08 
  11  -4  15   -0.05    0.08 
  11  -5  15    0.26    0.11 
  11  -6  15    0.20    0.11 
  11  -7  15    0.11    0.10 
  11  -8  15    0.87    0.16 
  11  -9  15    0.31    0.12 
  11 -10  15    0.25    0.12 
  11 -11  15    0.02    0.15 
  11 -12  15    0.69    0.20 
 -10 -12 -15   -0.07    0.15 
 -10 -11 -15    0.04    0.13 
 -10 -10 -15    0.21    0.15 
 -10  -9 -15   -0.01    0.12 
 -10  -8 -15    0.38    0.15 
 -10  -7 -15    0.12    0.13 
 -10  -6 -15    0.20    0.13 
 -10  -5 -15    0.25    0.12 
  10   4  15   -0.01    0.08 
 -10  -4 -15   -0.04    0.09 
  10   3  15    0.76    0.12 
 -10  -3 -15    0.43    0.13 
  10   2  15    0.00    0.08 
 -10  -2 -15    0.13    0.11 
  10   1  15    0.14    0.08 
 -10  -1 -15    0.08    0.11 
  10   0  15    0.02    0.08 
 -10   0 -15   -0.01    0.10 
  10  -1  15    0.21    0.10 
 -10   1 -15    0.27    0.12 
  10  -2  15    0.04    0.09 
  10  -3  15    0.59    0.13 
  10  -4  15   -0.05    0.08 
  10  -5  15    0.27    0.11 
  10  -6  15    0.05    0.09 
  10  -7  15    0.16    0.11 
  10  -8  15    0.35    0.13 
  10  -9  15    0.11    0.11 
  10 -10  15    0.13    0.11 
  10 -11  15   -0.09    0.14 
  10 -12  15    0.08    0.15 
  10 -13  15    0.13    0.17 
  -9 -13 -15    0.28    0.16 
  -9 -12 -15   -0.10    0.12 
  -9 -11 -15    0.01    0.12 
  -9 -10 -15    0.34    0.14 
  -9  -9 -15    0.34    0.14 
  -9  -8 -15    0.29    0.14 
  -9  -7 -15   -0.04    0.11 
  -9  -6 -15    0.10    0.11 
  -9  -5 -15    1.33    0.18 
   9   4  15    0.17    0.09 
  -9  -4 -15   -0.05    0.09 
   9   3  15    0.19    0.09 
  -9  -3 -15    0.33    0.12 
   9   2  15    1.68    0.16 
  -9  -2 -15    1.59    0.18 
   9   1  15    0.71    0.12 
  -9  -1 -15    0.62    0.14 
   9   0  15    0.11    0.08 
  -9   0 -15    0.00    0.10 
   9  -1  15    0.71    0.13 
  -9   1 -15    0.81    0.14 
   9  -2  15    1.50    0.17 
  -9   2 -15    1.95    0.20 
   9  -3  15    0.26    0.10 
   9  -4  15    0.11    0.09 
   9  -5  15    1.28    0.17 
   9  -6  15    0.10    0.11 
   9  -7  15   -0.09    0.09 
   9  -8  15    0.09    0.10 
   9  -9  15    0.21    0.12 
   9 -10  15    0.15    0.10 
   9 -11  15   -0.05    0.13 
   9 -12  15    0.11    0.16 
   9 -13  15    0.15    0.17 
  -8 -14 -15   -0.01    0.16 
  -8 -13 -15    0.12    0.13 
  -8 -12 -15    0.15    0.13 
  -8 -11 -15    0.07    0.12 
  -8 -10 -15    0.33    0.14 
  -8  -9 -15    0.27    0.13 
  -8  -8 -15    0.84    0.17 
  -8  -7 -15    0.06    0.11 
  -8  -6 -15    0.19    0.11 
  -8  -5 -15    0.85    0.15 
   8   4  15    0.01    0.07 
  -8  -4 -15    0.05    0.10 
   8   3  15    0.05    0.08 
  -8  -3 -15   -0.07    0.10 
   8   2  15    0.23    0.09 
  -8  -2 -15    0.23    0.11 
   8   1  15    0.03    0.07 
  -8  -1 -15   -0.11    0.09 
   8   0  15   -0.05    0.07 
  -8   0 -15   -0.12    0.08 
  -8   0 -15   -0.01    0.06 
   8  -1  15    0.04    0.08 
  -8   1 -15   -0.10    0.08 
  -8   1 -15   -0.06    0.06 
   8  -2  15    0.35    0.11 
  -8   2 -15    0.33    0.12 
   8  -3  15   -0.04    0.08 
   8  -4  15    0.08    0.09 
   8  -5  15    1.11    0.16 
   8  -6  15    0.26    0.11 
   8  -7  15    0.00    0.09 
   8  -8  15    0.71    0.15 
   8  -9  15    0.47    0.14 
   8 -10  15    0.20    0.11 
   8 -11  15    0.17    0.11 
   8 -12  15    0.04    0.15 
   8 -13  15    0.13    0.16 
   8 -14  15   -0.05    0.16 
  -7 -14 -15    0.22    0.14 
  -7 -13 -15    0.21    0.14 
  -7 -12 -15    0.09    0.13 
  -7 -11 -15    0.11    0.13 
  -7 -10 -15    0.21    0.13 
  -7  -9 -15    0.25    0.12 
  -7  -8 -15    0.26    0.12 
  -7  -7 -15   -0.05    0.09 
  -7  -6 -15    0.33    0.13 
  -7  -5 -15    0.82    0.15 
   7   4  15    0.10    0.06 
  -7  -4 -15    0.22    0.11 
   7   3  15    1.44    0.14 
  -7  -3 -15    1.89    0.19 
   7   2  15    2.73    0.19 
  -7  -2 -15    2.71    0.21 
  -7  -2 -15    3.01    0.19 
   7   1  15    0.82    0.12 
  -7  -1 -15    1.10    0.15 
  -7  -1 -15    0.91    0.12 
   7   0  15    0.03    0.08 
  -7   0 -15   -0.02    0.06 
  -7   0 -15    0.01    0.09 
   7  -1  15    0.96    0.14 
  -7   1 -15    0.83    0.14 
  -7   1 -15    1.11    0.13 
   7  -2  15    2.82    0.21 
  -7   2 -15    2.86    0.22 
  -7   2 -15    3.09    0.21 
   7  -3  15    1.85    0.18 
   7  -4  15    0.07    0.09 
   7  -5  15    0.55    0.13 
   7  -6  15    0.13    0.09 
   7  -7  15    0.01    0.09 
   7  -8  15   -0.01    0.08 
   7  -9  15   -0.01    0.09 
   7 -10  15    0.12    0.10 
   7 -11  15   -0.07    0.08 
   7 -12  15   -0.01    0.14 
   7 -13  15    0.30    0.17 
   7 -14  15    0.06    0.16 
  -6 -15 -15    0.04    0.12 
  -6 -14 -15   -0.01    0.12 
  -6 -13 -15    0.28    0.15 
  -6 -12 -15   -0.03    0.10 
  -6 -11 -15    0.23    0.13 
  -6 -10 -15    0.09    0.11 
  -6  -9 -15    0.30    0.12 
  -6  -8 -15   -0.01    0.10 
  -6  -7 -15    0.10    0.10 
  -6  -6 -15    0.07    0.10 
  -6  -5 -15    0.13    0.11 
  -6  -5 -15   -0.13    0.05 
   6   4  15    1.53    0.14 
  -6  -4 -15    1.26    0.16 
  -6  -4 -15    1.82    0.15 
   6   3  15    0.16    0.06 
  -6  -3 -15    0.03    0.06 
  -6  -3 -15    0.04    0.09 
   6   2  15    1.31    0.13 
  -6  -2 -15    1.48    0.14 
  -6  -2 -15    1.22    0.16 
   6   1  15    0.50    0.10 
  -6  -1 -15    0.35    0.11 
  -6  -1 -15    0.68    0.11 
   6   0  15    0.00    0.07 
  -6   0 -15    0.07    0.09 
  -6   0 -15   -0.02    0.07 
   6  -1  15    0.71    0.12 
  -6   1 -15    0.60    0.11 
  -6   1 -15    0.54    0.12 
   6  -2  15    1.36    0.15 
  -6   2 -15    1.45    0.15 
  -6   2 -15    1.28    0.15 
   6  -3  15    0.12    0.09 
  -6   3 -15    0.06    0.08 
   6  -4  15    1.38    0.17 
   6  -5  15    0.12    0.09 
   6  -6  15    0.27    0.11 
   6  -7  15    0.12    0.10 
   6  -8  15   -0.01    0.08 
   6  -9  15    0.20    0.11 
   6 -10  15   -0.06    0.09 
   6 -11  15   -0.02    0.10 
   6 -12  15   -0.10    0.11 
   6 -13  15   -0.13    0.12 
   6 -14  15   -0.12    0.13 
   6 -15  15   -0.05    0.15 
  -5 -15 -15    0.02    0.11 
  -5 -14 -15    0.01    0.12 
  -5 -13 -15    0.25    0.13 
  -5 -12 -15    0.49    0.15 
  -5 -11 -15    0.23    0.14 
  -5 -10 -15    0.04    0.11 
  -5  -9 -15    1.58    0.20 
  -5  -8 -15    2.47    0.23 
  -5  -7 -15    0.41    0.12 
  -5  -7 -15    0.25    0.09 
  -5  -6 -15    1.28    0.17 
  -5  -6 -15    0.97    0.11 
  -5  -5 -15    1.39    0.16 
  -5  -5 -15    1.16    0.13 
  -5  -4 -15    3.02    0.19 
  -5  -4 -15    3.01    0.23 
   5   3  15    2.08    0.15 
  -5  -3 -15    3.31    0.19 
  -5  -3 -15    3.08    0.21 
   5   2  15    0.24    0.07 
  -5  -2 -15    0.38    0.09 
  -5  -2 -15    0.40    0.11 
   5   1  15    4.18    0.24 
  -5  -1 -15    4.28    0.25 
  -5  -1 -15    4.35    0.26 
   5   0  15    0.05    0.07 
  -5   0 -15   -0.01    0.08 
  -5   0 -15   -0.11    0.06 
   5  -1  15    4.55    0.25 
  -5   1 -15    3.97    0.25 
  -5   1 -15    4.12    0.24 
   5  -2  15    0.43    0.11 
  -5   2 -15    0.27    0.09 
  -5   2 -15    0.24    0.09 
   5  -3  15    3.32    0.22 
  -5   3 -15    3.23    0.22 
   5  -4  15    2.81    0.21 
  -5   4 -15    2.92    0.21 
   5  -5  15    1.18    0.15 
   5  -6  15    0.85    0.14 
   5  -7  15    0.14    0.09 
   5  -8  15    2.29    0.22 
   5  -9  15    1.24    0.18 
   5 -10  15    0.01    0.09 
   5 -11  15    0.27    0.12 
   5 -12  15    0.29    0.15 
   5 -13  15    0.22    0.15 
   5 -14  15    0.02    0.16 
   5 -15  15    0.11    0.17 
  -4 -15 -15    0.11    0.13 
  -4 -14 -15   -0.13    0.11 
  -4 -13 -15    0.05    0.12 
  -4 -12 -15    0.04    0.11 
  -4 -11 -15    0.28    0.13 
  -4 -10 -15    0.41    0.13 
  -4  -9 -15    0.01    0.09 
  -4  -9 -15    0.15    0.08 
  -4  -8 -15    0.65    0.11 
  -4  -8 -15    0.62    0.14 
  -4  -7 -15    0.11    0.08 
  -4  -7 -15   -0.01    0.09 
  -4  -6 -15   -0.02    0.09 
  -4  -6 -15    0.02    0.07 
  -4  -5 -15    0.94    0.12 
  -4  -5 -15    0.83    0.14 
  -4  -4 -15    0.00    0.06 
  -4  -4 -15    0.08    0.09 
   4   3  15    0.06    0.06 
  -4  -3 -15    0.11    0.09 
  -4  -3 -15    0.11    0.07 
   4   2  15   -0.02    0.03 
  -4  -2 -15    0.07    0.09 
  -4  -2 -15   -0.01    0.06 
   4   1  15    0.15    0.07 
  -4  -1 -15    0.21    0.08 
  -4  -1 -15    0.21    0.08 
   4   0  15    0.04    0.06 
  -4   0 -15   -0.12    0.05 
  -4   0 -15   -0.09    0.05 
   4  -1  15    0.03    0.07 
  -4   1 -15    0.27    0.09 
  -4   1 -15    0.20    0.08 
   4  -2  15    0.11    0.08 
  -4   2 -15    0.00    0.06 
  -4   2 -15    0.17    0.08 
   4  -3  15    0.10    0.09 
  -4   3 -15    0.17    0.09 
  -4   3 -15    0.02    0.06 
   4  -4  15    0.00    0.08 
  -4   4 -15    0.06    0.08 
   4  -5  15    0.88    0.14 
  -4   5 -15    0.91    0.14 
   4  -6  15    0.07    0.08 
   4  -7  15    0.12    0.09 
   4  -8  15    0.63    0.14 
   4  -9  15    0.10    0.10 
   4 -10  15    0.22    0.11 
   4 -11  15    0.30    0.13 
   4 -12  15    0.07    0.12 
   4 -13  15    0.34    0.17 
   4 -14  15    0.02    0.15 
   4 -15  15    0.00    0.16 
  -3 -15 -15    0.44    0.16 
  -3 -14 -15    0.17    0.14 
  -3 -13 -15    0.94    0.19 
  -3 -12 -15    0.22    0.14 
  -3 -11 -15    0.66    0.12 
  -3 -11 -15    0.45    0.14 
  -3 -10 -15    0.61    0.12 
  -3 -10 -15    0.45    0.14 
  -3  -9 -15    1.70    0.20 
  -3  -9 -15    1.67    0.16 
  -3  -8 -15    0.95    0.15 
  -3  -8 -15    0.99    0.13 
  -3  -7 -15    0.68    0.14 
  -3  -7 -15    0.65    0.11 
  -3  -6 -15   -0.03    0.07 
  -3  -6 -15    0.01    0.08 
  -3  -5 -15    7.15    0.34 
  -3  -5 -15    7.37    0.38 
  -3  -4 -15    1.25    0.13 
  -3  -4 -15    0.93    0.14 
   3   3  15    2.47    0.16 
  -3  -3 -15    2.59    0.18 
  -3  -3 -15    2.73    0.19 
   3   2  15    0.84    0.09 
  -3  -2 -15    0.80    0.11 
  -3  -2 -15    0.55    0.10 
   3   1  15    1.99    0.14 
  -3  -1 -15    2.07    0.17 
  -3  -1 -15    2.09    0.15 
   3   0  15   -0.03    0.05 
  -3   0 -15   -0.03    0.07 
  -3   0 -15   -0.05    0.05 
   3  -1  15    2.06    0.15 
  -3   1 -15    2.28    0.18 
  -3   1 -15    1.87    0.14 
   3  -2  15    0.71    0.11 
  -3   2 -15    0.68    0.12 
  -3   2 -15    0.48    0.09 
   3  -3  15    2.52    0.19 
  -3   3 -15    2.39    0.19 
   3  -4  15    0.98    0.14 
  -3   4 -15    1.17    0.15 
   3  -5  15    6.57    0.35 
  -3   5 -15    6.99    0.36 
   3  -6  15   -0.05    0.08 
  -3   6 -15   -0.03    0.08 
   3  -7  15    0.79    0.14 
   3  -8  15    0.84    0.15 
   3  -9  15    1.47    0.19 
   3 -10  15    0.37    0.12 
   3 -11  15    0.47    0.14 
   3 -12  15    0.11    0.11 
   3 -13  15    0.71    0.19 
   3 -14  15    0.02    0.16 
   3 -15  15    0.83    0.21 
  -2 -16 -15    0.25    0.15 
  -2 -15 -15   -0.05    0.11 
  -2 -14 -15    0.03    0.13 
  -2 -13 -15    0.46    0.14 
  -2 -12 -15    0.12    0.09 
  -2 -12 -15    0.00    0.11 
  -2 -11 -15    0.10    0.12 
  -2 -11 -15    0.28    0.10 
  -2 -10 -15    0.20    0.09 
  -2 -10 -15    0.02    0.11 
  -2  -9 -15    0.19    0.11 
  -2  -9 -15    0.23    0.09 
  -2  -8 -15    1.13    0.16 
  -2  -8 -15    1.11    0.13 
  -2  -7 -15    0.20    0.09 
  -2  -7 -15    0.08    0.09 
  -2  -6 -15   -0.07    0.06 
  -2  -6 -15    0.05    0.09 
  -2  -5 -15    0.84    0.11 
  -2  -5 -15    0.72    0.13 
  -2  -4 -15    0.34    0.11 
  -2  -4 -15    0.48    0.10 
   2   3  15    0.67    0.08 
  -2  -3 -15    0.59    0.10 
  -2  -3 -15    0.58    0.10 
   2   2  15    0.00    0.05 
  -2  -2 -15    0.01    0.06 
  -2  -2 -15   -0.04    0.05 
  -2  -1 -15    0.29    0.08 
  -2  -1 -15    0.39    0.09 
   2   0  15    0.08    0.06 
  -2   0 -15    0.06    0.06 
  -2   0 -15    0.07    0.07 
   2  -1  15    0.40    0.09 
  -2   1 -15    0.49    0.10 
   2  -2  15    0.01    0.06 
  -2   2 -15    0.11    0.05 
  -2   2 -15    0.02    0.07 
   2  -3  15    0.85    0.13 
  -2   3 -15    0.75    0.12 
  -2   3 -15    0.71    0.09 
   2  -4  15    0.50    0.11 
  -2   4 -15    0.49    0.11 
   2  -5  15    0.61    0.13 
  -2   5 -15    0.84    0.14 
   2  -6  15   -0.08    0.07 
  -2   6 -15    0.07    0.09 
   2  -7  15    0.17    0.10 
  -2   7 -15    0.17    0.10 
   2  -8  15    1.24    0.17 
   2  -9  15    0.21    0.11 
   2 -10  15   -0.15    0.07 
   2 -11  15    0.33    0.12 
   2 -12  15    0.00    0.10 
   2 -13  15    0.28    0.16 
   2 -14  15   -0.18    0.14 
   2 -15  15   -0.01    0.15 
   2 -16  15   -0.07    0.16 
  -1 -16 -15    0.31    0.14 
  -1 -15 -15    0.63    0.17 
  -1 -14 -15   -0.02    0.11 
  -1 -14 -15    0.08    0.12 
  -1 -13 -15    1.63    0.22 
  -1 -13 -15    1.29    0.17 
  -1 -12 -15    0.09    0.12 
  -1 -12 -15    0.07    0.10 
  -1 -11 -15    0.16    0.11 
  -1 -11 -15    0.35    0.11 
  -1 -10 -15    0.19    0.11 
  -1 -10 -15    0.19    0.09 
  -1  -9 -15    1.58    0.19 
  -1  -9 -15    1.70    0.16 
  -1  -8 -15    0.02    0.07 
  -1  -8 -15   -0.04    0.10 
  -1  -7 -15    0.52    0.13 
  -1  -7 -15    0.41    0.10 
  -1  -6 -15    0.18    0.10 
  -1  -6 -15   -0.07    0.07 
  -1  -5 -15    9.80    0.45 
  -1  -5 -15    9.09    0.42 
  -1  -4 -15    0.27    0.09 
  -1  -4 -15    0.15    0.09 
  -1  -3 -15    1.86    0.15 
  -1  -3 -15    1.57    0.15 
   1   2  15    0.12    0.06 
  -1  -2 -15    0.05    0.06 
  -1  -2 -15    0.06    0.06 
   1   1  15    0.27    0.07 
  -1  -1 -15    0.10    0.07 
  -1  -1 -15    0.22    0.07 
   1   0  15    0.09    0.06 
  -1   0 -15   -0.07    0.05 
  -1   0 -15   -0.03    0.03 
   1  -1  15    0.16    0.07 
  -1   1 -15    0.17    0.06 
  -1   1 -15    0.02    0.06 
   1  -2  15    0.14    0.07 
  -1   2 -15    0.14    0.08 
  -1   2 -15    0.17    0.06 
   1  -3  15    1.68    0.16 
  -1   3 -15    1.53    0.12 
  -1   3 -15    1.65    0.16 
   1  -4  15    0.24    0.10 
  -1   4 -15    0.24    0.10 
   1  -5  15    9.15    0.44 
  -1   5 -15    9.14    0.44 
   1  -6  15    0.06    0.08 
  -1   6 -15    0.03    0.08 
   1  -7  15    0.30    0.11 
  -1   7 -15    0.30    0.11 
   1  -8  15    0.11    0.10 
   1  -9  15    1.25    0.17 
   1 -10  15    0.18    0.11 
   1 -11  15    0.30    0.12 
   1 -12  15    0.18    0.11 
   1 -13  15    1.21    0.21 
   1 -14  15    0.10    0.16 
   1 -15  15    0.70    0.20 
   1 -16  15   -0.14    0.16 
   0 -16 -15    0.23    0.14 
   0 -16 -15    0.14    0.13 
   0 -15 -15   -0.08    0.11 
   0 -15 -15   -0.09    0.11 
   0 -14 -15    0.01    0.12 
   0 -14 -15   -0.02    0.11 
   0 -13 -15   -0.06    0.08 
   0 -13 -15    0.00    0.12 
   0 -12 -15    0.87    0.14 
   0 -12 -15    0.59    0.16 
   0 -11 -15   -0.11    0.10 
   0 -11 -15    0.13    0.10 
   0 -10 -15    0.23    0.12 
   0 -10 -15    0.31    0.10 
   0  -9 -15    0.08    0.09 
   0  -9 -15    0.08    0.09 
   0  -8 -15    0.76    0.12 
   0  -8 -15    0.51    0.13 
   0  -7 -15   -0.12    0.07 
   0  -7 -15   -0.02    0.09 
   0  -6 -15    1.20    0.15 
   0  -6 -15    1.03    0.13 
   0  -5 -15    0.00    0.09 
   0  -5 -15    0.09    0.07 
   0  -4 -15    1.37    0.14 
   0  -4 -15    1.35    0.14 
   0  -3 -15   -0.05    0.06 
   0  -3 -15    0.02    0.07 
   0   2  15    0.85    0.09 
   0  -2 -15    0.84    0.10 
   0  -2 -15    0.65    0.11 
   0   1  15   -0.02    0.05 
   0  -1 -15    0.00    0.03 
   0  -1 -15   -0.10    0.05 
   0   0  15   -0.03    0.04 
   0   0 -15    0.01    0.06 
   0   0 -15   -0.01    0.04 
   0  -1  15   -0.03    0.05 
   0   1 -15    0.06    0.07 
   0   1 -15    0.02    0.05 
   0  -2  15    0.65    0.10 
   0   2 -15    0.73    0.12 
   0   2 -15    0.85    0.09 
   0  -3  15   -0.06    0.07 
   0   3 -15   -0.01    0.07 
   0  -4  15    1.21    0.14 
   0   4 -15    1.17    0.15 
   0  -5  15    0.07    0.09 
   0   5 -15   -0.02    0.07 
   0  -6  15    0.86    0.14 
   0   6 -15    0.99    0.15 
   0  -7  15    0.03    0.09 
   0   7 -15    0.09    0.09 
   0  -8  15    0.56    0.13 
   0   8 -15    0.45    0.12 
   0  -9  15   -0.05    0.08 
   0 -10  15    0.14    0.11 
   0 -11  15    0.07    0.10 
   0 -12  15    0.49    0.14 
   0 -13  15   -0.01    0.10 
   0 -14  15    0.18    0.16 
   0 -15  15   -0.20    0.14 
   0 -16  15    0.27    0.18 
   1 -16 -15    0.19    0.13 
   1 -16 -15    0.03    0.13 
   1 -15 -15    0.60    0.15 
   1 -15 -15    0.57    0.16 
   1 -14 -15    0.09    0.13 
   1 -14 -15    0.03    0.11 
   1 -13 -15    1.50    0.21 
   1 -13 -15    1.05    0.16 
   1 -12 -15    0.18    0.12 
   1 -12 -15    0.10    0.10 
   1 -11 -15    0.18    0.11 
   1 -11 -15    0.41    0.11 
   1 -10 -15    0.16    0.09 
   1 -10 -15    0.14    0.11 
   1  -9 -15    1.48    0.18 
   1  -9 -15    1.63    0.16 
   1  -8 -15    0.05    0.10 
   1  -8 -15    0.16    0.08 
   1  -7 -15    0.35    0.11 
   1  -7 -15    0.27    0.10 
   1  -6 -15    0.06    0.08 
   1  -6 -15    0.01    0.08 
   1  -5 -15    9.78    0.45 
   1  -5 -15    9.96    0.46 
   1  -4 -15    0.34    0.10 
   1  -4 -15    0.46    0.10 
   1  -3 -15    1.63    0.13 
   1  -3 -15    1.54    0.15 
  -1   2  15    0.04    0.05 
   1  -2 -15   -0.02    0.06 
   1  -2 -15    0.00    0.04 
  -1   1  15    0.09    0.06 
   1  -1 -15    0.08    0.05 
   1  -1 -15    0.13    0.07 
  -1   0  15   -0.01    0.04 
   1   0 -15    0.04    0.04 
   1   0 -15   -0.06    0.06 
  -1  -1  15    0.07    0.06 
   1   1 -15    0.27    0.08 
   1   1 -15    0.15    0.05 
  -1  -2  15   -0.01    0.06 
   1   2 -15    0.11    0.07 
  -1  -3  15    1.55    0.16 
   1   3 -15    1.85    0.17 
  -1  -4  15    0.29    0.10 
   1   4 -15    0.38    0.10 
  -1  -5  15    9.48    0.47 
   1   5 -15    9.47    0.45 
  -1  -6  15    0.08    0.09 
   1   6 -15   -0.07    0.08 
  -1  -7  15    0.38    0.12 
   1   7 -15    0.31    0.11 
  -1  -8  15   -0.04    0.08 
   1   8 -15    0.02    0.09 
  -1  -9  15    1.81    0.21 
  -1 -10  15    0.14    0.10 
  -1 -11  15    0.44    0.14 
  -1 -12  15    0.14    0.11 
  -1 -13  15    1.41    0.22 
  -1 -14  15    0.17    0.15 
  -1 -15  15    0.42    0.19 
  -1 -16  15    0.00    0.15 
   2 -16 -15    0.22    0.14 
   2 -15 -15    0.02    0.11 
   2 -14 -15   -0.14    0.10 
   2 -13 -15    0.27    0.12 
   2 -12 -15   -0.05    0.09 
   2 -11 -15    0.10    0.09 
   2 -10 -15   -0.03    0.09 
   2  -9 -15    0.32    0.11 
   2  -8 -15    1.39    0.17 
   2  -8 -15    1.42    0.16 
   2  -7 -15    0.34    0.10 
   2  -7 -15    0.00    0.09 
   2  -6 -15   -0.02    0.07 
   2  -6 -15   -0.04    0.09 
   2  -5 -15    0.67    0.11 
   2  -5 -15    0.74    0.13 
   2  -4 -15    0.47    0.10 
   2  -4 -15    0.39    0.10 
   2  -3 -15    0.43    0.10 
   2  -3 -15    0.62    0.10 
  -2   2  15   -0.03    0.06 
   2  -2 -15    0.03    0.07 
   2  -2 -15   -0.05    0.05 
  -2   1  15    0.33    0.07 
   2  -1 -15    0.26    0.09 
   2  -1 -15    0.35    0.07 
  -2   0  15    0.00    0.04 
   2   0 -15   -0.04    0.06 
   2   0 -15    0.07    0.05 
  -2  -1  15    0.43    0.09 
   2   1 -15    0.26    0.09 
  -2  -2  15   -0.01    0.06 
   2   2 -15   -0.02    0.06 
  -2  -3  15    0.41    0.10 
   2   3 -15    0.67    0.12 
  -2  -4  15    0.48    0.11 
   2   4 -15    0.56    0.12 
  -2  -5  15    0.89    0.15 
   2   5 -15    0.75    0.13 
  -2  -6  15    0.00    0.08 
   2   6 -15    0.05    0.09 
  -2  -7  15    0.02    0.09 
   2   7 -15    0.16    0.10 
  -2  -8  15    1.23    0.18 
   2   8 -15    1.16    0.17 
  -2  -9  15    0.22    0.11 
   2   9 -15    0.38    0.13 
  -2 -10  15    0.04    0.09 
  -2 -11  15    0.10    0.10 
  -2 -12  15    0.18    0.12 
  -2 -13  15    0.24    0.13 
  -2 -14  15   -0.13    0.12 
  -2 -15  15    0.05    0.16 
  -2 -16  15    0.30    0.19 
   3 -16 -15   -0.07    0.13 
   3 -15 -15    0.59    0.16 
   3 -14 -15    0.16    0.11 
   3 -13 -15    0.71    0.15 
   3 -12 -15    0.14    0.11 
   3 -11 -15    0.34    0.11 
   3 -10 -15    0.55    0.12 
   3  -9 -15    1.88    0.18 
   3  -8 -15    1.02    0.14 
   3  -7 -15    1.04    0.14 
   3  -6 -15   -0.15    0.07 
   3  -5 -15    6.78    0.35 
   3  -5 -15    7.43    0.36 
   3  -4 -15    1.21    0.12 
   3  -4 -15    1.09    0.14 
   3  -3 -15    2.24    0.18 
   3  -2 -15    0.67    0.11 
   3  -2 -15    0.72    0.09 
  -3   1  15    1.85    0.14 
   3  -1 -15    1.82    0.16 
   3  -1 -15    1.81    0.13 
  -3   0  15    0.01    0.04 
   3   0 -15   -0.03    0.06 
  -3  -1  15    1.89    0.15 
   3   1 -15    1.94    0.17 
  -3  -2  15    0.78    0.12 
   3   2 -15    0.73    0.12 
  -3  -3  15    2.18    0.19 
   3   3 -15    2.14    0.19 
  -3  -4  15    1.02    0.14 
   3   4 -15    0.97    0.14 
  -3  -5  15    7.42    0.40 
   3   5 -15    7.76    0.39 
  -3  -6  15    0.01    0.08 
   3   6 -15    0.03    0.09 
  -3  -7  15    0.66    0.14 
   3   7 -15    0.73    0.14 
  -3  -8  15    0.73    0.14 
   3   8 -15    1.06    0.17 
  -3  -9  15    1.73    0.21 
   3   9 -15    1.91    0.21 
  -3 -10  15    0.35    0.13 
  -3 -11  15    0.62    0.15 
  -3 -12  15    0.15    0.11 
  -3 -13  15    0.57    0.16 
  -3 -14  15    0.09    0.16 
  -3 -15  15    0.59    0.20 
   4 -15 -15    0.02    0.12 
   4 -14 -15    0.06    0.12 
   4 -13 -15    0.05    0.11 
   4 -12 -15    0.11    0.10 
   4 -11 -15    0.26    0.11 
   4 -10 -15    0.38    0.11 
   4  -9 -15    0.08    0.09 
   4  -8 -15    0.55    0.12 
   4  -7 -15    0.04    0.08 
   4  -6 -15    0.01    0.08 
   4  -5 -15    0.75    0.13 
   4  -4 -15    0.08    0.06 
   4  -4 -15    0.04    0.08 
   4  -3 -15    0.09    0.06 
   4  -3 -15    0.17    0.09 
   4  -2 -15    0.00    0.07 
   4  -2 -15    0.09    0.06 
  -4   1  15    0.15    0.07 
   4  -1 -15    0.12    0.08 
  -4   0  15    0.00    0.04 
   4   0 -15   -0.06    0.06 
  -4  -1  15    0.22    0.08 
   4   1 -15    0.12    0.08 
  -4  -2  15    0.22    0.08 
   4   2 -15    0.00    0.07 
  -4  -3  15    0.05    0.08 
   4   3 -15    0.10    0.08 
  -4  -4  15    0.08    0.09 
   4   4 -15    0.03    0.07 
  -4  -5  15    1.15    0.16 
   4   5 -15    0.79    0.14 
  -4  -6  15   -0.03    0.08 
   4   6 -15    0.00    0.09 
  -4  -7  15    0.11    0.10 
   4   7 -15    0.07    0.10 
  -4  -8  15    0.56    0.14 
   4   8 -15    0.52    0.13 
  -4  -9  15   -0.03    0.10 
   4   9 -15    0.04    0.10 
  -4 -10  15    0.33    0.13 
  -4 -11  15    0.44    0.15 
  -4 -12  15   -0.02    0.10 
  -4 -13  15    0.17    0.13 
  -4 -14  15   -0.03    0.12 
  -4 -15  15    0.00    0.16 
   5 -15 -15    0.23    0.14 
   5 -14 -15    0.10    0.13 
   5 -13 -15    0.20    0.12 
   5 -12 -15    0.36    0.12 
   5 -11 -15    0.01    0.09 
   5 -10 -15    0.11    0.10 
   5  -9 -15    1.50    0.17 
   5  -8 -15    2.36    0.20 
   5  -7 -15    0.36    0.11 
   5  -6 -15    0.90    0.13 
   5  -5 -15    1.38    0.15 
   5  -4 -15    3.23    0.22 
   5  -3 -15    3.00    0.21 
   5  -2 -15    0.35    0.10 
  -5   1  15    4.45    0.24 
   5  -1 -15    4.19    0.25 
  -5   0  15   -0.02    0.03 
   5   0 -15   -0.03    0.07 
  -5  -1  15    4.40    0.25 
   5   1 -15    4.23    0.26 
   5   2 -15    0.14    0.08 
   5   2 -15    0.19    0.09 
   5   3 -15    2.64    0.21 
   5   3 -15    3.22    0.22 
   5   4 -15    3.13    0.23 
   5   4 -15    2.81    0.21 
   5   5 -15    1.51    0.17 
   5   5 -15    1.41    0.18 
  -5  -6  15    0.82    0.15 
   5   6 -15    0.86    0.14 
  -5  -7  15    0.28    0.11 
   5   7 -15    0.36    0.12 
  -5  -8  15    2.27    0.23 
   5   8 -15    2.49    0.23 
  -5  -9  15    1.43    0.20 
   5   9 -15    1.50    0.20 
  -5 -10  15    0.31    0.13 
   5  10 -15   -0.03    0.10 
  -5 -11  15    0.21    0.12 
  -5 -12  15    0.24    0.13 
  -5 -13  15    0.15    0.13 
  -5 -14  15    0.18    0.13 
  -5 -15  15    0.13    0.16 
   6 -15 -15    0.06    0.13 
   6 -14 -15   -0.13    0.12 
   6 -13 -15    0.13    0.12 
   6 -12 -15   -0.06    0.10 
   6 -11 -15   -0.04    0.09 
   6 -10 -15    0.16    0.11 
   6  -9 -15    0.23    0.10 
   6  -8 -15    0.01    0.09 
   6  -7 -15    0.29    0.11 
   6  -6 -15    0.08    0.08 
   6  -5 -15   -0.12    0.07 
   6  -4 -15    1.95    0.18 
   6  -3 -15    0.07    0.08 
   6  -2 -15    1.18    0.15 
   6  -1 -15    0.29    0.10 
   6  -1 -15    0.46    0.10 
   6   0 -15    0.01    0.06 
   6   0 -15    0.01    0.07 
   6   1 -15    0.36    0.09 
   6   1 -15    0.41    0.10 
   6   2 -15    1.06    0.14 
   6   2 -15    1.11    0.15 
   6   3 -15    0.05    0.08 
   6   3 -15    0.11    0.09 
   6   4 -15    1.98    0.20 
   6   4 -15    1.64    0.17 
   6   5 -15    0.03    0.09 
   6   5 -15   -0.06    0.09 
   6   6 -15    0.23    0.10 
   6   6 -15    0.03    0.10 
   6   7 -15    0.18    0.11 
   6   7 -15    0.32    0.12 
   6   8 -15   -0.09    0.09 
   6   8 -15   -0.13    0.08 
   6   9 -15    0.25    0.12 
   6   9 -15    0.36    0.13 
  -6 -10  15    0.30    0.12 
   6  10 -15    0.16    0.12 
  -6 -11  15    0.01    0.10 
  -6 -12  15    0.00    0.11 
  -6 -13  15    0.08    0.12 
  -6 -14  15   -0.02    0.10 
  -6 -15  15    0.06    0.17 
   7 -14 -15    0.14    0.13 
   7 -13 -15    0.52    0.15 
   7 -12 -15    0.07    0.11 
   7 -11 -15   -0.08    0.10 
   7 -10 -15    0.12    0.11 
   7  -9 -15   -0.03    0.10 
   7  -8 -15    0.33    0.11 
   7  -7 -15   -0.16    0.07 
   7  -6 -15    0.34    0.11 
   7  -5 -15    0.65    0.13 
   7  -4 -15    0.06    0.09 
   7  -3 -15    1.64    0.17 
   7  -2 -15    2.20    0.19 
   7  -1 -15    0.82    0.13 
   7  -1 -15    1.13    0.13 
   7   0 -15   -0.14    0.07 
   7   0 -15   -0.01    0.06 
   7   1 -15    0.84    0.13 
   7   1 -15    0.95    0.14 
   7   2 -15    2.90    0.21 
   7   2 -15    2.53    0.20 
   7   3 -15    1.74    0.18 
   7   3 -15    1.62    0.17 
   7   4 -15    0.08    0.09 
   7   4 -15    0.02    0.08 
   7   5 -15    0.78    0.15 
   7   5 -15    0.79    0.14 
   7   6 -15    0.43    0.12 
   7   6 -15    0.27    0.11 
   7   7 -15   -0.18    0.09 
   7   7 -15   -0.13    0.08 
   7   8 -15    0.38    0.12 
   7   8 -15    0.19    0.11 
   7   9 -15   -0.03    0.10 
   7   9 -15   -0.04    0.11 
   7  10 -15    0.12    0.12 
   7  10 -15    0.16    0.13 
   7  11 -15   -0.07    0.13 
  -7 -12  15    0.17    0.12 
  -7 -13  15    0.23    0.12 
  -7 -14  15    0.12    0.12 
   8 -14 -15   -0.04    0.12 
   8 -13 -15    0.05    0.13 
   8 -12 -15   -0.10    0.11 
   8 -11 -15    0.06    0.12 
   8 -10 -15    0.34    0.13 
   8  -9 -15    0.34    0.12 
   8  -8 -15    0.73    0.14 
   8  -7 -15    0.03    0.09 
   8  -6 -15    0.01    0.09 
   8  -5 -15    0.78    0.13 
   8  -4 -15    0.04    0.08 
   8  -3 -15    0.10    0.09 
   8  -2 -15    0.34    0.10 
   8  -1 -15    0.01    0.08 
   8   0 -15   -0.05    0.07 
   8   0 -15   -0.02    0.07 
   8   1 -15   -0.01    0.08 
   8   1 -15    0.08    0.08 
   8   2 -15    0.27    0.10 
   8   2 -15    0.21    0.09 
   8   3 -15    0.05    0.09 
   8   3 -15   -0.02    0.08 
   8   4 -15   -0.05    0.08 
   8   4 -15   -0.01    0.08 
   8   5 -15    1.11    0.16 
   8   5 -15    1.04    0.17 
   8   6 -15    0.26    0.11 
   8   6 -15    0.09    0.09 
   8   7 -15   -0.05    0.09 
   8   7 -15   -0.02    0.09 
   8   8 -15    0.52    0.15 
   8   8 -15    0.32    0.13 
   8   9 -15    0.44    0.16 
   8   9 -15    0.56    0.16 
   8  10 -15    0.09    0.13 
   8  10 -15    0.25    0.13 
   8  11 -15    0.08    0.15 
   8  12 -15    0.09    0.15 
   8  13 -15    0.24    0.16 
  -8 -14  15    0.18    0.12 
   9 -13 -15    0.04    0.12 
   9 -12 -15   -0.16    0.12 
   9 -11 -15   -0.22    0.10 
   9 -10 -15    0.36    0.13 
   9  -9 -15    0.26    0.12 
   9  -8 -15    0.41    0.12 
   9  -7 -15    0.06    0.10 
   9  -6 -15    0.02    0.09 
   9  -5 -15    0.84    0.14 
   9  -4 -15    0.06    0.09 
   9  -3 -15    0.28    0.11 
   9  -2 -15    1.43    0.17 
   9  -1 -15    0.57    0.12 
   9   0 -15   -0.03    0.07 
   9   0 -15   -0.04    0.07 
   9   1 -15    0.62    0.12 
   9   1 -15    0.81    0.13 
   9   2 -15    1.45    0.17 
   9   2 -15    1.87    0.19 
   9   3 -15    0.27    0.11 
   9   3 -15    0.30    0.11 
   9   4 -15    0.21    0.11 
   9   4 -15    0.12    0.10 
   9   5 -15    1.25    0.17 
   9   5 -15    1.17    0.18 
   9   6 -15    0.17    0.11 
   9   6 -15    0.28    0.12 
   9   7 -15    0.00    0.10 
   9   7 -15   -0.02    0.10 
   9   8 -15    0.65    0.16 
   9   8 -15    0.36    0.14 
   9   9 -15    0.32    0.14 
   9   9 -15    0.33    0.14 
   9  10 -15    0.25    0.15 
   9  10 -15    0.11    0.13 
   9  11 -15    0.00    0.13 
   9  12 -15   -0.07    0.14 
   9  13 -15    0.13    0.17 
  10 -13 -15   -0.02    0.12 
  10 -12 -15    0.17    0.12 
  10 -11 -15    0.19    0.13 
  10 -10 -15    0.16    0.12 
  10  -9 -15   -0.09    0.09 
  10  -8 -15    0.32    0.12 
  10  -7 -15    0.21    0.11 
  10  -6 -15    0.15    0.10 
  10  -5 -15    0.16    0.10 
  10  -4 -15    0.00    0.09 
  10  -3 -15    0.30    0.11 
  10  -2 -15   -0.01    0.08 
  10  -1 -15    0.30    0.10 
  10   0 -15    0.11    0.08 
  10   0 -15    0.00    0.08 
  10   1 -15    0.11    0.09 
  10   1 -15    0.07    0.09 
  10   2 -15    0.01    0.08 
  10   2 -15   -0.02    0.08 
  10   3 -15    0.42    0.12 
  10   3 -15    0.17    0.10 
  10   4 -15    0.09    0.09 
  10   4 -15    0.03    0.10 
  10   5 -15   -0.05    0.09 
  10   5 -15    0.06    0.10 
  10   6 -15    0.10    0.10 
  10   6 -15   -0.02    0.10 
  10   7 -15    0.15    0.11 
  10   7 -15    0.16    0.12 
  10   8 -15    0.14    0.13 
  10   8 -15    0.36    0.14 
  10   9 -15   -0.07    0.12 
  10   9 -15   -0.06    0.11 
  10  10 -15    0.23    0.14 
  10  10 -15   -0.10    0.14 
  10  11 -15   -0.15    0.12 
  10  12 -15    0.11    0.15 
  10  13 -15    0.12    0.19 
  11 -12 -15    0.62    0.14 
  11 -11 -15    0.15    0.12 
  11 -10 -15    0.04    0.10 
  11  -9 -15    0.25    0.12 
  11  -8 -15    0.82    0.15 
  11  -7 -15    0.08    0.10 
  11  -6 -15    0.09    0.10 
  11  -5 -15    0.10    0.10 
  11  -4 -15    0.03    0.09 
  11  -3 -15   -0.09    0.08 
  11  -2 -15    0.76    0.14 
  11  -1 -15    0.21    0.10 
  11   0 -15   -0.01    0.09 
  11   0 -15    0.02    0.09 
  11   1 -15    0.10    0.09 
  11   1 -15    0.22    0.11 
  11   2 -15    0.93    0.15 
  11   2 -15    0.85    0.15 
  11   3 -15    0.00    0.10 
  11   3 -15   -0.03    0.10 
  11   4 -15    0.08    0.10 
  11   4 -15    0.11    0.10 
  11   5 -15    0.22    0.12 
  11   5 -15    0.23    0.12 
  11   6 -15    0.09    0.10 
  11   6 -15    0.21    0.12 
  11   7 -15    0.16    0.13 
  11   7 -15    0.12    0.11 
  11   8 -15    1.00    0.20 
  11   8 -15    1.12    0.19 
  11   9 -15    0.32    0.15 
  11   9 -15    0.32    0.17 
  11  10 -15    0.21    0.17 
  11  10 -15    0.10    0.13 
  11  11 -15    0.09    0.16 
  11  12 -15    0.39    0.20 
  12 -11 -15    0.11    0.12 
  12 -10 -15    0.19    0.12 
  12  -9 -15   -0.13    0.10 
  12  -8 -15    0.12    0.12 
  12  -7 -15    0.02    0.10 
  12  -6 -15   -0.01    0.10 
  12  -5 -15    0.22    0.12 
  12  -4 -15    0.01    0.10 
  12  -3 -15   -0.04    0.09 
  12  -2 -15   -0.11    0.09 
  12  -1 -15   -0.04    0.09 
  12   0 -15   -0.08    0.08 
  12   1 -15    0.07    0.09 
  12   1 -15   -0.08    0.08 
  12   2 -15    0.06    0.10 
  12   2 -15   -0.04    0.09 
  12   3 -15    0.00    0.09 
  12   3 -15    0.09    0.10 
  12   4 -15    0.01    0.10 
  12   4 -15    0.14    0.10 
  12   5 -15    0.41    0.14 
  12   5 -15    0.29    0.13 
  12   6 -15    0.00    0.11 
  12   6 -15   -0.04    0.10 
  12   7 -15    0.01    0.11 
  12   7 -15   -0.02    0.11 
  12   8 -15    0.05    0.12 
  12   8 -15    0.10    0.14 
  12   9 -15    0.06    0.14 
  12   9 -15    0.01    0.14 
  12  10 -15    0.35    0.18 
  12  11 -15    0.02    0.17 
  13 -10 -15   -0.05    0.10 
  13  -9 -15    0.04    0.11 
  13  -8 -15    0.10    0.11 
  13  -7 -15   -0.08    0.11 
  13  -6 -15    0.06    0.11 
  13  -5 -15    0.22    0.12 
  13  -4 -15   -0.10    0.10 
  13  -3 -15   -0.11    0.09 
  13  -2 -15    0.16    0.11 
  13  -1 -15   -0.10    0.09 
  13   0 -15   -0.15    0.09 
  13   1 -15    0.22    0.11 
  13   1 -15   -0.01    0.10 
  13   2 -15    0.33    0.12 
  13   2 -15    0.37    0.14 
  13   3 -15    0.09    0.11 
  13   3 -15    0.17    0.10 
  13   4 -15    0.11    0.11 
  13   4 -15    0.15    0.11 
  13   5 -15    0.14    0.13 
  13   5 -15    0.08    0.12 
  13   6 -15    0.19    0.14 
  13   6 -15   -0.09    0.11 
  13   7 -15    0.02    0.13 
  13   7 -15    0.11    0.14 
  13   8 -15    0.27    0.16 
  13   9 -15    0.17    0.16 
  13  10 -15    0.06    0.16 
  14  -9 -15    0.18    0.12 
  14  -8 -15   -0.02    0.11 
  14  -7 -15   -0.03    0.11 
  14  -6 -15   -0.05    0.11 
  14  -5 -15    0.12    0.11 
  14  -4 -15    0.16    0.12 
  14  -3 -15   -0.07    0.10 
  14  -2 -15    0.02    0.10 
  14  -1 -15   -0.14    0.09 
  14   0 -15   -0.04    0.09 
  14   1 -15   -0.05    0.10 
  14   2 -15    0.05    0.10 
  14   2 -15    0.15    0.12 
  14   3 -15    0.17    0.12 
  14   3 -15    0.21    0.13 
  14   4 -15    0.07    0.14 
  14   4 -15    0.20    0.12 
  14   5 -15    0.09    0.13 
  14   5 -15    0.00    0.13 
  14   6 -15   -0.16    0.12 
  14   7 -15    0.09    0.15 
  14   8 -15   -0.06    0.14 
  14   9 -15   -0.12    0.14 
  15  -7 -15    0.07    0.12 
  15  -6 -15    0.32    0.14 
  15  -5 -15   -0.15    0.11 
  15  -4 -15    0.22    0.14 
  15  -3 -15    0.10    0.12 
  15  -2 -15    0.12    0.11 
  15  -1 -15   -0.05    0.10 
  15   0 -15    0.13    0.11 
  15   1 -15    0.07    0.11 
  15   2 -15    0.17    0.13 
  15   2 -15    0.12    0.12 
  15   3 -15    0.04    0.14 
  15   4 -15    0.26    0.14 
  15   5 -15   -0.19    0.12 
  15   6 -15    0.25    0.17 
  15   7 -15   -0.12    0.14 
  16  -5 -15    0.01    0.13 
  16  -4 -15   -0.03    0.12 
  16  -3 -15    0.05    0.13 
  16  -2 -15    0.06    0.12 
  16  -1 -15   -0.04    0.12 
  16   0 -15    0.19    0.14 
  16   3 -15    0.00    0.14 
  16   4 -15   -0.02    0.14 
  16   5 -15   -0.03    0.15 
  16   2  16    0.37    0.13 
 -16  -2 -16    0.30    0.15 
  16   1  16    0.13    0.11 
  16   0  16    0.34    0.12 
  16  -1  16    0.19    0.11 
  16  -2  16    0.10    0.11 
 -15  -5 -16    0.23    0.14 
  15   4  16    0.12    0.12 
 -15  -4 -16   -0.08    0.12 
  15   3  16    0.21    0.12 
 -15  -3 -16   -0.01    0.12 
  15   2  16    0.09    0.11 
 -15  -2 -16    0.05    0.12 
  15   1  16    0.00    0.09 
  15   0  16    0.04    0.10 
  15  -1  16    0.10    0.10 
  15  -2  16   -0.01    0.10 
  15  -3  16    0.03    0.09 
  15  -4  16    0.22    0.10 
  15  -5  16    0.11    0.10 
 -14  -7 -16    0.19    0.14 
 -14  -6 -16    0.20    0.14 
 -14  -5 -16   -0.05    0.12 
  14   4  16    0.26    0.13 
 -14  -4 -16   -0.23    0.10 
  14   3  16    0.12    0.11 
 -14  -3 -16    0.15    0.13 
  14   2  16    0.06    0.10 
 -14  -2 -16    0.18    0.13 
  14   1  16    0.37    0.12 
 -14  -1 -16    0.21    0.14 
  14   0  16    0.13    0.10 
  14  -1  16    0.29    0.12 
  14  -2  16    0.20    0.11 
  14  -3  16    0.17    0.11 
  14  -4  16    0.09    0.09 
  14  -5  16    0.23    0.12 
  14  -6  16    0.13    0.11 
  14  -7  16    0.41    0.12 
 -13  -9 -16   -0.02    0.13 
 -13  -8 -16    0.06    0.13 
 -13  -7 -16    0.10    0.13 
 -13  -6 -16   -0.03    0.12 
 -13  -5 -16    0.17    0.14 
  13   4  16    0.15    0.12 
 -13  -4 -16    0.25    0.14 
  13   3  16    0.38    0.11 
 -13  -3 -16    0.01    0.13 
  13   2  16    0.07    0.10 
 -13  -2 -16   -0.05    0.12 
  13   1  16    0.13    0.09 
 -13  -1 -16   -0.02    0.11 
  13   0  16    0.21    0.11 
 -13   0 -16    0.29    0.14 
  13  -1  16    0.21    0.10 
  13  -2  16    0.05    0.10 
  13  -3  16    0.17    0.11 
  13  -4  16    0.17    0.11 
  13  -5  16   -0.01    0.08 
  13  -6  16   -0.02    0.10 
  13  -7  16    0.14    0.11 
  13  -8  16    0.10    0.11 
  13  -9  16    0.08    0.10 
 -12 -10 -16   -0.03    0.12 
 -12  -9 -16    0.05    0.13 
 -12  -8 -16   -0.09    0.12 
 -12  -7 -16    0.26    0.15 
 -12  -6 -16    0.21    0.13 
 -12  -5 -16    0.06    0.13 
  12   4  16    0.12    0.11 
 -12  -4 -16    0.01    0.12 
  12   3  16    0.49    0.11 
 -12  -3 -16    0.40    0.15 
  12   2  16    0.19    0.10 
 -12  -2 -16   -0.09    0.11 
  12   1  16    0.27    0.11 
 -12  -1 -16    0.18    0.13 
  12   0  16    0.08    0.09 
 -12   0 -16   -0.10    0.10 
  12  -1  16    0.29    0.11 
  12  -2  16    0.07    0.09 
  12  -3  16    0.46    0.12 
  12  -4  16    0.07    0.10 
  12  -5  16    0.08    0.10 
  12  -6  16    0.18    0.11 
  12  -7  16    0.07    0.10 
  12  -8  16    0.09    0.11 
  12  -9  16    0.00    0.10 
  12 -10  16   -0.09    0.09 
 -11 -11 -16    0.27    0.15 
 -11 -10 -16   -0.12    0.12 
 -11  -9 -16    0.10    0.14 
 -11  -8 -16    0.02    0.13 
 -11  -7 -16    0.19    0.13 
 -11  -6 -16    0.08    0.13 
 -11  -5 -16    0.03    0.11 
  11   4  16    0.19    0.10 
 -11  -4 -16    0.35    0.14 
  11   3  16    0.62    0.12 
 -11  -3 -16    0.72    0.17 
  11   2  16    0.04    0.08 
 -11  -2 -16    0.06    0.11 
  11   1  16    0.29    0.10 
 -11  -1 -16    0.30    0.12 
  11   0  16    0.32    0.11 
 -11   0 -16    0.35    0.13 
  11  -1  16    0.13    0.09 
 -11   1 -16    0.19    0.12 
  11  -2  16    0.06    0.10 
  11  -3  16    0.72    0.14 
  11  -4  16    0.26    0.11 
  11  -5  16   -0.02    0.09 
  11  -6  16    0.01    0.10 
  11  -7  16    0.31    0.12 
  11  -8  16   -0.05    0.09 
  11  -9  16    0.13    0.11 
  11 -10  16    0.10    0.11 
  11 -11  16    0.18    0.12 
 -10 -12 -16    0.37    0.14 
 -10 -11 -16    0.53    0.17 
 -10 -10 -16    0.15    0.13 
 -10  -9 -16   -0.03    0.12 
 -10  -8 -16    0.02    0.11 
 -10  -7 -16    1.39    0.21 
 -10  -6 -16   -0.07    0.10 
 -10  -5 -16    0.09    0.11 
  10   4  16    0.26    0.11 
 -10  -4 -16    0.53    0.14 
  10   3  16    0.83    0.14 
 -10  -3 -16    0.89    0.17 
  10   2  16    0.09    0.09 
 -10  -2 -16   -0.08    0.11 
  10   1  16    0.11    0.08 
 -10  -1 -16    0.02    0.11 
  10   0  16    0.20    0.10 
 -10   0 -16    0.32    0.13 
  10  -1  16    0.13    0.09 
 -10   1 -16   -0.01    0.10 
  10  -2  16    0.00    0.09 
  10  -3  16    0.79    0.14 
  10  -4  16    0.31    0.11 
  10  -5  16    0.23    0.11 
  10  -6  16    0.03    0.09 
  10  -7  16    1.25    0.18 
  10  -8  16    0.12    0.10 
  10  -9  16   -0.04    0.10 
  10 -10  16    0.03    0.11 
  10 -11  16    0.35    0.12 
  10 -12  16    0.17    0.16 
  -9 -12 -16    0.32    0.14 
  -9 -11 -16    0.15    0.14 
  -9 -10 -16    0.08    0.12 
  -9  -9 -16    0.07    0.12 
  -9  -8 -16    0.09    0.12 
  -9  -7 -16    0.40    0.14 
  -9  -6 -16    0.11    0.12 
  -9  -5 -16    0.20    0.12 
  -9  -4 -16    0.08    0.11 
   9   3  16    0.53    0.11 
  -9  -3 -16    0.47    0.14 
   9   2  16    1.11    0.14 
  -9  -2 -16    0.72    0.15 
   9   1  16    0.44    0.11 
  -9  -1 -16    0.39    0.13 
   9   0  16    0.30    0.10 
  -9   0 -16    0.19    0.12 
   9  -1  16    0.33    0.10 
  -9   1 -16    0.21    0.12 
   9  -2  16    0.74    0.14 
  -9   2 -16    0.84    0.15 
   9  -3  16    0.44    0.12 
   9  -4  16    0.12    0.10 
   9  -5  16    0.19    0.10 
   9  -6  16   -0.04    0.09 
   9  -7  16    0.26    0.11 
   9  -8  16    0.13    0.10 
   9  -9  16    0.00    0.10 
   9 -10  16   -0.08    0.09 
   9 -11  16    0.10    0.11 
   9 -12  16   -0.17    0.14 
  -8 -13 -16    0.73    0.18 
  -8 -12 -16    0.03    0.13 
  -8 -11 -16   -0.12    0.12 
  -8 -10 -16    0.14    0.12 
  -8  -9 -16    0.13    0.13 
  -8  -8 -16    0.59    0.16 
  -8  -7 -16    0.03    0.11 
  -8  -6 -16    0.17    0.12 
  -8  -5 -16    0.35    0.13 
  -8  -4 -16    1.50    0.19 
   8   3  16    1.55    0.15 
  -8  -3 -16    1.43    0.19 
   8   2  16    0.09    0.09 
  -8  -2 -16    0.00    0.10 
   8   1  16    0.60    0.11 
  -8  -1 -16    0.26    0.11 
   8   0  16    0.88    0.13 
  -8   0 -16    0.63    0.14 
  -8   0 -16    0.82    0.12 
   8  -1  16    0.36    0.11 
  -8   1 -16    0.28    0.11 
  -8   1 -16    0.29    0.10 
   8  -2  16    0.04    0.09 
  -8   2 -16    0.15    0.11 
   8  -3  16    1.64    0.18 
   8  -4  16    1.20    0.17 
   8  -5  16    0.56    0.13 
   8  -6  16    0.18    0.10 
   8  -7  16   -0.01    0.09 
   8  -8  16    0.62    0.15 
   8  -9  16    0.09    0.11 
   8 -10  16    0.16    0.11 
   8 -11  16   -0.03    0.10 
   8 -12  16    0.07    0.13 
   8 -13  16    0.41    0.18 
  -7 -13 -16   -0.15    0.11 
  -7 -12 -16    0.04    0.13 
  -7 -11 -16    0.46    0.16 
  -7 -10 -16    0.32    0.14 
  -7  -9 -16   -0.06    0.10 
  -7  -8 -16    0.04    0.12 
  -7  -7 -16   -0.13    0.10 
  -7  -6 -16    0.12    0.11 
  -7  -5 -16    1.33    0.18 
  -7  -4 -16    1.54    0.18 
   7   3  16    0.05    0.08 
  -7  -3 -16    0.08    0.10 
   7   2  16    0.17    0.09 
  -7  -2 -16    0.00    0.08 
  -7  -2 -16    0.02    0.10 
   7   1  16    0.47    0.11 
  -7  -1 -16    0.65    0.12 
  -7  -1 -16    0.54    0.13 
   7   0  16    0.15    0.09 
  -7   0 -16    0.05    0.09 
  -7   0 -16    0.16    0.09 
   7  -1  16    0.65    0.12 
  -7   1 -16    0.63    0.12 
  -7   1 -16    0.65    0.14 
   7  -2  16    0.05    0.09 
  -7   2 -16    0.20    0.10 
  -7   2 -16    0.07    0.08 
   7  -3  16    0.11    0.09 
   7  -4  16    1.43    0.17 
   7  -5  16    1.47    0.18 
   7  -6  16    0.14    0.10 
   7  -7  16    0.06    0.09 
   7  -8  16    0.01    0.09 
   7  -9  16   -0.06    0.08 
   7 -10  16    0.15    0.11 
   7 -11  16    0.32    0.13 
   7 -12  16   -0.05    0.09 
   7 -13  16    0.05    0.15 
   7 -14  16    0.06    0.17 
  -6 -14 -16    0.24    0.14 
  -6 -13 -16    0.36    0.15 
  -6 -12 -16    0.12    0.13 
  -6 -11 -16    0.06    0.13 
  -6 -10 -16    0.35    0.14 
  -6  -9 -16    0.09    0.12 
  -6  -8 -16    0.27    0.13 
  -6  -7 -16    0.32    0.12 
  -6  -6 -16    0.33    0.12 
  -6  -5 -16    0.16    0.11 
  -6  -4 -16    3.28    0.24 
  -6  -4 -16    2.85    0.20 
  -6  -3 -16    3.75    0.23 
  -6  -3 -16    3.32    0.25 
   6   2  16    0.51    0.10 
  -6  -2 -16    0.47    0.11 
  -6  -2 -16    0.54    0.12 
   6   1  16   -0.06    0.06 
  -6  -1 -16   -0.06    0.08 
  -6  -1 -16   -0.08    0.07 
   6   0  16    1.95    0.17 
  -6   0 -16    1.86    0.18 
  -6   0 -16    1.84    0.17 
   6  -1  16   -0.01    0.08 
  -6   1 -16   -0.08    0.07 
  -6   1 -16   -0.07    0.08 
   6  -2  16    0.47    0.12 
  -6   2 -16    0.41    0.12 
  -6   2 -16    0.42    0.11 
   6  -3  16    3.62    0.24 
  -6   3 -16    3.75    0.25 
   6  -4  16    3.36    0.24 
  -6   4 -16    2.92    0.23 
   6  -5  16    0.18    0.10 
   6  -6  16    0.23    0.10 
   6  -7  16    0.22    0.11 
   6  -8  16   -0.03    0.10 
   6  -9  16    0.16    0.11 
   6 -10  16    0.12    0.10 
   6 -11  16    0.17    0.11 
   6 -12  16   -0.14    0.09 
   6 -13  16    0.12    0.16 
   6 -14  16    0.01    0.16 
  -5 -14 -16    0.01    0.12 
  -5 -13 -16    0.03    0.12 
  -5 -12 -16   -0.06    0.12 
  -5 -11 -16    0.04    0.12 
  -5 -10 -16    0.07    0.11 
  -5  -9 -16    0.59    0.15 
  -5  -8 -16    0.50    0.14 
  -5  -7 -16    0.02    0.09 
  -5  -6 -16    1.58    0.15 
  -5  -6 -16    1.27    0.18 
  -5  -5 -16   -0.01    0.10 
  -5  -5 -16   -0.04    0.07 
  -5  -4 -16    0.20    0.09 
  -5  -4 -16    0.09    0.10 
   5   3  16    0.55    0.10 
  -5  -3 -16    0.66    0.11 
  -5  -3 -16    0.65    0.14 
   5   2  16    0.31    0.08 
  -5  -2 -16    0.21    0.09 
  -5  -2 -16    0.26    0.10 
   5   1  16    0.23    0.08 
  -5  -1 -16    0.20    0.09 
  -5  -1 -16    0.25    0.10 
   5   0  16    0.96    0.13 
  -5   0 -16    0.79    0.13 
  -5   0 -16    0.89    0.13 
   5  -1  16    0.22    0.09 
  -5   1 -16    0.08    0.08 
  -5   1 -16    0.11    0.09 
   5  -2  16    0.45    0.11 
  -5   2 -16    0.52    0.11 
  -5   2 -16    0.37    0.10 
   5  -3  16    0.57    0.12 
  -5   3 -16    0.80    0.14 
   5  -4  16    0.15    0.10 
  -5   4 -16    0.20    0.11 
   5  -5  16    0.00    0.08 
  -5   5 -16    0.10    0.10 
   5  -6  16    1.36    0.17 
   5  -7  16   -0.07    0.08 
   5  -8  16    0.31    0.12 
   5  -9  16    0.90    0.17 
   5 -10  16   -0.07    0.10 
   5 -11  16   -0.09    0.10 
   5 -12  16    0.01    0.11 
   5 -13  16   -0.01    0.15 
   5 -14  16   -0.01    0.16 
  -4 -15 -16   -0.04    0.12 
  -4 -14 -16    0.66    0.17 
  -4 -13 -16   -0.14    0.11 
  -4 -12 -16    0.14    0.13 
  -4 -11 -16    0.61    0.16 
  -4 -10 -16    0.31    0.13 
  -4  -9 -16    0.00    0.10 
  -4  -8 -16    0.00    0.08 
  -4  -8 -16    0.14    0.11 
  -4  -7 -16   -0.02    0.09 
  -4  -7 -16   -0.01    0.07 
  -4  -6 -16    1.24    0.13 
  -4  -6 -16    1.21    0.17 
  -4  -5 -16    0.13    0.08 
  -4  -5 -16    0.02    0.10 
  -4  -4 -16    2.97    0.22 
  -4  -4 -16    2.82    0.19 
  -4  -3 -16    0.69    0.13 
  -4  -3 -16    0.71    0.11 
   4   2  16    0.01    0.04 
  -4  -2 -16    0.12    0.09 
  -4  -2 -16    0.01    0.08 
   4   1  16    0.35    0.09 
  -4  -1 -16    0.30    0.10 
  -4  -1 -16    0.33    0.10 
   4   0  16    5.61    0.29 
  -4   0 -16    5.52    0.30 
  -4   0 -16    5.82    0.31 
   4  -1  16    0.42    0.11 
  -4   1 -16    0.19    0.09 
  -4   1 -16    0.19    0.08 
   4  -2  16    0.02    0.08 
  -4   2 -16    0.14    0.07 
  -4   2 -16    0.03    0.07 
   4  -3  16    0.95    0.14 
  -4   3 -16    0.91    0.14 
  -4   3 -16    0.74    0.11 
   4  -4  16    2.88    0.22 
  -4   4 -16    3.54    0.24 
   4  -5  16    0.00    0.08 
  -4   5 -16    0.03    0.09 
   4  -6  16    1.27    0.17 
   4  -7  16    0.08    0.09 
   4  -8  16    0.04    0.09 
   4  -9  16   -0.08    0.09 
   4 -10  16    0.28    0.12 
   4 -11  16    0.62    0.15 
   4 -12  16    0.02    0.11 
   4 -13  16   -0.02    0.12 
   4 -14  16    0.37    0.19 
   4 -15  16   -0.15    0.16 
  -3 -15 -16    0.01    0.13 
  -3 -14 -16   -0.09    0.11 
  -3 -13 -16    0.19    0.13 
  -3 -12 -16    0.33    0.14 
  -3 -11 -16    0.03    0.11 
  -3 -10 -16   -0.10    0.10 
  -3 -10 -16    0.01    0.09 
  -3  -9 -16    0.60    0.14 
  -3  -9 -16    0.67    0.12 
  -3  -8 -16    0.13    0.09 
  -3  -8 -16    0.28    0.12 
  -3  -7 -16    0.87    0.16 
  -3  -7 -16    1.04    0.13 
  -3  -6 -16    0.21    0.11 
  -3  -6 -16    0.20    0.08 
  -3  -5 -16    1.18    0.16 
  -3  -5 -16    1.33    0.14 
  -3  -4 -16   -0.09    0.08 
  -3  -4 -16   -0.07    0.06 
  -3  -3 -16    1.26    0.15 
  -3  -3 -16    1.31    0.14 
   3   2  16    1.40    0.12 
  -3  -2 -16    1.58    0.15 
  -3  -2 -16    1.22    0.14 
   3   1  16   -0.02    0.05 
  -3  -1 -16   -0.04    0.06 
  -3  -1 -16   -0.01    0.07 
   3   0  16    7.39    0.36 
  -3   0 -16    7.13    0.36 
  -3   0 -16    7.63    0.36 
   3  -1  16   -0.03    0.07 
  -3   1 -16   -0.15    0.06 
  -3   1 -16   -0.06    0.06 
   3  -2  16    1.52    0.16 
  -3   2 -16    1.71    0.17 
   3  -3  16    1.55    0.16 
  -3   3 -16    1.15    0.15 
  -3   3 -16    0.96    0.11 
   3  -4  16   -0.01    0.08 
  -3   4 -16    0.04    0.08 
   3  -5  16    1.67    0.18 
  -3   5 -16    1.63    0.18 
   3  -6  16    0.01    0.09 
  -3   6 -16    0.07    0.10 
   3  -7  16    0.65    0.13 
   3  -8  16    0.24    0.11 
   3  -9  16    0.54    0.14 
   3 -10  16    0.17    0.11 
   3 -11  16   -0.09    0.09 
   3 -12  16    0.24    0.13 
   3 -13  16    0.07    0.10 
   3 -14  16    0.05    0.15 
   3 -15  16    0.06    0.17 
  -2 -15 -16    0.06    0.13 
  -2 -14 -16    0.82    0.19 
  -2 -13 -16    0.28    0.15 
  -2 -12 -16    0.42    0.12 
  -2 -12 -16    0.14    0.13 
  -2 -11 -16    0.69    0.16 
  -2 -11 -16    0.61    0.12 
  -2 -10 -16    1.25    0.15 
  -2 -10 -16    1.28    0.19 
  -2  -9 -16    0.92    0.14 
  -2  -9 -16    0.83    0.16 
  -2  -8 -16    0.62    0.14 
  -2  -8 -16    0.62    0.12 
  -2  -7 -16    0.21    0.11 
  -2  -7 -16    0.00    0.08 
  -2  -6 -16    3.27    0.23 
  -2  -6 -16    2.91    0.21 
  -2  -5 -16    0.11    0.08 
  -2  -5 -16    0.06    0.09 
  -2  -4 -16    0.04    0.08 
  -2  -4 -16    0.02    0.08 
  -2  -3 -16   -0.06    0.06 
  -2  -3 -16   -0.09    0.08 
   2   2  16    0.13    0.07 
  -2  -2 -16    0.19    0.08 
  -2  -2 -16    0.10    0.07 
   2   1  16    0.06    0.04 
  -2  -1 -16    0.27    0.09 
  -2  -1 -16    0.16    0.06 
   2   0  16    3.07    0.19 
  -2   0 -16    2.89    0.18 
  -2   0 -16    2.71    0.20 
   2  -1  16    0.27    0.08 
  -2   1 -16    0.05    0.04 
  -2   1 -16    0.20    0.09 
   2  -2  16    0.07    0.07 
  -2   2 -16    0.10    0.08 
  -2   2 -16    0.11    0.06 
   2  -3  16    0.04    0.07 
  -2   3 -16   -0.06    0.06 
   2  -4  16    0.01    0.08 
  -2   4 -16    0.05    0.08 
   2  -5  16    0.14    0.09 
  -2   5 -16    0.18    0.10 
   2  -6  16    3.53    0.24 
  -2   6 -16    3.16    0.24 
   2  -7  16   -0.03    0.09 
  -2   7 -16    0.08    0.09 
   2  -8  16    0.69    0.14 
   2  -9  16    1.03    0.17 
   2 -10  16    1.54    0.21 
   2 -11  16    0.49    0.14 
   2 -12  16    0.20    0.12 
   2 -13  16   -0.02    0.10 
   2 -14  16    0.42    0.18 
   2 -15  16   -0.01    0.15 
  -1 -15 -16    0.05    0.12 
  -1 -14 -16    0.06    0.12 
  -1 -13 -16   -0.11    0.11 
  -1 -13 -16    0.14    0.11 
  -1 -12 -16   -0.03    0.09 
  -1 -12 -16    0.10    0.12 
  -1 -11 -16    0.06    0.09 
  -1 -11 -16    0.08    0.12 
  -1 -10 -16   -0.02    0.10 
  -1 -10 -16    0.19    0.10 
  -1  -9 -16    0.68    0.12 
  -1  -9 -16    0.52    0.14 
  -1  -8 -16    0.45    0.13 
  -1  -8 -16    0.50    0.11 
  -1  -7 -16    1.65    0.17 
  -1  -7 -16    2.02    0.20 
  -1  -6 -16    0.10    0.10 
  -1  -6 -16    0.17    0.09 
  -1  -5 -16    0.15    0.10 
  -1  -5 -16    0.01    0.07 
  -1  -4 -16    0.18    0.09 
  -1  -4 -16    0.09    0.09 
  -1  -3 -16    0.07    0.07 
  -1  -3 -16    0.15    0.08 
  -1  -2 -16    0.15    0.08 
  -1  -2 -16    0.11    0.06 
   1   1  16    0.01    0.05 
  -1  -1 -16    0.04    0.06 
  -1  -1 -16    0.00    0.06 
   1   0  16    2.00    0.15 
  -1   0 -16    1.63    0.16 
   1  -1  16    0.05    0.06 
  -1   1 -16    0.02    0.05 
  -1   1 -16    0.06    0.07 
   1  -2  16    0.11    0.08 
  -1   2 -16    0.03    0.07 
   1  -3  16    0.14    0.08 
  -1   3 -16    0.09    0.08 
   1  -4  16    0.18    0.09 
  -1   4 -16    0.11    0.08 
   1  -5  16    0.01    0.08 
  -1   5 -16    0.04    0.08 
   1  -6  16    0.12    0.10 
  -1   6 -16    0.26    0.11 
   1  -7  16    1.26    0.18 
  -1   7 -16    1.91    0.20 
   1  -8  16    0.22    0.11 
   1  -9  16    0.94    0.16 
   1 -10  16   -0.02    0.10 
   1 -11  16   -0.04    0.10 
   1 -12  16    0.11    0.12 
   1 -13  16   -0.05    0.10 
   1 -14  16    0.00    0.15 
   1 -15  16    0.02    0.16 
   0 -15 -16    0.20    0.14 
   0 -15 -16    0.06    0.14 
   0 -14 -16    0.92    0.17 
   0 -14 -16    1.28    0.21 
   0 -13 -16    0.03    0.12 
   0 -13 -16    0.22    0.12 
   0 -12 -16    0.02    0.12 
   0 -12 -16   -0.05    0.09 
   0 -11 -16    0.06    0.11 
   0 -11 -16    0.07    0.09 
   0 -10 -16    2.44    0.24 
   0 -10 -16    2.35    0.20 
   0  -9 -16   -0.02    0.10 
   0  -9 -16    0.01    0.08 
   0  -8 -16    2.23    0.19 
   0  -8 -16    2.39    0.22 
   0  -7 -16   -0.01    0.08 
   0  -7 -16    0.02    0.10 
   0  -6 -16    5.17    0.30 
   0  -6 -16    5.06    0.28 
   0  -5 -16   -0.07    0.07 
   0  -5 -16    0.07    0.09 
   0  -4 -16    0.51    0.10 
   0  -4 -16    0.23    0.10 
   0  -3 -16    0.08    0.07 
   0  -3 -16   -0.02    0.06 
   0  -2 -16    0.54    0.10 
   0  -2 -16    0.66    0.10 
   0   1  16   -0.07    0.05 
   0  -1 -16    0.02    0.04 
   0  -1 -16   -0.06    0.06 
   0   0  16    1.04    0.12 
   0   0 -16    1.88    0.16 
   0   0 -16    1.49    0.12 
   0  -1  16   -0.02    0.06 
   0   1 -16   -0.04    0.06 
   0  -2  16    0.67    0.11 
   0   2 -16    0.57    0.11 
   0  -3  16   -0.04    0.07 
   0   3 -16   -0.01    0.07 
   0  -4  16    0.28    0.10 
   0   4 -16    0.48    0.11 
   0  -5  16   -0.05    0.08 
   0   5 -16   -0.17    0.06 
   0  -6  16    4.92    0.31 
   0   6 -16    5.74    0.33 
   0  -7  16   -0.08    0.07 
   0   7 -16    0.16    0.10 
   0  -8  16    2.10    0.22 
   0   8 -16    2.22    0.22 
   0  -9  16   -0.02    0.09 
   0 -10  16    2.42    0.24 
   0 -11  16    0.10    0.10 
   0 -12  16    0.10    0.10 
   0 -13  16   -0.06    0.10 
   0 -14  16    1.13    0.20 
   0 -15  16   -0.14    0.13 
   1 -15 -16   -0.01    0.12 
   1 -15 -16   -0.01    0.11 
   1 -14 -16    0.00    0.12 
   1 -14 -16    0.11    0.13 
   1 -13 -16   -0.08    0.10 
   1 -13 -16   -0.09    0.11 
   1 -12 -16    0.09    0.10 
   1 -12 -16    0.00    0.11 
   1 -11 -16    0.02    0.11 
   1 -11 -16    0.26    0.11 
   1 -10 -16    0.09    0.10 
   1 -10 -16   -0.04    0.11 
   1  -9 -16    0.78    0.13 
   1  -9 -16    0.45    0.12 
   1  -8 -16    0.21    0.11 
   1  -8 -16    0.21    0.09 
   1  -7 -16    1.49    0.16 
   1  -7 -16    1.41    0.17 
   1  -6 -16    0.39    0.12 
   1  -6 -16    0.24    0.10 
   1  -5 -16    0.00    0.07 
   1  -5 -16   -0.04    0.08 
   1  -4 -16    0.17    0.08 
   1  -4 -16    0.12    0.08 
   1  -3 -16    0.18    0.08 
   1  -3 -16    0.09    0.06 
   1  -2 -16    0.14    0.08 
   1  -2 -16    0.01    0.04 
  -1   1  16    0.01    0.06 
   1  -1 -16    0.00    0.06 
   1  -1 -16    0.03    0.05 
   1   0 -16    1.72    0.16 
  -1  -1  16    0.06    0.07 
   1   1 -16    0.02    0.08 
  -1  -2  16    0.18    0.08 
   1   2 -16    0.18    0.08 
  -1  -3  16    0.13    0.08 
   1   3 -16    0.00    0.07 
  -1  -4  16    0.10    0.09 
   1   4 -16    0.00    0.08 
  -1  -5  16   -0.07    0.08 
   1   5 -16    0.11    0.08 
  -1  -6  16    0.34    0.12 
   1   6 -16    0.12    0.10 
  -1  -7  16    1.45    0.18 
   1   7 -16    1.41    0.18 
  -1  -8  16    0.39    0.12 
   1   8 -16    0.41    0.12 
  -1  -9  16    0.63    0.14 
  -1 -10  16    0.23    0.12 
  -1 -11  16    0.10    0.11 
  -1 -12  16   -0.08    0.10 
  -1 -13  16    0.11    0.12 
  -1 -14  16    0.02    0.10 
  -1 -15  16   -0.02    0.14 
   2 -15 -16    0.02    0.12 
   2 -15 -16   -0.04    0.13 
   2 -14 -16    0.61    0.16 
   2 -14 -16    0.60    0.17 
   2 -13 -16   -0.15    0.12 
   2 -13 -16    0.14    0.11 
   2 -12 -16    0.08    0.12 
   2 -12 -16    0.17    0.11 
   2 -11 -16    0.44    0.14 
   2 -11 -16    0.60    0.14 
   2 -10 -16    1.69    0.18 
   2 -10 -16    1.35    0.19 
   2  -9 -16    0.85    0.14 
   2  -9 -16    0.97    0.16 
   2  -8 -16    0.73    0.14 
   2  -8 -16    0.62    0.12 
   2  -7 -16    0.04    0.09 
   2  -7 -16    0.05    0.10 
   2  -6 -16    3.21    0.22 
   2  -6 -16    3.09    0.22 
   2  -5 -16    0.06    0.10 
   2  -5 -16    0.21    0.09 
   2  -4 -16   -0.13    0.06 
   2  -4 -16   -0.01    0.07 
   2  -3 -16   -0.02    0.06 
   2  -3 -16   -0.09    0.06 
   2  -2 -16    0.21    0.07 
   2  -2 -16    0.08    0.08 
  -2   1  16    0.07    0.07 
   2  -1 -16    0.09    0.08 
   2  -1 -16    0.18    0.07 
   2   0 -16    2.90    0.21 
  -2  -1  16    0.14    0.07 
   2   1 -16    0.06    0.08 
  -2  -2  16    0.05    0.07 
   2   2 -16    0.15    0.08 
  -2  -3  16   -0.04    0.08 
   2   3 -16   -0.02    0.07 
  -2  -4  16    0.07    0.09 
   2   4 -16    0.02    0.08 
  -2  -5  16    0.15    0.10 
   2   5 -16    0.20    0.10 
  -2  -6  16    3.53    0.25 
   2   6 -16    3.20    0.24 
  -2  -7  16   -0.04    0.09 
   2   7 -16    0.23    0.11 
  -2  -8  16    0.62    0.14 
   2   8 -16    0.71    0.15 
  -2  -9  16    0.91    0.17 
   2   9 -16    1.21    0.18 
  -2 -10  16    1.30    0.20 
  -2 -11  16    0.42    0.14 
  -2 -12  16    0.28    0.12 
  -2 -13  16    0.00    0.11 
  -2 -14  16    0.80    0.17 
  -2 -15  16    0.01    0.16 
   3 -15 -16   -0.12    0.12 
   3 -14 -16   -0.18    0.10 
   3 -13 -16    0.22    0.12 
   3 -12 -16    0.11    0.11 
   3 -11 -16    0.24    0.11 
   3 -10 -16    0.13    0.09 
   3  -9 -16    0.62    0.13 
   3  -8 -16    0.28    0.10 
   3  -7 -16    0.77    0.13 
   3  -7 -16    1.05    0.15 
   3  -6 -16    0.14    0.09 
   3  -6 -16    0.14    0.10 
   3  -5 -16    1.34    0.16 
   3  -5 -16    1.36    0.15 
   3  -4 -16    0.02    0.08 
   3  -4 -16    0.13    0.07 
   3  -3 -16    1.31    0.15 
   3  -2 -16    1.28    0.15 
   3  -2 -16    1.52    0.13 
  -3   1  16   -0.05    0.06 
   3  -1 -16    0.00    0.08 
   3   0 -16    7.90    0.39 
  -3  -1  16    0.03    0.06 
   3   1 -16    0.00    0.08 
  -3  -2  16    1.23    0.15 
   3   2 -16    1.62    0.17 
  -3  -3  16    1.35    0.16 
   3   3 -16    1.27    0.16 
  -3  -4  16   -0.01    0.09 
   3   4 -16    0.00    0.07 
  -3  -5  16    1.38    0.17 
   3   5 -16    1.01    0.15 
  -3  -6  16    0.26    0.10 
   3   6 -16    0.14    0.10 
  -3  -7  16    0.90    0.15 
   3   7 -16    0.85    0.15 
  -3  -8  16    0.23    0.11 
   3   8 -16    0.08    0.10 
  -3  -9  16    0.67    0.16 
   3   9 -16    0.88    0.17 
  -3 -10  16    0.06    0.11 
  -3 -11  16    0.02    0.10 
  -3 -12  16    0.18    0.13 
  -3 -13  16    0.29    0.14 
  -3 -14  16    0.22    0.12 
  -3 -15  16   -0.02    0.16 
   4 -15 -16   -0.08    0.12 
   4 -14 -16    0.37    0.14 
   4 -13 -16   -0.08    0.10 
   4 -12 -16    0.00    0.11 
   4 -11 -16    0.40    0.13 
   4 -10 -16    0.31    0.12 
   4  -9 -16    0.39    0.12 
   4  -8 -16    0.02    0.08 
   4  -7 -16    0.00    0.08 
   4  -6 -16    1.26    0.15 
   4  -5 -16    0.11    0.10 
   4  -5 -16   -0.03    0.08 
   4  -4 -16    2.26    0.17 
   4  -4 -16    2.96    0.21 
   4  -3 -16    0.75    0.11 
   4  -3 -16    0.66    0.12 
   4  -2 -16    0.10    0.09 
   4  -1 -16    0.15    0.09 
   4   0 -16    5.46    0.30 
  -4  -1  16    0.23    0.08 
   4   1 -16    0.24    0.10 
  -4  -2  16    0.00    0.07 
   4   2 -16   -0.01    0.08 
  -4  -3  16    0.75    0.13 
   4   3 -16    0.70    0.13 
  -4  -4  16    2.77    0.22 
   4   4 -16    3.09    0.24 
  -4  -5  16    0.12    0.10 
   4   5 -16    0.01    0.09 
  -4  -6  16    0.93    0.16 
   4   6 -16    1.30    0.17 
  -4  -7  16    0.14    0.09 
   4   7 -16   -0.02    0.09 
  -4  -8  16   -0.12    0.08 
   4   8 -16    0.02    0.10 
  -4  -9  16    0.05    0.10 
   4   9 -16   -0.01    0.10 
  -4 -10  16    0.47    0.13 
   4  10 -16    0.34    0.14 
  -4 -11  16    0.55    0.15 
  -4 -12  16   -0.05    0.10 
  -4 -13  16   -0.08    0.11 
  -4 -14  16    0.49    0.15 
  -4 -15  16    0.08    0.15 
   5 -14 -16   -0.03    0.12 
   5 -13 -16   -0.13    0.11 
   5 -12 -16    0.02    0.11 
   5 -11 -16    0.12    0.10 
   5 -10 -16    0.10    0.11 
   5  -9 -16    0.71    0.14 
   5  -8 -16    0.39    0.12 
   5  -7 -16   -0.05    0.08 
   5  -6 -16    1.21    0.16 
   5  -5 -16    0.25    0.10 
   5  -4 -16    0.00    0.05 
   5  -4 -16    0.18    0.09 
   5  -3 -16    0.55    0.12 
   5  -2 -16    0.18    0.09 
   5  -1 -16    0.08    0.09 
   5   0 -16    0.86    0.13 
  -5  -1  16    0.23    0.08 
   5   1 -16    0.06    0.08 
  -5  -2  16    0.26    0.10 
   5   2 -16    0.35    0.10 
  -5  -3  16    0.73    0.14 
   5   3 -16    0.76    0.13 
  -5  -4  16    0.27    0.11 
   5   4 -16    0.07    0.09 
  -5  -5  16   -0.03    0.08 
   5   5 -16    0.00    0.09 
  -5  -6  16    1.32    0.18 
   5   6 -16    1.66    0.19 
  -5  -7  16   -0.02    0.09 
   5   7 -16    0.03    0.09 
  -5  -8  16    0.34    0.12 
   5   8 -16    0.27    0.12 
  -5  -9  16    0.45    0.14 
   5   9 -16    0.67    0.15 
  -5 -10  16    0.15    0.12 
   5  10 -16   -0.01    0.11 
  -5 -11  16   -0.09    0.10 
  -5 -12  16    0.04    0.10 
  -5 -13  16    0.13    0.13 
  -5 -14  16   -0.01    0.11 
   6 -14 -16    0.22    0.14 
   6 -13 -16    0.09    0.13 
   6 -12 -16    0.11    0.13 
   6 -11 -16   -0.05    0.11 
   6 -10 -16    0.23    0.11 
   6  -9 -16   -0.01    0.10 
   6  -8 -16    0.20    0.11 
   6  -7 -16    0.28    0.11 
   6  -6 -16    0.27    0.10 
   6  -5 -16    0.18    0.09 
   6  -4 -16    3.08    0.23 
   6  -3 -16    2.93    0.22 
   6  -2 -16    0.65    0.13 
   6  -1 -16    0.05    0.08 
   6   0 -16    1.20    0.15 
   6   1 -16    0.04    0.08 
   6   1 -16    0.06    0.08 
   6   2 -16    0.46    0.11 
   6   2 -16    0.39    0.10 
   6   3 -16    2.70    0.21 
   6   3 -16    2.89    0.22 
   6   4 -16    3.08    0.24 
   6   4 -16    3.16    0.23 
   6   5 -16    0.30    0.12 
   6   5 -16    0.21    0.12 
   6   6 -16    0.22    0.11 
   6   6 -16    0.30    0.12 
  -6  -7  16    0.32    0.12 
   6   7 -16    0.34    0.13 
  -6  -8  16    0.14    0.10 
   6   8 -16    0.32    0.12 
  -6  -9  16    0.06    0.09 
   6   9 -16    0.02    0.11 
  -6 -10  16    0.24    0.13 
   6  10 -16    0.13    0.13 
  -6 -11  16    0.14    0.12 
  -6 -12  16    0.02    0.11 
  -6 -13  16    0.03    0.11 
  -6 -14  16    0.50    0.15 
   7 -14 -16   -0.05    0.12 
   7 -13 -16   -0.18    0.10 
   7 -12 -16    0.01    0.12 
   7 -11 -16    0.55    0.15 
   7 -10 -16    0.25    0.13 
   7  -9 -16   -0.12    0.09 
   7  -8 -16   -0.02    0.09 
   7  -7 -16   -0.04    0.08 
   7  -6 -16   -0.04    0.09 
   7  -5 -16    1.32    0.17 
   7  -4 -16    1.27    0.16 
   7  -3 -16   -0.09    0.07 
   7  -2 -16    0.13    0.09 
   7  -1 -16    0.46    0.11 
   7   0 -16    0.15    0.09 
   7   0 -16    0.19    0.08 
   7   1 -16    0.80    0.13 
   7   1 -16    0.34    0.11 
   7   2 -16    0.10    0.09 
   7   2 -16    0.25    0.10 
   7   3 -16    0.03    0.08 
   7   3 -16    0.36    0.11 
   7   4 -16    1.07    0.16 
   7   4 -16    1.43    0.18 
   7   5 -16    1.28    0.18 
   7   5 -16    1.31    0.18 
   7   6 -16    0.09    0.10 
   7   6 -16    0.02    0.09 
   7   7 -16   -0.10    0.08 
   7   7 -16    0.00    0.10 
   7   8 -16   -0.11    0.10 
   7   8 -16    0.18    0.12 
   7   9 -16    0.11    0.12 
   7   9 -16    0.06    0.12 
  -7 -10  16    0.22    0.12 
   7  10 -16    0.49    0.16 
  -7 -11  16    0.69    0.16 
  -7 -12  16   -0.07    0.11 
  -7 -13  16    0.03    0.11 
  -7 -14  16    0.27    0.13 
   8 -13 -16    0.29    0.15 
   8 -12 -16    0.10    0.14 
   8 -11 -16   -0.11    0.11 
   8 -10 -16    0.19    0.13 
   8  -9 -16    0.02    0.11 
   8  -8 -16    0.57    0.14 
   8  -7 -16   -0.01    0.09 
   8  -6 -16    0.35    0.12 
   8  -5 -16    0.32    0.11 
   8  -4 -16    1.57    0.18 
   8  -3 -16    1.56    0.17 
   8  -2 -16   -0.01    0.09 
   8  -1 -16    0.34    0.10 
   8   0 -16    0.67    0.13 
   8   1 -16    0.22    0.10 
   8   1 -16    0.34    0.11 
   8   2 -16    0.12    0.09 
   8   2 -16    0.11    0.08 
   8   3 -16    1.57    0.19 
   8   3 -16    1.46    0.18 
   8   4 -16    1.41    0.17 
   8   4 -16    1.36    0.18 
   8   5 -16    0.33    0.12 
   8   5 -16    0.19    0.10 
   8   6 -16    0.25    0.11 
   8   6 -16    0.19    0.11 
   8   7 -16   -0.06    0.10 
   8   7 -16    0.03    0.10 
   8   8 -16    0.68    0.16 
   8   8 -16    0.89    0.18 
   8   9 -16    0.07    0.12 
   8   9 -16    0.26    0.14 
   8  10 -16    0.11    0.14 
   8  10 -16   -0.10    0.11 
   8  11 -16    0.01    0.14 
  -8 -12  16    0.00    0.11 
  -8 -13  16    0.43    0.15 
   9 -13 -16    0.03    0.13 
   9 -12 -16    0.12    0.13 
   9 -11 -16    0.20    0.14 
   9 -10 -16    0.05    0.12 
   9  -9 -16    0.09    0.10 
   9  -8 -16   -0.08    0.09 
   9  -7 -16    0.32    0.12 
   9  -6 -16    0.06    0.09 
   9  -5 -16    0.16    0.10 
   9  -4 -16    0.07    0.10 
   9  -3 -16    0.57    0.13 
   9  -2 -16    0.64    0.13 
   9  -1 -16    0.08    0.09 
   9   0 -16    0.24    0.10 
   9   1 -16    0.18    0.11 
   9   1 -16    0.35    0.11 
   9   2 -16    0.65    0.13 
   9   2 -16    0.88    0.16 
   9   3 -16    0.69    0.13 
   9   3 -16    0.87    0.15 
   9   4 -16    0.05    0.09 
   9   4 -16    0.11    0.10 
   9   5 -16    0.10    0.11 
   9   5 -16    0.25    0.12 
   9   6 -16    0.07    0.11 
   9   6 -16    0.15    0.10 
   9   7 -16    0.38    0.13 
   9   7 -16    0.61    0.16 
   9   8 -16    0.10    0.12 
   9   8 -16    0.07    0.12 
   9   9 -16    0.02    0.13 
   9   9 -16    0.01    0.12 
   9  10 -16   -0.14    0.12 
   9  10 -16    0.04    0.14 
   9  11 -16    0.21    0.17 
   9  12 -16    0.03    0.16 
  10 -12 -16   -0.08    0.12 
  10 -11 -16    0.34    0.13 
  10 -10 -16    0.07    0.11 
  10  -9 -16    0.03    0.10 
  10  -8 -16    0.22    0.12 
  10  -7 -16    1.00    0.16 
  10  -6 -16   -0.03    0.09 
  10  -5 -16    0.01    0.10 
  10  -4 -16    0.43    0.13 
  10  -3 -16    0.64    0.13 
  10  -2 -16    0.06    0.10 
  10  -1 -16    0.12    0.09 
  10   0 -16    0.21    0.10 
  10   1 -16   -0.04    0.08 
  10   1 -16   -0.06    0.08 
  10   2 -16    0.20    0.10 
  10   2 -16    0.03    0.10 
  10   3 -16    0.65    0.14 
  10   3 -16    0.92    0.16 
  10   4 -16    0.72    0.15 
  10   4 -16    0.42    0.12 
  10   5 -16   -0.06    0.10 
  10   5 -16   -0.12    0.09 
  10   6 -16   -0.01    0.10 
  10   6 -16    0.02    0.11 
  10   7 -16    1.10    0.20 
  10   7 -16    1.17    0.18 
  10   8 -16   -0.11    0.11 
  10   8 -16    0.13    0.13 
  10   9 -16    0.00    0.13 
  10   9 -16   -0.11    0.12 
  10  10 -16   -0.05    0.13 
  10  10 -16   -0.02    0.11 
  10  11 -16    0.18    0.18 
  10  12 -16    0.59    0.21 
  11 -11 -16   -0.05    0.11 
  11 -10 -16    0.02    0.10 
  11  -9 -16   -0.05    0.10 
  11  -8 -16    0.03    0.10 
  11  -7 -16    0.17    0.11 
  11  -6 -16    0.09    0.10 
  11  -5 -16   -0.12    0.09 
  11  -4 -16    0.18    0.11 
  11  -3 -16    0.65    0.14 
  11  -2 -16   -0.05    0.09 
  11  -1 -16    0.08    0.10 
  11   0 -16    0.46    0.12 
  11   1 -16    0.46    0.13 
  11   2 -16    0.05    0.10 
  11   2 -16    0.00    0.09 
  11   3 -16    1.01    0.17 
  11   3 -16    0.90    0.15 
  11   4 -16    0.16    0.11 
  11   4 -16    0.30    0.11 
  11   5 -16   -0.10    0.10 
  11   5 -16    0.09    0.12 
  11   6 -16    0.03    0.11 
  11   6 -16   -0.03    0.10 
  11   7 -16    0.29    0.13 
  11   7 -16    0.09    0.13 
  11   8 -16    0.03    0.13 
  11   8 -16    0.04    0.13 
  11   9 -16    0.05    0.13 
  11   9 -16   -0.13    0.13 
  11  10 -16   -0.09    0.15 
  11  10 -16   -0.08    0.12 
  11  11 -16   -0.16    0.15 
  12 -10 -16    0.02    0.11 
  12  -9 -16   -0.09    0.10 
  12  -8 -16   -0.05    0.11 
  12  -7 -16    0.24    0.12 
  12  -6 -16    0.03    0.11 
  12  -5 -16    0.07    0.11 
  12  -4 -16    0.11    0.11 
  12  -3 -16    0.53    0.14 
  12  -2 -16    0.08    0.11 
  12  -1 -16    0.30    0.12 
  12   0 -16    0.04    0.09 
  12   1 -16    0.25    0.12 
  12   2 -16    0.03    0.10 
  12   2 -16    0.10    0.10 
  12   3 -16    0.40    0.13 
  12   3 -16    0.43    0.13 
  12   4 -16    0.01    0.10 
  12   4 -16    0.17    0.12 
  12   5 -16    0.00    0.11 
  12   5 -16   -0.01    0.10 
  12   6 -16    0.02    0.11 
  12   6 -16   -0.07    0.12 
  12   7 -16    0.16    0.15 
  12   7 -16    0.16    0.14 
  12   8 -16    0.02    0.13 
  12   8 -16   -0.07    0.13 
  12   9 -16   -0.05    0.14 
  12   9 -16    0.11    0.15 
  12  10 -16    0.00    0.16 
  13  -9 -16   -0.15    0.10 
  13  -8 -16    0.02    0.11 
  13  -7 -16    0.16    0.12 
  13  -6 -16    0.19    0.13 
  13  -5 -16   -0.03    0.10 
  13  -4 -16    0.26    0.12 
  13  -3 -16    0.18    0.12 
  13  -2 -16    0.01    0.11 
  13  -1 -16   -0.01    0.11 
  13   0 -16    0.17    0.11 
  13   1 -16   -0.06    0.10 
  13   2 -16   -0.13    0.10 
  13   2 -16    0.18    0.12 
  13   3 -16    0.04    0.11 
  13   3 -16    0.22    0.13 
  13   4 -16    0.40    0.15 
  13   4 -16    0.16    0.12 
  13   5 -16   -0.06    0.13 
  13   5 -16    0.08    0.12 
  13   6 -16    0.04    0.13 
  13   6 -16    0.06    0.13 
  13   7 -16    0.41    0.16 
  13   7 -16    0.02    0.14 
  13   8 -16   -0.06    0.15 
  13   9 -16    0.02    0.16 
  14  -7 -16    0.39    0.13 
  14  -6 -16    0.17    0.13 
  14  -5 -16   -0.13    0.11 
  14  -4 -16   -0.04    0.11 
  14  -3 -16    0.12    0.12 
  14  -2 -16    0.16    0.11 
  14  -1 -16    0.40    0.13 
  14   0 -16   -0.10    0.10 
  14   1 -16    0.30    0.13 
  14   2 -16    0.01    0.11 
  14   3 -16    0.19    0.13 
  14   3 -16    0.47    0.15 
  14   4 -16    0.01    0.13 
  14   4 -16    0.02    0.12 
  14   5 -16    0.05    0.14 
  14   5 -16   -0.15    0.12 
  14   6 -16   -0.06    0.13 
  14   7 -16    0.46    0.18 
  15  -5 -16    0.03    0.11 
  15  -4 -16   -0.08    0.11 
  15  -3 -16    0.11    0.12 
  15  -2 -16   -0.13    0.11 
  15  -1 -16    0.09    0.12 
  15   0 -16   -0.15    0.10 
  15   1 -16   -0.02    0.12 
  15   2 -16    0.03    0.12 
  15   3 -16    0.10    0.13 
  15   3 -16   -0.01    0.14 
  15   4 -16    0.37    0.17 
  15   5 -16   -0.06    0.14 
  16  -2 -16    0.05    0.13 
  16  -1 -16    0.00    0.12 
  16   0 -16    0.32    0.15 
  15   3  17    0.24    0.13 
 -15  -3 -17    0.04    0.14 
  15   2  17    0.09    0.11 
 -15  -2 -17    0.16    0.13 
  15   1  17    0.07    0.10 
  15   0  17    0.04    0.10 
  15  -1  17    0.26    0.12 
  15  -2  17    0.23    0.12 
  15  -3  17    0.36    0.12 
 -14  -6 -17    0.06    0.15 
 -14  -5 -17    0.51    0.16 
 -14  -4 -17    0.26    0.15 
  14   3  17    0.08    0.12 
 -14  -3 -17    0.16    0.13 
  14   2  17   -0.10    0.09 
 -14  -2 -17    0.02    0.13 
  14   1  17    0.11    0.11 
 -14  -1 -17    0.22    0.15 
  14   0  17   -0.03    0.10 
  14  -1  17    0.13    0.10 
  14  -2  17    0.12    0.10 
  14  -3  17    0.01    0.10 
  14  -4  17    0.15    0.11 
  14  -5  17    0.77    0.15 
  14  -6  17    0.12    0.11 
 -13  -7 -17   -0.07    0.12 
 -13  -6 -17    0.06    0.13 
 -13  -5 -17    0.16    0.15 
 -13  -4 -17   -0.01    0.13 
  13   3  17    0.13    0.11 
 -13  -3 -17    0.07    0.13 
  13   2  17    0.36    0.12 
 -13  -2 -17    0.03    0.13 
  13   1  17    0.12    0.10 
 -13  -1 -17    0.11    0.13 
  13   0  17    0.00    0.09 
 -13   0 -17    0.19    0.13 
  13  -1  17    0.11    0.10 
  13  -2  17    0.07    0.10 
  13  -3  17   -0.08    0.09 
  13  -4  17   -0.04    0.10 
  13  -5  17    0.19    0.11 
  13  -6  17    0.01    0.10 
  13  -7  17    0.06    0.11 
  13  -8  17    0.22    0.12 
 -12  -9 -17    0.29    0.15 
 -12  -8 -17    0.34    0.15 
 -12  -7 -17    0.00    0.13 
 -12  -6 -17    0.56    0.16 
 -12  -5 -17    0.58    0.17 
 -12  -4 -17    0.27    0.14 
  12   3  17    0.10    0.10 
 -12  -3 -17    0.08    0.13 
  12   2  17    0.06    0.10 
 -12  -2 -17    0.07    0.14 
  12   1  17    0.10    0.10 
 -12  -1 -17   -0.06    0.11 
  12   0  17    0.07    0.08 
 -12   0 -17    0.05    0.12 
  12  -1  17   -0.04    0.09 
  12  -2  17   -0.07    0.09 
  12  -3  17   -0.04    0.10 
  12  -4  17    0.17    0.11 
  12  -5  17    0.50    0.13 
  12  -6  17    0.46    0.13 
  12  -7  17    0.02    0.10 
  12  -8  17    0.29    0.12 
  12  -9  17    0.27    0.13 
 -11 -10 -17    0.10    0.12 
 -11  -9 -17   -0.22    0.10 
 -11  -8 -17    0.33    0.16 
 -11  -7 -17   -0.01    0.12 
 -11  -6 -17    0.07    0.12 
 -11  -5 -17    0.13    0.13 
 -11  -4 -17    0.40    0.15 
  11   3  17    0.00    0.09 
 -11  -3 -17   -0.03    0.11 
  11   2  17    0.26    0.10 
 -11  -2 -17    0.37    0.13 
  11   1  17    0.12    0.09 
 -11  -1 -17    0.09    0.12 
  11   0  17    0.07    0.09 
 -11   0 -17   -0.14    0.09 
  11  -1  17    0.11    0.10 
 -11   1 -17   -0.01    0.11 
  11  -2  17    0.35    0.12 
  11  -3  17    0.03    0.09 
  11  -4  17    0.35    0.12 
  11  -5  17    0.24    0.13 
  11  -6  17    0.08    0.11 
  11  -7  17   -0.02    0.10 
  11  -8  17    0.07    0.10 
  11  -9  17   -0.08    0.09 
  11 -10  17    0.06    0.10 
 -10 -11 -17    0.08    0.13 
 -10 -10 -17    0.00    0.12 
 -10  -9 -17    0.12    0.14 
 -10  -8 -17    0.39    0.16 
 -10  -7 -17    0.16    0.13 
 -10  -6 -17    0.47    0.16 
 -10  -5 -17    0.09    0.12 
 -10  -4 -17    0.48    0.15 
  10   3  17    0.04    0.09 
 -10  -3 -17    0.05    0.12 
  10   2  17    0.12    0.08 
 -10  -2 -17    0.16    0.12 
  10   1  17    0.35    0.10 
 -10  -1 -17    0.25    0.12 
  10   0  17   -0.03    0.07 
 -10   0 -17   -0.06    0.11 
  10  -1  17    0.17    0.09 
 -10   1 -17    0.19    0.12 
  10  -2  17   -0.06    0.08 
  10  -3  17   -0.05    0.09 
  10  -4  17    0.56    0.14 
  10  -5  17    0.01    0.10 
  10  -6  17    0.25    0.12 
  10  -7  17    0.10    0.10 
  10  -8  17    0.15    0.12 
  10  -9  17    0.10    0.11 
  10 -10  17    0.06    0.10 
  10 -11  17    0.22    0.12 
  -9 -11 -17   -0.14    0.12 
  -9 -10 -17    0.01    0.13 
  -9  -9 -17   -0.08    0.12 
  -9  -8 -17    0.06    0.13 
  -9  -7 -17   -0.03    0.12 
  -9  -6 -17    0.32    0.14 
  -9  -5 -17    0.35    0.14 
  -9  -4 -17    0.06    0.10 
  -9  -3 -17    0.03    0.11 
   9   2  17    0.32    0.10 
  -9  -2 -17    0.40    0.14 
   9   1  17    0.14    0.09 
  -9  -1 -17    0.13    0.11 
   9   0  17    0.02    0.08 
  -9   0 -17    0.00    0.10 
   9  -1  17    0.32    0.11 
  -9   1 -17    0.18    0.11 
   9  -2  17    0.39    0.12 
   9  -3  17    0.01    0.09 
   9  -4  17    0.31    0.11 
   9  -5  17    0.34    0.12 
   9  -6  17    0.44    0.13 
   9  -7  17    0.02    0.10 
   9  -8  17    0.14    0.10 
   9  -9  17    0.01    0.11 
   9 -10  17    0.05    0.10 
   9 -11  17    0.14    0.12 
   9 -12  17    0.02    0.09 
  -8 -12 -17    0.13    0.13 
  -8 -11 -17    0.04    0.13 
  -8 -10 -17    0.05    0.12 
  -8  -9 -17   -0.11    0.12 
  -8  -8 -17    0.49    0.16 
  -8  -7 -17    0.18    0.13 
  -8  -6 -17    0.32    0.13 
  -8  -5 -17    0.55    0.15 
  -8  -4 -17    0.24    0.12 
  -8  -3 -17    2.10    0.22 
   8   2  17    0.90    0.13 
  -8  -2 -17    0.98    0.16 
   8   1  17    0.81    0.13 
  -8  -1 -17    0.79    0.15 
   8   0  17    0.08    0.09 
  -8   0 -17   -0.01    0.10 
   8  -1  17    0.91    0.14 
  -8   1 -17    0.85    0.15 
  -8   1 -17    0.91    0.14 
   8  -2  17    0.92    0.15 
  -8   2 -17    1.20    0.17 
   8  -3  17    1.83    0.19 
   8  -4  17    0.25    0.11 
   8  -5  17    0.54    0.13 
   8  -6  17    0.04    0.10 
   8  -7  17    0.09    0.11 
   8  -8  17    0.21    0.12 
   8  -9  17    0.04    0.11 
   8 -10  17    0.09    0.12 
   8 -11  17    0.08    0.10 
   8 -12  17    0.04    0.11 
  -7 -13 -17    0.08    0.13 
  -7 -12 -17    0.09    0.13 
  -7 -11 -17    0.08    0.12 
  -7 -10 -17   -0.03    0.11 
  -7  -9 -17    0.10    0.13 
  -7  -8 -17    0.02    0.11 
  -7  -7 -17    0.04    0.12 
  -7  -6 -17    0.24    0.12 
  -7  -5 -17    0.33    0.12 
  -7  -4 -17    0.06    0.11 
  -7  -3 -17    0.11    0.11 
   7   2  17    0.57    0.12 
  -7  -2 -17    0.53    0.13 
   7   1  17    0.26    0.09 
  -7  -1 -17    0.00    0.10 
  -7  -1 -17    0.08    0.09 
   7   0  17    0.05    0.08 
  -7   0 -17   -0.14    0.07 
  -7   0 -17   -0.07    0.10 
   7  -1  17    0.24    0.10 
  -7   1 -17    0.11    0.10 
  -7   1 -17    0.20    0.10 
   7  -2  17    0.75    0.13 
  -7   2 -17    0.48    0.13 
  -7   2 -17    0.55    0.13 
   7  -3  17    0.19    0.11 
  -7   3 -17    0.17    0.10 
   7  -4  17    0.19    0.10 
   7  -5  17    0.41    0.12 
   7  -6  17    0.13    0.11 
   7  -7  17    0.04    0.10 
   7  -8  17    0.05    0.10 
   7  -9  17   -0.04    0.10 
   7 -10  17   -0.09    0.09 
   7 -11  17   -0.05    0.10 
   7 -12  17    0.37    0.13 
   7 -13  17    0.04    0.11 
  -6 -13 -17    0.18    0.14 
  -6 -12 -17    0.15    0.15 
  -6 -11 -17   -0.08    0.12 
  -6 -10 -17   -0.01    0.11 
  -6  -9 -17   -0.04    0.12 
  -6  -8 -17    0.18    0.12 
  -6  -7 -17    0.23    0.12 
  -6  -6 -17    0.82    0.16 
  -6  -5 -17    0.15    0.11 
  -6  -4 -17    0.34    0.12 
  -6  -3 -17    0.57    0.14 
  -6  -3 -17    0.66    0.12 
   6   2  17    7.50    0.36 
  -6  -2 -17    7.23    0.37 
  -6  -2 -17    6.97    0.38 
   6   1  17    0.05    0.08 
  -6  -1 -17    0.03    0.08 
  -6  -1 -17   -0.04    0.10 
   6   0  17   -0.06    0.08 
  -6   0 -17   -0.04    0.09 
  -6   0 -17    0.09    0.09 
   6  -1  17    0.08    0.09 
  -6   1 -17    0.01    0.08 
  -6   1 -17    0.08    0.10 
   6  -2  17    6.98    0.37 
  -6   2 -17    7.02    0.37 
  -6   2 -17    7.07    0.38 
   6  -3  17    0.67    0.14 
  -6   3 -17    0.81    0.14 
   6  -4  17    0.43    0.12 
  -6   4 -17    0.35    0.11 
   6  -5  17    0.01    0.09 
   6  -6  17    1.13    0.16 
   6  -7  17    0.30    0.11 
   6  -8  17    0.11    0.10 
   6  -9  17    0.03    0.10 
   6 -10  17    0.06    0.11 
   6 -11  17   -0.15    0.09 
   6 -12  17    0.06    0.11 
   6 -13  17    0.29    0.12 
  -5 -13 -17    0.07    0.12 
  -5 -12 -17   -0.02    0.12 
  -5 -11 -17   -0.05    0.11 
  -5 -10 -17    0.04    0.12 
  -5  -9 -17    0.68    0.17 
  -5  -8 -17    0.01    0.11 
  -5  -7 -17   -0.18    0.09 
  -5  -6 -17    0.40    0.13 
  -5  -5 -17    0.55    0.13 
  -5  -5 -17    0.54    0.11 
  -5  -4 -17    0.52    0.13 
  -5  -4 -17    0.61    0.12 
  -5  -3 -17    0.07    0.08 
  -5  -3 -17   -0.07    0.09 
   5   2  17    1.28    0.14 
  -5  -2 -17    1.83    0.18 
  -5  -2 -17    2.19    0.18 
   5   1  17    0.02    0.08 
  -5  -1 -17   -0.04    0.09 
  -5  -1 -17   -0.09    0.08 
   5   0  17    0.02    0.08 
  -5   0 -17   -0.13    0.08 
  -5   0 -17   -0.05    0.08 
   5  -1  17    0.04    0.08 
  -5   1 -17    0.04    0.08 
  -5   1 -17    0.05    0.09 
   5  -2  17    1.77    0.18 
  -5   2 -17    2.16    0.19 
  -5   2 -17    1.84    0.19 
   5  -3  17    0.07    0.09 
  -5   3 -17    0.05    0.09 
   5  -4  17    0.49    0.12 
  -5   4 -17    0.40    0.12 
   5  -5  17    0.60    0.13 
  -5   5 -17    0.69    0.14 
   5  -6  17    0.59    0.13 
   5  -7  17    0.00    0.08 
   5  -8  17   -0.14    0.08 
   5  -9  17    0.74    0.15 
   5 -10  17    0.06    0.10 
   5 -11  17   -0.05    0.10 
   5 -12  17    0.01    0.11 
   5 -13  17    0.05    0.11 
   5 -14  17    0.08    0.17 
  -4 -14 -17    0.02    0.12 
  -4 -13 -17    0.33    0.15 
  -4 -12 -17    0.08    0.12 
  -4 -11 -17    0.39    0.14 
  -4 -10 -17    0.22    0.13 
  -4  -9 -17    0.08    0.11 
  -4  -8 -17    0.14    0.12 
  -4  -7 -17   -0.07    0.10 
  -4  -7 -17    0.04    0.08 
  -4  -6 -17    1.49    0.18 
  -4  -6 -17    2.01    0.17 
  -4  -5 -17    0.05    0.08 
  -4  -5 -17    0.13    0.11 
  -4  -4 -17    0.19    0.11 
  -4  -4 -17    0.25    0.09 
  -4  -3 -17    1.72    0.17 
  -4  -3 -17    2.17    0.19 
  -4  -2 -17    3.00    0.22 
  -4  -2 -17    3.36    0.22 
   4   1  17    0.23    0.08 
  -4  -1 -17    0.16    0.10 
  -4  -1 -17    0.20    0.10 
   4   0  17   -0.06    0.07 
  -4   0 -17   -0.07    0.08 
  -4   0 -17   -0.02    0.08 
   4  -1  17    0.17    0.09 
  -4   1 -17    0.23    0.10 
  -4   1 -17    0.35    0.10 
   4  -2  17    2.71    0.21 
  -4   2 -17    3.13    0.21 
  -4   2 -17    3.01    0.22 
   4  -3  17    2.22    0.20 
  -4   3 -17    2.00    0.20 
   4  -4  17    0.12    0.10 
  -4   4 -17    0.13    0.09 
   4  -5  17    0.04    0.08 
  -4   5 -17   -0.08    0.07 
   4  -6  17    1.70    0.19 
  -4   6 -17    1.77    0.20 
   4  -7  17   -0.08    0.08 
   4  -8  17    0.13    0.10 
   4  -9  17   -0.10    0.08 
   4 -10  17    0.28    0.12 
   4 -11  17    0.57    0.16 
   4 -12  17    0.12    0.12 
   4 -13  17    0.17    0.12 
   4 -14  17   -0.03    0.15 
  -3 -14 -17    0.16    0.13 
  -3 -13 -17    0.35    0.15 
  -3 -12 -17    0.21    0.14 
  -3 -11 -17    0.11    0.13 
  -3 -10 -17    0.25    0.13 
  -3  -9 -17    0.24    0.10 
  -3  -9 -17    0.35    0.13 
  -3  -8 -17    0.05    0.11 
  -3  -8 -17   -0.02    0.08 
  -3  -7 -17    0.53    0.13 
  -3  -7 -17    0.61    0.12 
  -3  -6 -17    0.17    0.08 
  -3  -6 -17    0.06    0.10 
  -3  -5 -17    0.23    0.08 
  -3  -5 -17    0.00    0.10 
  -3  -4 -17    0.11    0.08 
  -3  -4 -17    0.10    0.10 
  -3  -3 -17    0.19    0.10 
  -3  -3 -17    0.14    0.09 
  -3  -2 -17    2.86    0.21 
  -3  -2 -17    3.30    0.22 
   3   1  17    0.34    0.08 
  -3  -1 -17    0.81    0.13 
  -3  -1 -17    0.66    0.12 
   3   0  17    0.08    0.08 
  -3   0 -17   -0.06    0.07 
  -3   0 -17   -0.02    0.08 
   3  -1  17    0.83    0.13 
  -3   1 -17    0.70    0.11 
  -3   1 -17    0.61    0.13 
   3  -2  17    3.06    0.21 
  -3   2 -17    3.06    0.22 
   3  -3  17    0.32    0.10 
  -3   3 -17    0.09    0.09 
   3  -4  17   -0.03    0.08 
  -3   4 -17   -0.02    0.08 
   3  -5  17    0.02    0.08 
  -3   5 -17    0.03    0.09 
   3  -6  17    0.01    0.08 
  -3   6 -17    0.04    0.09 
   3  -7  17    0.45    0.13 
   3  -8  17   -0.08    0.09 
   3  -9  17    0.34    0.13 
   3 -10  17   -0.06    0.10 
   3 -11  17    0.08    0.10 
   3 -12  17   -0.05    0.11 
   3 -13  17    0.08    0.12 
   3 -14  17   -0.09    0.11 
  -2 -14 -17    0.14    0.15 
  -2 -13 -17    0.12    0.14 
  -2 -12 -17    0.76    0.17 
  -2 -11 -17    0.19    0.14 
  -2 -11 -17    0.15    0.10 
  -2 -10 -17    0.18    0.10 
  -2 -10 -17    0.14    0.12 
  -2  -9 -17    0.12    0.09 
  -2  -9 -17    0.12    0.11 
  -2  -8 -17    1.40    0.15 
  -2  -8 -17    1.22    0.18 
  -2  -7 -17   -0.02    0.10 
  -2  -7 -17    0.07    0.08 
  -2  -6 -17    0.06    0.10 
  -2  -6 -17   -0.04    0.08 
  -2  -5 -17    1.09    0.14 
  -2  -5 -17    1.28    0.16 
  -2  -4 -17    0.16    0.10 
  -2  -4 -17    0.23    0.10 
  -2  -3 -17    1.51    0.16 
  -2  -3 -17    1.75    0.17 
  -2  -2 -17    0.03    0.08 
  -2  -2 -17   -0.01    0.08 
  -2  -1 -17    1.34    0.15 
  -2  -1 -17    1.40    0.14 
   2   0  17   -0.01    0.06 
  -2   0 -17    0.03    0.06 
  -2   0 -17   -0.07    0.07 
   2  -1  17    1.66    0.16 
  -2   1 -17    1.15    0.15 
  -2   1 -17    0.86    0.10 
   2  -2  17    0.00    0.08 
  -2   2 -17    0.01    0.08 
   2  -3  17    1.65    0.17 
  -2   3 -17    1.37    0.16 
   2  -4  17    0.33    0.11 
  -2   4 -17    0.12    0.10 
   2  -5  17    1.32    0.17 
  -2   5 -17    1.44    0.17 
   2  -6  17   -0.12    0.07 
  -2   6 -17   -0.06    0.09 
   2  -7  17    0.08    0.09 
  -2   7 -17    0.00    0.09 
   2  -8  17    1.02    0.16 
   2  -9  17    0.02    0.09 
   2 -10  17    0.10    0.10 
   2 -11  17    0.08    0.11 
   2 -12  17    0.80    0.17 
   2 -13  17    0.13    0.12 
   2 -14  17    0.12    0.12 
  -1 -14 -17    0.08    0.13 
  -1 -13 -17    0.00    0.11 
  -1 -13 -17    0.20    0.13 
  -1 -12 -17    0.17    0.11 
  -1 -12 -17   -0.07    0.11 
  -1 -11 -17    0.12    0.10 
  -1 -11 -17    0.19    0.12 
  -1 -10 -17    0.25    0.13 
  -1 -10 -17    0.04    0.09 
  -1  -9 -17    0.00    0.08 
  -1  -9 -17   -0.12    0.09 
  -1  -8 -17    0.26    0.12 
  -1  -8 -17   -0.02    0.08 
  -1  -7 -17    0.01    0.09 
  -1  -7 -17   -0.06    0.07 
  -1  -6 -17   -0.11    0.07 
  -1  -6 -17    0.07    0.10 
  -1  -5 -17    2.54    0.21 
  -1  -5 -17    2.45    0.20 
  -1  -4 -17    0.02    0.07 
  -1  -4 -17   -0.02    0.09 
  -1  -3 -17    1.25    0.15 
  -1  -3 -17    1.26    0.15 
  -1  -2 -17    2.38    0.17 
  -1  -2 -17    2.47    0.19 
   1   1  17    2.42    0.16 
  -1  -1 -17    2.08    0.15 
  -1  -1 -17    2.36    0.18 
   1   0  17    0.01    0.06 
  -1   0 -17   -0.03    0.07 
  -1   0 -17    0.00    0.05 
   1  -1  17    2.06    0.18 
  -1   1 -17    2.44    0.20 
   1  -2  17    2.61    0.20 
  -1   2 -17    2.60    0.22 
   1  -3  17    0.90    0.14 
  -1   3 -17    0.87    0.14 
   1  -4  17    0.04    0.09 
  -1   4 -17   -0.03    0.07 
   1  -5  17    2.46    0.22 
  -1   5 -17    2.35    0.22 
   1  -6  17   -0.03    0.08 
  -1   6 -17    0.05    0.09 
   1  -7  17    0.12    0.10 
  -1   7 -17   -0.05    0.09 
   1  -8  17   -0.07    0.08 
  -1   8 -17    0.03    0.10 
   1  -9  17    0.05    0.10 
   1 -10  17    0.30    0.12 
   1 -11  17    0.32    0.12 
   1 -12  17   -0.09    0.09 
   1 -13  17    0.15    0.12 
   1 -14  17    0.15    0.13 
   0 -14 -17    0.03    0.12 
   0 -14 -17    0.04    0.12 
   0 -13 -17    0.02    0.11 
   0 -13 -17    0.04    0.13 
   0 -12 -17    1.41    0.18 
   0 -12 -17    1.63    0.22 
   0 -11 -17   -0.13    0.09 
   0 -11 -17    0.08    0.12 
   0 -10 -17   -0.06    0.11 
   0 -10 -17   -0.04    0.08 
   0  -9 -17   -0.07    0.10 
   0  -9 -17   -0.04    0.08 
   0  -8 -17    2.16    0.22 
   0  -8 -17    2.11    0.19 
   0  -7 -17   -0.17    0.07 
   0  -7 -17   -0.06    0.09 
   0  -6 -17    0.68    0.14 
   0  -6 -17    0.78    0.13 
   0  -5 -17   -0.03    0.08 
   0  -5 -17    0.12    0.10 
   0  -4 -17    1.46    0.16 
   0  -4 -17    1.37    0.15 
   0  -3 -17   -0.05    0.08 
   0  -3 -17    0.01    0.08 
   0  -2 -17    0.34    0.10 
   0  -2 -17    0.23    0.08 
   0  -1 -17    0.00    0.05 
   0  -1 -17    0.03    0.08 
   0   0  17   -0.03    0.05 
   0   0 -17    0.01    0.07 
   0  -1  17    0.01    0.07 
   0   1 -17    0.06    0.08 
   0  -2  17    0.10    0.09 
   0   2 -17    0.23    0.10 
   0  -3  17   -0.02    0.08 
   0   3 -17   -0.07    0.07 
   0  -4  17    1.43    0.17 
   0   4 -17    1.34    0.17 
   0  -5  17    0.02    0.08 
   0   5 -17    0.03    0.09 
   0  -6  17    0.45    0.12 
   0   6 -17    0.59    0.14 
   0  -7  17   -0.12    0.08 
   0   7 -17   -0.12    0.08 
   0  -8  17    2.14    0.22 
   0   8 -17    2.47    0.24 
   0  -9  17   -0.06    0.09 
   0 -10  17    0.01    0.10 
   0 -11  17    0.08    0.10 
   0 -12  17    1.58    0.21 
   0 -13  17   -0.03    0.11 
   0 -14  17    0.13    0.11 
   1 -14 -17    0.00    0.12 
   1 -14 -17    0.32    0.14 
   1 -13 -17    0.05    0.11 
   1 -13 -17    0.01    0.12 
   1 -12 -17    0.23    0.12 
   1 -12 -17    0.28    0.14 
   1 -11 -17    0.07    0.10 
   1 -11 -17    0.26    0.13 
   1 -10 -17    0.27    0.13 
   1 -10 -17    0.12    0.11 
   1  -9 -17    0.05    0.11 
   1  -9 -17    0.00    0.09 
   1  -8 -17    0.09    0.10 
   1  -8 -17    0.09    0.09 
   1  -7 -17   -0.03    0.09 
   1  -7 -17    0.12    0.09 
   1  -6 -17    0.16    0.09 
   1  -6 -17    0.03    0.10 
   1  -5 -17    2.23    0.20 
   1  -5 -17    2.22    0.19 
   1  -4 -17   -0.03    0.09 
   1  -4 -17   -0.02    0.08 
   1  -3 -17    1.22    0.15 
   1  -3 -17    1.28    0.13 
   1  -2 -17    2.13    0.18 
   1  -1 -17    2.52    0.20 
  -1   0  17   -0.02    0.04 
   1   0 -17   -0.04    0.07 
  -1  -1  17    2.34    0.18 
   1   1 -17    2.55    0.20 
  -1  -2  17    2.30    0.19 
   1   2 -17    2.14    0.19 
  -1  -3  17    1.30    0.16 
   1   3 -17    1.51    0.17 
  -1  -4  17    0.01    0.08 
   1   4 -17   -0.10    0.07 
  -1  -5  17    2.17    0.21 
   1   5 -17    2.43    0.22 
  -1  -6  17    0.09    0.09 
   1   6 -17    0.03    0.09 
  -1  -7  17   -0.04    0.09 
   1   7 -17   -0.03    0.09 
  -1  -8  17    0.14    0.11 
   1   8 -17    0.09    0.10 
  -1  -9  17    0.03    0.09 
   1   9 -17   -0.01    0.11 
  -1 -10  17    0.06    0.11 
  -1 -11  17    0.28    0.13 
  -1 -12  17    0.14    0.12 
  -1 -13  17    0.16    0.12 
  -1 -14  17    0.00    0.09 
   2 -14 -17    0.25    0.15 
   2 -14 -17    0.22    0.14 
   2 -13 -17    0.25    0.15 
   2 -13 -17    0.26    0.13 
   2 -12 -17    0.80    0.18 
   2 -12 -17    0.64    0.15 
   2 -11 -17    0.34    0.12 
   2 -11 -17    0.15    0.12 
   2 -10 -17    0.04    0.09 
   2 -10 -17   -0.02    0.11 
   2  -9 -17    0.13    0.11 
   2  -9 -17    0.10    0.10 
   2  -8 -17    1.34    0.17 
   2  -8 -17    1.26    0.16 
   2  -7 -17    0.00    0.08 
   2  -7 -17    0.13    0.11 
   2  -6 -17    0.03    0.10 
   2  -6 -17   -0.03    0.08 
   2  -5 -17    1.43    0.16 
   2  -5 -17    1.52    0.17 
   2  -4 -17    0.55    0.12 
   2  -4 -17    0.33    0.10 
   2  -3 -17    1.45    0.16 
   2  -2 -17    0.01    0.08 
   2  -1 -17    1.13    0.14 
  -2   0  17   -0.05    0.05 
   2   0 -17   -0.03    0.07 
  -2  -1  17    1.26    0.13 
   2   1 -17    1.21    0.15 
  -2  -2  17    0.07    0.08 
   2   2 -17    0.21    0.10 
  -2  -3  17    1.47    0.17 
   2   3 -17    1.51    0.18 
  -2  -4  17    0.27    0.11 
   2   4 -17    0.30    0.11 
  -2  -5  17    1.30    0.17 
   2   5 -17    1.44    0.18 
  -2  -6  17   -0.09    0.08 
   2   6 -17   -0.07    0.08 
  -2  -7  17    0.07    0.09 
   2   7 -17    0.07    0.10 
  -2  -8  17    1.27    0.19 
   2   8 -17    1.28    0.19 
  -2  -9  17    0.03    0.09 
   2   9 -17   -0.03    0.11 
  -2 -10  17   -0.07    0.10 
  -2 -11  17    0.32    0.12 
  -2 -12  17    0.89    0.18 
  -2 -13  17    0.01    0.12 
  -2 -14  17    0.08    0.11 
   3 -14 -17   -0.16    0.11 
   3 -14 -17   -0.12    0.11 
   3 -13 -17    0.43    0.14 
   3 -13 -17    0.29    0.14 
   3 -12 -17    0.08    0.11 
   3 -12 -17    0.07    0.12 
   3 -11 -17   -0.02    0.10 
   3 -11 -17    0.08    0.12 
   3 -10 -17    0.05    0.10 
   3 -10 -17    0.01    0.11 
   3  -9 -17    0.30    0.12 
   3  -9 -17    0.36    0.12 
   3  -8 -17   -0.04    0.08 
   3  -8 -17   -0.04    0.10 
   3  -7 -17    0.41    0.12 
   3  -7 -17    0.55    0.13 
   3  -6 -17   -0.16    0.07 
   3  -6 -17    0.09    0.09 
   3  -5 -17    0.05    0.08 
   3  -5 -17   -0.01    0.09 
   3  -4 -17   -0.03    0.09 
   3  -4 -17   -0.09    0.07 
   3  -3 -17    0.26    0.10 
   3  -2 -17    2.57    0.20 
   3  -1 -17    0.56    0.11 
  -3   0  17    0.01    0.06 
   3   0 -17    0.08    0.09 
  -3  -1  17    0.84    0.12 
   3   1 -17    0.94    0.14 
  -3  -2  17    3.20    0.22 
   3   2 -17    2.74    0.22 
  -3  -3  17    0.21    0.11 
   3   3 -17    0.22    0.10 
  -3  -4  17    0.02    0.09 
   3   4 -17    0.06    0.09 
  -3  -5  17   -0.05    0.08 
   3   5 -17   -0.02    0.08 
  -3  -6  17    0.02    0.09 
   3   6 -17   -0.02    0.08 
  -3  -7  17    0.43    0.12 
   3   7 -17    0.55    0.14 
  -3  -8  17   -0.06    0.09 
   3   8 -17   -0.01    0.10 
  -3  -9  17    0.01    0.11 
   3   9 -17    0.34    0.13 
  -3 -10  17    0.08    0.11 
  -3 -11  17    0.15    0.11 
  -3 -12  17    0.02    0.11 
  -3 -13  17    0.18    0.13 
  -3 -14  17    0.09    0.13 
   4 -14 -17    0.01    0.13 
   4 -13 -17    0.06    0.12 
   4 -12 -17    0.11    0.12 
   4 -11 -17    0.50    0.13 
   4 -10 -17    0.38    0.13 
   4  -9 -17    0.00    0.09 
   4  -8 -17    0.10    0.10 
   4  -7 -17   -0.01    0.10 
   4  -7 -17    0.01    0.09 
   4  -6 -17    1.95    0.19 
   4  -6 -17    1.61    0.18 
   4  -5 -17    0.06    0.09 
   4  -5 -17   -0.10    0.07 
   4  -4 -17    0.18    0.09 
   4  -3 -17    1.64    0.17 
   4  -2 -17    2.91    0.21 
   4  -1 -17    0.19    0.09 
   4   0 -17   -0.01    0.07 
  -4  -1  17    0.34    0.10 
   4   1 -17    0.27    0.10 
  -4  -2  17    2.69    0.21 
   4   2 -17    2.81    0.22 
  -4  -3  17    1.95    0.19 
   4   3 -17    1.70    0.18 
  -4  -4  17    0.10    0.09 
   4   4 -17    0.07    0.09 
  -4  -5  17   -0.09    0.09 
   4   5 -17   -0.10    0.08 
  -4  -6  17    1.53    0.19 
   4   6 -17    1.57    0.19 
  -4  -7  17    0.02    0.09 
   4   7 -17   -0.09    0.09 
  -4  -8  17    0.11    0.10 
   4   8 -17    0.11    0.12 
  -4  -9  17   -0.02    0.10 
   4   9 -17   -0.09    0.10 
  -4 -10  17    0.31    0.13 
   4  10 -17    0.00    0.12 
  -4 -11  17    0.35    0.14 
  -4 -12  17   -0.18    0.10 
  -4 -13  17    0.12    0.13 
  -4 -14  17    0.18    0.13 
   5 -14 -17    0.02    0.14 
   5 -13 -17   -0.05    0.12 
   5 -12 -17    0.17    0.13 
   5 -11 -17    0.09    0.12 
   5 -10 -17    0.06    0.10 
   5  -9 -17    0.60    0.14 
   5  -8 -17   -0.10    0.09 
   5  -7 -17   -0.14    0.08 
   5  -6 -17    0.48    0.12 
   5  -5 -17    0.46    0.12 
   5  -4 -17    0.68    0.13 
   5  -3 -17   -0.09    0.08 
   5  -2 -17    1.97    0.19 
   5  -1 -17    0.01    0.08 
   5   0 -17    0.03    0.08 
  -5  -1  17    0.07    0.09 
   5   1 -17    0.01    0.08 
  -5  -2  17    2.25    0.20 
   5   2 -17    1.95    0.19 
  -5  -3  17    0.14    0.10 
   5   3 -17    0.00    0.08 
  -5  -4  17    0.78    0.14 
   5   4 -17    0.60    0.13 
  -5  -5  17    0.66    0.14 
   5   5 -17    0.40    0.12 
  -5  -6  17    0.54    0.13 
   5   6 -17    0.37    0.12 
  -5  -7  17   -0.02    0.09 
   5   7 -17    0.02    0.10 
  -5  -8  17   -0.04    0.09 
   5   8 -17   -0.05    0.10 
  -5  -9  17    0.42    0.14 
   5   9 -17    0.48    0.15 
  -5 -10  17    0.10    0.11 
   5  10 -17   -0.01    0.11 
  -5 -11  17    0.19    0.12 
  -5 -12  17   -0.02    0.10 
  -5 -13  17    0.29    0.13 
  -5 -14  17    0.33    0.15 
   6 -13 -17    0.08    0.13 
   6 -12 -17   -0.08    0.12 
   6 -11 -17    0.07    0.11 
   6 -10 -17    0.20    0.12 
   6  -9 -17   -0.06    0.09 
   6  -8 -17    0.04    0.10 
   6  -7 -17    0.15    0.10 
   6  -6 -17    0.41    0.12 
   6  -5 -17    0.13    0.10 
   6  -4 -17    0.37    0.11 
   6  -3 -17    0.45    0.12 
   6  -2 -17    6.87    0.37 
   6  -1 -17    0.15    0.10 
   6   0 -17    0.00    0.08 
  -6  -1  17    0.04    0.10 
   6   1 -17   -0.07    0.08 
  -6  -2  17    7.26    0.38 
   6   2 -17    6.86    0.38 
  -6  -3  17    0.53    0.13 
   6   3 -17    0.48    0.12 
  -6  -4  17    0.28    0.11 
   6   4 -17    0.24    0.11 
  -6  -5  17   -0.01    0.10 
   6   5 -17    0.04    0.10 
  -6  -6  17    0.94    0.17 
   6   6 -17    0.74    0.16 
  -6  -7  17    0.02    0.10 
   6   7 -17    0.27    0.12 
  -6  -8  17   -0.03    0.09 
   6   8 -17    0.15    0.11 
  -6  -9  17   -0.02    0.10 
   6   9 -17    0.13    0.12 
  -6 -10  17    0.15    0.13 
   6  10 -17    0.13    0.15 
  -6 -11  17   -0.01    0.11 
  -6 -12  17   -0.06    0.10 
  -6 -13  17    0.24    0.13 
   7 -13 -17   -0.07    0.13 
   7 -12 -17    0.32    0.15 
   7 -11 -17    0.11    0.13 
   7 -10 -17   -0.02    0.12 
   7  -9 -17   -0.07    0.10 
   7  -8 -17    0.05    0.10 
   7  -7 -17    0.03    0.10 
   7  -6 -17    0.16    0.11 
   7  -5 -17    0.15    0.10 
   7  -4 -17    0.02    0.09 
   7  -3 -17    0.07    0.09 
   7  -2 -17    0.26    0.11 
   7  -1 -17    0.11    0.09 
   7   0 -17   -0.07    0.08 
   7   1 -17    0.07    0.09 
   7   1 -17    0.10    0.09 
   7   2 -17    0.63    0.14 
   7   2 -17    0.48    0.12 
   7   3 -17    0.11    0.09 
   7   3 -17    0.10    0.09 
   7   4 -17    0.05    0.09 
   7   4 -17    0.07    0.09 
   7   5 -17    0.22    0.11 
   7   5 -17    0.15    0.11 
   7   6 -17    0.08    0.11 
   7   6 -17    0.15    0.11 
   7   7 -17    0.04    0.10 
   7   7 -17    0.17    0.11 
  -7  -8  17    0.18    0.11 
   7   8 -17    0.30    0.13 
  -7  -9  17    0.00    0.10 
   7   9 -17   -0.09    0.11 
  -7 -10  17   -0.04    0.10 
   7  10 -17    0.08    0.12 
  -7 -11  17    0.04    0.12 
  -7 -12  17    0.38    0.14 
  -7 -13  17    0.14    0.12 
   8 -12 -17    0.24    0.14 
   8 -11 -17    0.05    0.12 
   8 -10 -17    0.02    0.12 
   8  -9 -17   -0.02    0.11 
   8  -8 -17    0.37    0.13 
   8  -7 -17   -0.02    0.10 
   8  -6 -17    0.13    0.10 
   8  -5 -17    0.42    0.12 
   8  -4 -17    0.31    0.12 
   8  -3 -17    1.49    0.18 
   8  -2 -17    1.00    0.15 
   8  -1 -17    0.70    0.14 
   8   0 -17    0.02    0.09 
   8   1 -17    0.59    0.13 
   8   2 -17    0.76    0.14 
   8   2 -17    1.28    0.17 
   8   3 -17    2.09    0.22 
   8   3 -17    1.95    0.20 
   8   4 -17    0.40    0.12 
   8   4 -17    0.32    0.12 
   8   5 -17    0.56    0.14 
   8   5 -17    0.34    0.12 
   8   6 -17    0.06    0.11 
   8   6 -17    0.11    0.11 
   8   7 -17    0.03    0.11 
   8   7 -17    0.31    0.13 
   8   8 -17    0.28    0.13 
   8   8 -17    0.27    0.14 
   8   9 -17   -0.13    0.11 
   8   9 -17   -0.08    0.12 
   8  10 -17    0.12    0.13 
   8  10 -17    0.27    0.16 
  -8 -11  17    0.10    0.12 
  -8 -12  17    0.17    0.13 
   9 -12 -17    0.05    0.14 
   9 -11 -17   -0.07    0.12 
   9 -10 -17    0.07    0.14 
   9  -9 -17    0.01    0.12 
   9  -8 -17    0.17    0.11 
   9  -7 -17   -0.06    0.09 
   9  -6 -17    0.15    0.11 
   9  -5 -17    0.39    0.13 
   9  -4 -17    0.10    0.10 
   9  -3 -17   -0.05    0.09 
   9  -2 -17    0.20    0.11 
   9  -1 -17    0.09    0.10 
   9   0 -17   -0.02    0.09 
   9   1 -17    0.18    0.10 
   9   2 -17    0.36    0.12 
   9   2 -17    0.51    0.13 
   9   3 -17    0.07    0.11 
   9   3 -17   -0.08    0.08 
   9   4 -17    0.21    0.11 
   9   4 -17    0.15    0.10 
   9   5 -17    0.46    0.13 
   9   5 -17    0.50    0.15 
   9   6 -17    0.37    0.14 
   9   6 -17    0.50    0.14 
   9   7 -17   -0.03    0.10 
   9   7 -17   -0.11    0.10 
   9   8 -17    0.11    0.13 
   9   8 -17    0.14    0.12 
   9   9 -17    0.03    0.14 
   9   9 -17    0.22    0.15 
   9  10 -17    0.08    0.13 
   9  10 -17   -0.06    0.14 
   9  11 -17    0.00    0.15 
   9  11 -17    0.05    0.14 
  -9 -12  17    0.20    0.13 
  10 -11 -17   -0.01    0.12 
  10 -10 -17   -0.02    0.10 
  10  -9 -17    0.05    0.11 
  10  -8 -17    0.28    0.13 
  10  -7 -17    0.00    0.10 
  10  -6 -17    0.30    0.13 
  10  -5 -17    0.00    0.10 
  10  -4 -17    0.57    0.14 
  10  -3 -17    0.05    0.10 
  10  -2 -17    0.04    0.09 
  10  -1 -17    0.10    0.10 
  10   0 -17    0.00    0.09 
  10   1 -17    0.35    0.12 
  10   2 -17    0.07    0.10 
  10   2 -17   -0.09    0.09 
  10   3 -17   -0.13    0.09 
  10   3 -17    0.02    0.09 
  10   4 -17    0.36    0.13 
  10   4 -17    0.55    0.15 
  10   5 -17   -0.05    0.11 
  10   5 -17    0.05    0.11 
  10   6 -17    0.40    0.14 
  10   6 -17    0.35    0.14 
  10   7 -17   -0.09    0.12 
  10   7 -17    0.10    0.12 
  10   8 -17    0.14    0.13 
  10   8 -17    0.05    0.13 
  10   9 -17    0.03    0.15 
  10   9 -17    0.05    0.13 
  10  10 -17   -0.05    0.14 
  10  10 -17   -0.11    0.15 
  10  11 -17   -0.02    0.16 
  10  11 -17    0.15    0.15 
  11 -10 -17   -0.12    0.10 
  11  -9 -17   -0.08    0.10 
  11  -8 -17    0.03    0.10 
  11  -7 -17   -0.10    0.09 
  11  -6 -17    0.25    0.12 
  11  -5 -17    0.05    0.10 
  11  -4 -17    0.30    0.12 
  11  -3 -17    0.09    0.11 
  11  -2 -17    0.19    0.11 
  11  -1 -17   -0.11    0.09 
  11   0 -17    0.08    0.10 
  11   1 -17   -0.07    0.10 
  11   2 -17    0.23    0.12 
  11   3 -17    0.06    0.10 
  11   3 -17   -0.18    0.09 
  11   4 -17    0.27    0.13 
  11   4 -17    0.30    0.12 
  11   5 -17    0.08    0.12 
  11   5 -17    0.14    0.12 
  11   6 -17    0.18    0.13 
  11   6 -17    0.07    0.14 
  11   7 -17    0.10    0.12 
  11   7 -17    0.10    0.14 
  11   8 -17    0.14    0.15 
  11   8 -17   -0.04    0.13 
  11   9 -17   -0.07    0.12 
  11   9 -17   -0.03    0.14 
  11  10 -17   -0.11    0.13 
  11  10 -17   -0.07    0.14 
  12  -9 -17    0.06    0.11 
  12  -8 -17    0.26    0.13 
  12  -7 -17    0.00    0.10 
  12  -6 -17    0.27    0.13 
  12  -5 -17    0.52    0.14 
  12  -4 -17    0.39    0.13 
  12  -3 -17    0.00    0.10 
  12  -2 -17    0.08    0.11 
  12  -1 -17   -0.02    0.09 
  12   0 -17   -0.04    0.10 
  12   1 -17    0.08    0.11 
  12   2 -17    0.05    0.11 
  12   3 -17   -0.02    0.11 
  12   3 -17    0.14    0.12 
  12   4 -17   -0.03    0.10 
  12   4 -17    0.20    0.13 
  12   5 -17    0.27    0.14 
  12   5 -17    0.45    0.15 
  12   6 -17    0.15    0.14 
  12   6 -17    0.35    0.14 
  12   7 -17   -0.03    0.14 
  12   7 -17    0.04    0.12 
  12   8 -17   -0.02    0.14 
  12   8 -17    0.02    0.15 
  12   9 -17   -0.03    0.15 
  12   9 -17   -0.14    0.14 
  13  -8 -17    0.19    0.12 
  13  -7 -17    0.06    0.12 
  13  -6 -17    0.03    0.12 
  13  -5 -17    0.09    0.12 
  13  -4 -17    0.19    0.12 
  13  -3 -17   -0.02    0.10 
  13  -2 -17    0.08    0.11 
  13  -1 -17   -0.03    0.10 
  13   0 -17   -0.11    0.10 
  13   1 -17    0.05    0.11 
  13   2 -17    0.05    0.12 
  13   3 -17   -0.02    0.12 
  13   3 -17   -0.10    0.11 
  13   4 -17    0.04    0.12 
  13   4 -17   -0.01    0.13 
  13   5 -17    0.14    0.13 
  13   5 -17    0.15    0.15 
  13   6 -17    0.03    0.16 
  13   6 -17   -0.01    0.12 
  13   7 -17   -0.01    0.13 
  13   7 -17    0.14    0.15 
  13   8 -17    0.01    0.15 
  14  -6 -17   -0.04    0.12 
  14  -5 -17    0.59    0.16 
  14  -4 -17   -0.12    0.10 
  14  -3 -17   -0.06    0.11 
  14  -2 -17   -0.17    0.10 
  14  -1 -17    0.06    0.12 
  14   0 -17    0.09    0.12 
  14   1 -17    0.04    0.11 
  14   2 -17    0.24    0.14 
  14   3 -17   -0.03    0.11 
  14   4 -17   -0.01    0.13 
  14   4 -17    0.04    0.13 
  14   5 -17    0.66    0.20 
  14   5 -17    0.56    0.16 
  14   6 -17    0.05    0.16 
  15  -3 -17   -0.08    0.11 
  15  -2 -17   -0.04    0.11 
  15  -1 -17   -0.07    0.11 
  15   0 -17    0.11    0.12 
  15   1 -17    0.04    0.13 
  15   2 -17   -0.07    0.12 
  15   3 -17    0.05    0.13 
 -14  -3 -18    0.01    0.13 
  14   2  18    0.15    0.12 
 -14  -2 -18    0.10    0.14 
  14   1  18    0.23    0.11 
 -14  -1 -18    0.22    0.14 
  14   0  18    0.21    0.11 
  14  -1  18    0.09    0.10 
  14  -2  18    0.22    0.10 
  14  -3  18   -0.08    0.09 
  14  -4  18    0.10    0.09 
 -13  -6 -18    0.21    0.14 
 -13  -5 -18    0.21    0.16 
 -13  -4 -18    0.06    0.13 
 -13  -3 -18    0.03    0.13 
  13   2  18    0.05    0.12 
 -13  -2 -18    0.17    0.13 
  13   1  18    0.12    0.11 
 -13  -1 -18    0.17    0.14 
  13   0  18    0.44    0.13 
 -13   0 -18    0.40    0.15 
  13  -1  18    0.18    0.11 
  13  -2  18    0.03    0.09 
  13  -3  18    0.12    0.10 
  13  -4  18    0.30    0.12 
  13  -5  18    0.05    0.10 
  13  -6  18    0.20    0.11 
 -12  -7 -18    0.04    0.13 
 -12  -6 -18    0.34    0.16 
 -12  -5 -18    0.00    0.12 
 -12  -4 -18    0.10    0.14 
 -12  -3 -18   -0.16    0.10 
  12   2  18    0.24    0.11 
 -12  -2 -18    0.10    0.12 
  12   1  18    0.31    0.12 
 -12  -1 -18    0.06    0.12 
  12   0  18    0.17    0.10 
 -12   0 -18    0.08    0.12 
  12  -1  18   -0.01    0.09 
  12  -2  18    0.18    0.11 
  12  -3  18    0.14    0.11 
  12  -4  18    0.11    0.11 
  12  -5  18   -0.07    0.10 
  12  -6  18    0.37    0.13 
  12  -7  18   -0.03    0.10 
  12  -8  18    0.06    0.10 
 -11  -9 -18    0.17    0.15 
 -11  -8 -18    0.12    0.14 
 -11  -7 -18    0.06    0.12 
 -11  -6 -18    0.60    0.18 
 -11  -5 -18   -0.10    0.12 
 -11  -4 -18    0.17    0.13 
 -11  -3 -18   -0.03    0.12 
  11   2  18    0.06    0.11 
 -11  -2 -18    0.08    0.13 
  11   1  18    0.17    0.11 
 -11  -1 -18    0.18    0.14 
  11   0  18    0.31    0.11 
 -11   0 -18    0.23    0.14 
  11  -1  18    0.22    0.11 
 -11   1 -18    0.27    0.13 
  11  -2  18    0.15    0.11 
  11  -3  18   -0.12    0.09 
  11  -4  18    0.15    0.11 
  11  -5  18    0.06    0.10 
  11  -6  18    0.32    0.12 
  11  -7  18    0.30    0.13 
  11  -8  18    0.26    0.11 
  11  -9  18    0.01    0.10 
 -10 -10 -18    0.24    0.15 
 -10  -9 -18    0.19    0.14 
 -10  -8 -18    0.09    0.13 
 -10  -7 -18    0.41    0.16 
 -10  -6 -18    0.38    0.15 
 -10  -5 -18    0.25    0.14 
 -10  -4 -18   -0.03    0.12 
 -10  -3 -18   -0.09    0.10 
  10   2  18    0.04    0.09 
 -10  -2 -18   -0.06    0.11 
  10   1  18    0.09    0.08 
 -10  -1 -18    0.12    0.12 
  10   0  18    0.03    0.09 
 -10   0 -18    0.11    0.11 
  10  -1  18   -0.02    0.09 
 -10   1 -18   -0.09    0.11 
  10  -2  18    0.11    0.10 
  10  -3  18    0.19    0.11 
  10  -4  18    0.02    0.09 
  10  -5  18   -0.03    0.09 
  10  -6  18    0.58    0.14 
  10  -7  18    0.22    0.12 
  10  -8  18    0.11    0.10 
  10  -9  18    0.15    0.11 
  10 -10  18    0.05    0.12 
  -9 -10 -18    0.22    0.13 
  -9  -9 -18    0.20    0.13 
  -9  -8 -18   -0.06    0.11 
  -9  -7 -18    0.70    0.17 
  -9  -6 -18    0.52    0.16 
  -9  -5 -18   -0.05    0.12 
  -9  -4 -18    0.10    0.12 
  -9  -3 -18    0.41    0.14 
  -9  -2 -18    0.01    0.12 
   9   1  18    0.28    0.09 
  -9  -1 -18    0.33    0.14 
   9   0  18    0.17    0.09 
  -9   0 -18    0.14    0.12 
   9  -1  18    0.32    0.11 
  -9   1 -18    0.27    0.13 
   9  -2  18    0.08    0.10 
   9  -3  18    0.12    0.10 
   9  -4  18    0.30    0.12 
   9  -5  18    0.11    0.10 
   9  -6  18    0.49    0.14 
   9  -7  18    0.61    0.14 
   9  -8  18    0.22    0.12 
   9  -9  18    0.09    0.11 
   9 -10  18    0.12    0.10 
   9 -11  18    0.40    0.14 
  -8 -11 -18    0.18    0.14 
  -8 -10 -18    0.19    0.13 
  -8  -9 -18    0.09    0.13 
  -8  -8 -18    0.42    0.15 
  -8  -7 -18    0.11    0.14 
  -8  -6 -18   -0.07    0.11 
  -8  -5 -18    0.09    0.12 
  -8  -4 -18    0.06    0.11 
  -8  -3 -18    0.08    0.11 
  -8  -2 -18    0.15    0.11 
   8   1  18    0.08    0.08 
  -8  -1 -18    0.05    0.10 
   8   0  18    0.19    0.09 
  -8   0 -18    0.28    0.12 
   8  -1  18    0.13    0.09 
  -8   1 -18    0.03    0.10 
   8  -2  18   -0.01    0.09 
  -8   2 -18   -0.03    0.10 
   8  -3  18    0.15    0.10 
   8  -4  18    0.00    0.09 
   8  -5  18    0.01    0.09 
   8  -6  18    0.03    0.10 
   8  -7  18    0.11    0.10 
   8  -8  18    0.29    0.12 
   8  -9  18    0.06    0.11 
   8 -10  18    0.15    0.12 
   8 -11  18    0.14    0.12 
  -7 -12 -18    0.18    0.15 
  -7 -11 -18    0.09    0.14 
  -7 -10 -18   -0.01    0.12 
  -7  -9 -18    0.19    0.12 
  -7  -8 -18    0.15    0.13 
  -7  -7 -18    1.02    0.18 
  -7  -6 -18   -0.15    0.11 
  -7  -5 -18    0.02    0.11 
  -7  -4 -18    0.12    0.12 
  -7  -3 -18    0.72    0.15 
  -7  -2 -18   -0.09    0.10 
   7   1  18    0.31    0.10 
  -7  -1 -18    0.24    0.11 
   7   0  18    0.21    0.10 
  -7   0 -18    0.28    0.11 
  -7   0 -18    0.13    0.10 
   7  -1  18    0.06    0.09 
  -7   1 -18    0.25    0.11 
  -7   1 -18    0.23    0.11 
   7  -2  18    0.12    0.09 
  -7   2 -18    0.03    0.10 
  -7   2 -18    0.11    0.10 
   7  -3  18    0.79    0.14 
  -7   3 -18    0.59    0.14 
   7  -4  18    0.16    0.11 
   7  -5  18    0.07    0.09 
   7  -6  18    0.19    0.12 
   7  -7  18    1.08    0.18 
   7  -8  18    0.04    0.10 
   7  -9  18    0.14    0.11 
   7 -10  18    0.12    0.12 
   7 -11  18   -0.13    0.08 
   7 -12  18    0.04    0.11 
  -6 -12 -18   -0.03    0.12 
  -6 -11 -18    0.33    0.15 
  -6 -10 -18    0.06    0.13 
  -6  -9 -18    0.20    0.14 
  -6  -8 -18    0.11    0.13 
  -6  -7 -18    0.19    0.12 
  -6  -6 -18    0.05    0.10 
  -6  -5 -18   -0.09    0.10 
  -6  -4 -18    1.23    0.18 
  -6  -3 -18    0.52    0.13 
  -6  -3 -18    0.38    0.13 
  -6  -2 -18    0.43    0.12 
  -6  -2 -18    0.37    0.13 
   6   1  18    0.13    0.09 
  -6  -1 -18    0.05    0.10 
  -6  -1 -18    0.00    0.09 
   6   0  18    0.04    0.08 
  -6   0 -18    0.10    0.11 
  -6   0 -18    0.19    0.11 
   6  -1  18    0.22    0.09 
  -6   1 -18    0.07    0.10 
  -6   1 -18    0.05    0.10 
   6  -2  18    0.30    0.11 
  -6   2 -18    0.37    0.12 
  -6   2 -18    0.19    0.11 
   6  -3  18    0.53    0.12 
  -6   3 -18    0.37    0.12 
   6  -4  18    1.61    0.19 
  -6   4 -18    1.42    0.18 
   6  -5  18    0.04    0.10 
   6  -6  18   -0.09    0.08 
   6  -7  18    0.24    0.12 
   6  -8  18    0.12    0.11 
   6  -9  18    0.04    0.11 
   6 -10  18    0.02    0.10 
   6 -11  18    0.10    0.12 
   6 -12  18   -0.04    0.10 
  -5 -13 -18    1.28    0.21 
  -5 -12 -18    0.14    0.14 
  -5 -11 -18    0.00    0.12 
  -5 -10 -18    0.07    0.12 
  -5  -9 -18    0.07    0.12 
  -5  -8 -18    0.20    0.13 
  -5  -7 -18    0.57    0.15 
  -5  -6 -18    0.11    0.11 
  -5  -5 -18   -0.08    0.10 
  -5  -5 -18    0.08    0.09 
  -5  -4 -18    0.49    0.12 
  -5  -4 -18    0.15    0.11 
  -5  -3 -18    0.54    0.12 
  -5  -3 -18    0.62    0.14 
  -5  -2 -18    1.38    0.16 
  -5  -2 -18    1.15    0.16 
   5   1  18   -0.11    0.08 
  -5  -1 -18   -0.07    0.09 
  -5  -1 -18   -0.16    0.08 
   5   0  18    1.43    0.16 
  -5   0 -18    1.48    0.17 
  -5   0 -18    1.43    0.17 
   5  -1  18    0.02    0.07 
  -5   1 -18   -0.01    0.10 
  -5   1 -18    0.01    0.09 
   5  -2  18    1.32    0.16 
  -5   2 -18    1.15    0.16 
  -5   2 -18    1.34    0.17 
   5  -3  18    0.68    0.13 
  -5   3 -18    0.69    0.14 
   5  -4  18    0.37    0.11 
  -5   4 -18    0.30    0.11 
   5  -5  18    0.06    0.10 
  -5   5 -18    0.11    0.10 
   5  -6  18    0.02    0.09 
   5  -7  18    0.31    0.11 
   5  -8  18    0.11    0.11 
   5  -9  18   -0.02    0.10 
   5 -10  18    0.05    0.11 
   5 -11  18   -0.01    0.10 
   5 -12  18    0.03    0.11 
   5 -13  18    1.36    0.21 
  -4 -13 -18    0.03    0.13 
  -4 -12 -18   -0.02    0.12 
  -4 -11 -18    0.02    0.12 
  -4 -10 -18    0.10    0.12 
  -4  -9 -18   -0.09    0.12 
  -4  -8 -18    0.27    0.13 
  -4  -7 -18   -0.03    0.08 
  -4  -7 -18    0.01    0.11 
  -4  -6 -18    0.16    0.12 
  -4  -6 -18    0.10    0.09 
  -4  -5 -18    0.90    0.14 
  -4  -5 -18    0.73    0.15 
  -4  -4 -18    0.24    0.10 
  -4  -4 -18    0.05    0.10 
  -4  -3 -18    0.20    0.11 
  -4  -3 -18    0.19    0.10 
  -4  -2 -18    0.18    0.10 
  -4  -2 -18    0.00    0.09 
   4   1  18    0.39    0.11 
  -4  -1 -18    0.58    0.13 
  -4  -1 -18    0.53    0.12 
   4   0  18    0.05    0.09 
  -4   0 -18    0.02    0.09 
  -4   0 -18    0.04    0.09 
   4  -1  18    0.64    0.12 
  -4   1 -18    0.47    0.13 
  -4   1 -18    0.40    0.12 
   4  -2  18    0.05    0.08 
  -4   2 -18   -0.01    0.08 
  -4   2 -18    0.06    0.10 
   4  -3  18    0.26    0.11 
  -4   3 -18    0.32    0.11 
   4  -4  18    0.18    0.10 
  -4   4 -18    0.17    0.10 
   4  -5  18    0.91    0.15 
  -4   5 -18    0.89    0.16 
   4  -6  18    0.17    0.10 
  -4   6 -18    0.49    0.13 
   4  -7  18    0.05    0.10 
   4  -8  18    0.16    0.11 
   4  -9  18   -0.09    0.09 
   4 -10  18   -0.06    0.10 
   4 -11  18   -0.03    0.10 
   4 -12  18   -0.02    0.10 
   4 -13  18    0.10    0.10 
  -3 -13 -18    0.34    0.14 
  -3 -12 -18    0.03    0.13 
  -3 -11 -18    0.78    0.18 
  -3 -10 -18    0.12    0.13 
  -3  -9 -18    0.05    0.11 
  -3  -9 -18    0.02    0.09 
  -3  -8 -18    0.04    0.09 
  -3  -8 -18    0.16    0.11 
  -3  -7 -18    1.00    0.14 
  -3  -7 -18    1.20    0.18 
  -3  -6 -18    0.21    0.10 
  -3  -6 -18    0.33    0.13 
  -3  -5 -18    0.27    0.12 
  -3  -5 -18    0.33    0.10 
  -3  -4 -18    0.36    0.12 
  -3  -4 -18    0.42    0.11 
  -3  -3 -18    0.97    0.15 
  -3  -3 -18    1.28    0.15 
  -3  -2 -18    0.56    0.12 
  -3  -2 -18    0.46    0.12 
  -3  -1 -18   -0.10    0.09 
  -3  -1 -18   -0.08    0.09 
   3   0  18    5.55    0.31 
  -3   0 -18    5.82    0.31 
  -3   0 -18    6.24    0.34 
   3  -1  18   -0.01    0.08 
  -3   1 -18    0.02    0.10 
  -3   1 -18    0.09    0.09 
   3  -2  18    0.40    0.11 
  -3   2 -18    0.55    0.12 
   3  -3  18    1.45    0.17 
  -3   3 -18    1.57    0.18 
   3  -4  18    0.54    0.13 
  -3   4 -18    0.57    0.13 
   3  -5  18    0.24    0.11 
  -3   5 -18    0.18    0.11 
   3  -6  18    0.26    0.11 
  -3   6 -18    0.24    0.12 
   3  -7  18    1.03    0.17 
   3  -8  18    0.32    0.12 
   3  -9  18    0.11    0.11 
   3 -10  18   -0.08    0.10 
   3 -11  18    0.52    0.15 
   3 -12  18    0.05    0.12 
   3 -13  18    0.31    0.14 
  -2 -13 -18   -0.07    0.11 
  -2 -12 -18    0.01    0.12 
  -2 -11 -18    0.03    0.12 
  -2 -10 -18   -0.12    0.09 
  -2 -10 -18    0.12    0.12 
  -2  -9 -18   -0.06    0.10 
  -2  -9 -18    0.07    0.10 
  -2  -8 -18    0.19    0.12 
  -2  -8 -18    0.23    0.10 
  -2  -7 -18   -0.03    0.08 
  -2  -7 -18    0.05    0.10 
  -2  -6 -18   -0.04    0.07 
  -2  -6 -18    0.02    0.11 
  -2  -5 -18    0.40    0.11 
  -2  -5 -18    0.24    0.11 
  -2  -4 -18    0.01    0.10 
  -2  -4 -18    0.01    0.08 
  -2  -3 -18    0.12    0.10 
  -2  -3 -18    0.17    0.10 
  -2  -2 -18    0.09    0.09 
  -2  -2 -18    0.04    0.09 
  -2  -1 -18    0.06    0.09 
  -2  -1 -18    0.19    0.10 
   2   0  18    0.14    0.09 
  -2   0 -18    0.10    0.09 
  -2   0 -18    0.04    0.06 
   2  -1  18    0.12    0.09 
  -2   1 -18    0.01    0.09 
   2  -2  18    0.04    0.08 
  -2   2 -18    0.07    0.09 
   2  -3  18    0.05    0.09 
  -2   3 -18    0.18    0.10 
   2  -4  18    0.09    0.10 
  -2   4 -18    0.07    0.09 
   2  -5  18    0.57    0.13 
  -2   5 -18    0.52    0.13 
   2  -6  18   -0.11    0.08 
  -2   6 -18   -0.05    0.09 
   2  -7  18   -0.12    0.08 
  -2   7 -18    0.03    0.11 
   2  -8  18    0.03    0.10 
   2  -9  18   -0.09    0.09 
   2 -10  18    0.00    0.11 
   2 -11  18    0.00    0.10 
   2 -12  18    0.02    0.11 
   2 -13  18    0.05    0.11 
  -1 -13 -18   -0.05    0.13 
  -1 -12 -18   -0.22    0.09 
  -1 -12 -18   -0.07    0.11 
  -1 -11 -18    0.65    0.17 
  -1 -11 -18    0.68    0.14 
  -1 -10 -18    0.14    0.12 
  -1 -10 -18    0.08    0.10 
  -1  -9 -18    0.39    0.12 
  -1  -9 -18    0.61    0.15 
  -1  -8 -18   -0.04    0.08 
  -1  -8 -18    0.06    0.10 
  -1  -7 -18    0.53    0.14 
  -1  -7 -18    0.36    0.11 
  -1  -6 -18    0.11    0.09 
  -1  -6 -18    0.26    0.12 
  -1  -5 -18    1.01    0.14 
  -1  -5 -18    1.32    0.17 
  -1  -4 -18   -0.03    0.09 
  -1  -4 -18   -0.06    0.07 
  -1  -3 -18    2.91    0.22 
  -1  -3 -18    3.41    0.23 
  -1  -2 -18    0.10    0.09 
  -1  -2 -18    0.02    0.08 
  -1  -1 -18    1.98    0.18 
  -1  -1 -18    0.84    0.11 
   1   0  18    1.58    0.16 
  -1   0 -18    1.89    0.18 
   1  -1  18    2.27    0.18 
  -1   1 -18    1.71    0.18 
   1  -2  18    0.10    0.09 
  -1   2 -18   -0.06    0.08 
   1  -3  18    3.18    0.23 
  -1   3 -18    3.09    0.23 
   1  -4  18   -0.01    0.09 
  -1   4 -18   -0.05    0.08 
   1  -5  18    0.84    0.15 
  -1   5 -18    1.31    0.18 
   1  -6  18    0.18    0.10 
  -1   6 -18    0.00    0.09 
   1  -7  18    0.18    0.10 
  -1   7 -18    0.13    0.11 
   1  -8  18    0.08    0.10 
  -1   8 -18    0.16    0.11 
   1  -9  18    0.66    0.15 
   1 -10  18    0.00    0.11 
   1 -11  18    0.41    0.14 
   1 -12  18   -0.08    0.11 
   1 -13  18   -0.01    0.10 
   0 -14 -18    0.05    0.13 
   0 -14 -18    0.05    0.14 
   0 -13 -18   -0.13    0.10 
   0 -13 -18    0.12    0.15 
   0 -12 -18    0.02    0.13 
   0 -12 -18    0.06    0.12 
   0 -11 -18   -0.14    0.10 
   0 -11 -18   -0.04    0.12 
   0 -10 -18    0.14    0.11 
   0 -10 -18    0.03    0.12 
   0  -9 -18    0.03    0.11 
   0  -9 -18    0.11    0.10 
   0  -8 -18    0.09    0.11 
   0  -8 -18    0.05    0.09 
   0  -7 -18    0.02    0.09 
   0  -7 -18    0.03    0.10 
   0  -6 -18    0.13    0.11 
   0  -6 -18    0.13    0.09 
   0  -5 -18   -0.07    0.07 
   0  -5 -18    0.01    0.10 
   0  -4 -18    0.14    0.10 
   0  -4 -18    0.13    0.09 
   0  -3 -18    0.09    0.08 
   0  -3 -18    0.01    0.09 
   0  -2 -18   -0.02    0.07 
   0  -2 -18   -0.08    0.07 
   0  -1 -18    0.05    0.08 
   0   0  18    0.07    0.06 
   0   0 -18    0.47    0.12 
   0  -1  18    0.04    0.09 
   0   1 -18    0.01    0.08 
   0  -2  18   -0.02    0.08 
   0   2 -18    0.10    0.10 
   0  -3  18   -0.06    0.08 
   0   3 -18    0.13    0.09 
   0  -4  18    0.12    0.10 
   0   4 -18    0.02    0.09 
   0  -5  18    0.06    0.10 
   0   5 -18   -0.05    0.09 
   0  -6  18    0.16    0.10 
   0   6 -18    0.05    0.10 
   0  -7  18   -0.07    0.08 
   0   7 -18   -0.11    0.09 
   0  -8  18    0.12    0.10 
   0   8 -18   -0.05    0.11 
   0  -9  18   -0.08    0.09 
   0 -10  18    0.09    0.11 
   0 -11  18   -0.11    0.10 
   0 -12  18    0.15    0.12 
   0 -13  18    0.14    0.12 
   0 -14  18    0.09    0.11 
   1 -14 -18    0.31    0.16 
   1 -13 -18   -0.13    0.13 
   1 -13 -18   -0.07    0.11 
   1 -12 -18   -0.12    0.11 
   1 -12 -18    0.02    0.13 
   1 -11 -18    0.53    0.16 
   1 -11 -18    0.42    0.13 
   1 -10 -18    0.07    0.10 
   1 -10 -18    0.04    0.11 
   1  -9 -18    0.37    0.14 
   1  -9 -18    0.40    0.12 
   1  -8 -18    0.06    0.09 
   1  -8 -18   -0.03    0.09 
   1  -7 -18    0.35    0.11 
   1  -7 -18    0.18    0.12 
   1  -6 -18    0.09    0.09 
   1  -6 -18    0.23    0.11 
   1  -5 -18    1.00    0.14 
   1  -5 -18    1.20    0.16 
   1  -4 -18   -0.04    0.09 
   1  -4 -18    0.12    0.08 
   1  -3 -18    2.99    0.22 
   1  -3 -18    2.74    0.21 
   1  -2 -18   -0.03    0.08 
   1  -1 -18    1.94    0.19 
   1   0 -18    1.56    0.17 
  -1  -1  18    2.27    0.19 
   1   1 -18    1.81    0.18 
  -1  -2  18    0.00    0.09 
   1   2 -18    0.06    0.09 
  -1  -3  18    3.27    0.23 
   1   3 -18    3.49    0.25 
  -1  -4  18   -0.15    0.08 
   1   4 -18    0.01    0.09 
  -1  -5  18    1.01    0.16 
   1   5 -18    0.97    0.16 
  -1  -6  18    0.23    0.10 
   1   6 -18    0.19    0.10 
  -1  -7  18    0.18    0.11 
   1   7 -18    0.31    0.12 
  -1  -8  18    0.02    0.09 
   1   8 -18    0.13    0.11 
  -1  -9  18    0.45    0.13 
   1   9 -18    0.63    0.17 
  -1 -10  18    0.04    0.10 
  -1 -11  18    0.40    0.14 
  -1 -12  18    0.02    0.10 
  -1 -13  18   -0.01    0.11 
   2 -13 -18    0.12    0.14 
   2 -13 -18    0.01    0.12 
   2 -12 -18    0.11    0.13 
   2 -12 -18    0.07    0.12 
   2 -11 -18    0.20    0.13 
   2 -11 -18   -0.08    0.11 
   2 -10 -18    0.13    0.12 
   2 -10 -18    0.06    0.10 
   2  -9 -18   -0.07    0.09 
   2  -9 -18    0.07    0.10 
   2  -8 -18    0.42    0.12 
   2  -8 -18    0.22    0.12 
   2  -7 -18   -0.04    0.10 
   2  -7 -18   -0.04    0.08 
   2  -6 -18   -0.05    0.08 
   2  -6 -18    0.05    0.10 
   2  -5 -18    0.37    0.11 
   2  -5 -18    0.39    0.12 
   2  -4 -18    0.04    0.10 
   2  -4 -18   -0.03    0.08 
   2  -3 -18    0.05    0.08 
   2  -2 -18    0.05    0.08 
   2  -1 -18    0.01    0.08 
   2   0 -18    0.04    0.08 
  -2  -1  18   -0.02    0.08 
   2   1 -18    0.03    0.09 
  -2  -2  18    0.13    0.09 
   2   2 -18   -0.09    0.08 
  -2  -3  18   -0.01    0.09 
   2   3 -18    0.10    0.10 
  -2  -4  18    0.07    0.09 
   2   4 -18    0.04    0.09 
  -2  -5  18    0.45    0.13 
   2   5 -18    0.31    0.11 
  -2  -6  18   -0.03    0.08 
   2   6 -18    0.00    0.09 
  -2  -7  18    0.14    0.10 
   2   7 -18    0.04    0.10 
  -2  -8  18    0.42    0.13 
   2   8 -18    0.25    0.13 
  -2  -9  18    0.00    0.10 
   2   9 -18   -0.08    0.10 
  -2 -10  18    0.13    0.11 
  -2 -11  18   -0.02    0.11 
  -2 -12  18   -0.10    0.10 
  -2 -13  18   -0.03    0.10 
   3 -13 -18    0.09    0.14 
   3 -13 -18   -0.06    0.12 
   3 -12 -18   -0.04    0.12 
   3 -12 -18   -0.05    0.11 
   3 -11 -18    0.43    0.14 
   3 -11 -18    0.33    0.15 
   3 -10 -18   -0.10    0.10 
   3 -10 -18    0.06    0.12 
   3  -9 -18   -0.08    0.09 
   3  -9 -18   -0.03    0.11 
   3  -8 -18    0.12    0.10 
   3  -8 -18    0.05    0.10 
   3  -7 -18    1.27    0.17 
   3  -7 -18    1.06    0.16 
   3  -6 -18    0.29    0.12 
   3  -6 -18    0.16    0.10 
   3  -5 -18    0.58    0.14 
   3  -5 -18    0.37    0.11 
   3  -4 -18    0.38    0.11 
   3  -3 -18    1.19    0.15 
   3  -2 -18    0.60    0.13 
   3  -1 -18   -0.03    0.07 
   3   0 -18    5.69    0.33 
  -3  -1  18   -0.06    0.09 
   3   1 -18   -0.01    0.09 
  -3  -2  18    0.46    0.12 
   3   2 -18    0.28    0.11 
  -3  -3  18    1.09    0.16 
   3   3 -18    1.29    0.17 
  -3  -4  18    0.24    0.11 
   3   4 -18    0.23    0.11 
  -3  -5  18    0.31    0.12 
   3   5 -18    0.35    0.11 
  -3  -6  18    0.25    0.11 
   3   6 -18    0.05    0.10 
  -3  -7  18    1.02    0.17 
   3   7 -18    1.14    0.18 
  -3  -8  18    0.21    0.11 
   3   8 -18    0.16    0.12 
  -3  -9  18    0.07    0.11 
   3   9 -18   -0.06    0.10 
  -3 -10  18   -0.04    0.11 
  -3 -11  18    0.33    0.13 
  -3 -12  18   -0.11    0.11 
  -3 -13  18    0.25    0.13 
   4 -13 -18    0.12    0.13 
   4 -13 -18   -0.07    0.12 
   4 -12 -18    0.01    0.12 
   4 -12 -18   -0.06    0.12 
   4 -11 -18    0.07    0.13 
   4 -11 -18    0.23    0.12 
   4 -10 -18   -0.07    0.11 
   4 -10 -18   -0.03    0.10 
   4  -9 -18   -0.06    0.09 
   4  -9 -18   -0.09    0.10 
   4  -8 -18    0.07    0.10 
   4  -8 -18    0.26    0.12 
   4  -7 -18    0.07    0.10 
   4  -7 -18    0.15    0.10 
   4  -6 -18    0.12    0.10 
   4  -6 -18    0.19    0.12 
   4  -5 -18    0.69    0.13 
   4  -4 -18    0.13    0.10 
   4  -3 -18    0.24    0.11 
   4  -2 -18    0.06    0.09 
   4  -1 -18    0.49    0.12 
   4   0 -18   -0.07    0.08 
  -4  -1  18    0.44    0.12 
   4   1 -18    0.38    0.12 
  -4  -2  18    0.01    0.09 
   4   2 -18    0.01    0.08 
  -4  -3  18    0.25    0.11 
   4   3 -18    0.22    0.11 
  -4  -4  18   -0.07    0.09 
   4   4 -18    0.08    0.10 
  -4  -5  18    0.47    0.13 
   4   5 -18    0.70    0.15 
  -4  -6  18    0.28    0.12 
   4   6 -18    0.23    0.11 
  -4  -7  18   -0.05    0.10 
   4   7 -18   -0.04    0.10 
  -4  -8  18    0.19    0.12 
   4   8 -18    0.27    0.13 
  -4  -9  18    0.18    0.12 
   4   9 -18    0.05    0.11 
  -4 -10  18   -0.06    0.10 
   4  10 -18   -0.05    0.11 
  -4 -11  18    0.17    0.13 
  -4 -12  18   -0.01    0.12 
  -4 -13  18    0.07    0.12 
   5 -13 -18    0.65    0.17 
   5 -12 -18    0.24    0.14 
   5 -11 -18   -0.05    0.11 
   5 -10 -18    0.04    0.11 
   5  -9 -18    0.15    0.11 
   5  -8 -18    0.20    0.12 
   5  -8 -18    0.14    0.11 
   5  -7 -18    0.46    0.14 
   5  -6 -18    0.04    0.10 
   5  -5 -18    0.07    0.09 
   5  -4 -18    0.37    0.12 
   5  -3 -18    0.39    0.11 
   5  -2 -18    0.87    0.14 
   5  -1 -18    0.05    0.09 
   5   0 -18    1.25    0.17 
   5   1 -18   -0.10    0.07 
  -5  -2  18    1.32    0.17 
   5   2 -18    1.29    0.17 
  -5  -3  18    0.55    0.13 
   5   3 -18    0.40    0.12 
  -5  -4  18    0.36    0.12 
   5   4 -18    0.25    0.11 
  -5  -5  18    0.14    0.09 
   5   5 -18    0.00    0.09 
  -5  -6  18   -0.08    0.09 
   5   6 -18    0.06    0.09 
  -5  -7  18    0.15    0.11 
   5   7 -18    0.40    0.14 
  -5  -8  18   -0.07    0.10 
   5   8 -18    0.06    0.11 
  -5  -9  18   -0.03    0.10 
   5   9 -18    0.04    0.11 
  -5 -10  18   -0.12    0.11 
   5  10 -18    0.00    0.12 
  -5 -11  18    0.06    0.11 
  -5 -12  18    0.30    0.14 
  -5 -13  18    1.29    0.22 
   6 -12 -18   -0.02    0.13 
   6 -11 -18    0.23    0.13 
   6 -10 -18    0.24    0.13 
   6  -9 -18   -0.11    0.10 
   6  -8 -18   -0.07    0.10 
   6  -7 -18    0.20    0.11 
   6  -6 -18    0.05    0.10 
   6  -5 -18    0.07    0.09 
   6  -4 -18    1.25    0.17 
   6  -3 -18    0.30    0.11 
   6  -2 -18    0.15    0.10 
   6  -1 -18   -0.10    0.07 
   6   0 -18    0.13    0.09 
   6   1 -18    0.09    0.09 
  -6  -2  18    0.41    0.12 
   6   2 -18    0.43    0.12 
  -6  -3  18    0.32    0.12 
   6   3 -18    0.22    0.11 
  -6  -4  18    1.37    0.18 
   6   4 -18    1.09    0.17 
  -6  -5  18    0.06    0.10 
   6   5 -18    0.00    0.10 
  -6  -6  18    0.10    0.10 
   6   6 -18    0.02    0.10 
  -6  -7  18    0.15    0.11 
   6   7 -18    0.31    0.13 
  -6  -8  18   -0.02    0.11 
   6   8 -18   -0.14    0.10 
  -6  -9  18    0.06    0.11 
   6   9 -18   -0.11    0.10 
  -6 -10  18    0.12    0.11 
   6  10 -18   -0.05    0.12 
  -6 -11  18    0.17    0.12 
  -6 -12  18    0.20    0.11 
   7 -12 -18    0.04    0.14 
   7 -11 -18   -0.05    0.12 
   7 -10 -18    0.11    0.12 
   7  -9 -18    0.07    0.12 
   7  -8 -18   -0.04    0.10 
   7  -7 -18    1.27    0.18 
   7  -6 -18    0.10    0.11 
   7  -5 -18    0.13    0.11 
   7  -4 -18    0.04    0.10 
   7  -3 -18    0.76    0.14 
   7  -2 -18    0.02    0.09 
   7  -1 -18    0.16    0.10 
   7   0 -18    0.06    0.09 
   7   1 -18    0.15    0.09 
  -7  -2  18    0.03    0.10 
   7   2 -18    0.09    0.09 
  -7  -3  18    0.63    0.15 
   7   3 -18    0.60    0.13 
  -7  -4  18    0.11    0.10 
   7   4 -18    0.10    0.10 
  -7  -5  18   -0.08    0.09 
   7   5 -18   -0.04    0.09 
  -7  -6  18    0.12    0.12 
   7   6 -18    0.06    0.11 
  -7  -7  18    1.04    0.19 
   7   7 -18    1.07    0.18 
  -7  -8  18   -0.03    0.11 
   7   8 -18    0.25    0.13 
  -7  -9  18    0.01    0.11 
   7   9 -18    0.09    0.13 
  -7 -10  18    0.16    0.11 
   7  10 -18    0.16    0.14 
  -7 -11  18    0.04    0.12 
  -7 -12  18    0.15    0.13 
   8 -11 -18   -0.02    0.12 
   8 -10 -18    0.15    0.13 
   8  -9 -18    0.13    0.13 
   8  -8 -18    0.04    0.11 
   8  -7 -18    0.04    0.12 
   8  -6 -18   -0.05    0.10 
   8  -5 -18    0.03    0.10 
   8  -4 -18   -0.01    0.09 
   8  -3 -18    0.10    0.09 
   8  -2 -18   -0.08    0.08 
   8  -1 -18    0.04    0.09 
   8   0 -18    0.27    0.11 
   8   1 -18    0.02    0.09 
   8   2 -18    0.00    0.09 
   8   3 -18    0.15    0.10 
   8   3 -18    0.07    0.10 
   8   4 -18    0.06    0.09 
   8   4 -18   -0.04    0.10 
   8   5 -18    0.10    0.12 
   8   5 -18   -0.04    0.09 
   8   6 -18    0.03    0.11 
   8   6 -18    0.02    0.11 
   8   7 -18   -0.07    0.11 
   8   7 -18   -0.03    0.11 
  -8  -8  18    0.31    0.13 
   8   8 -18    0.11    0.13 
  -8  -9  18    0.15    0.13 
   8   9 -18    0.05    0.14 
  -8 -10  18    0.30    0.13 
   8  10 -18    0.08    0.14 
  -8 -11  18    0.06    0.13 
   8  11 -18   -0.17    0.12 
   9 -11 -18    0.05    0.14 
   9 -10 -18   -0.02    0.12 
   9  -9 -18    0.00    0.13 
   9  -8 -18   -0.08    0.09 
   9  -7 -18    0.30    0.12 
   9  -6 -18    0.29    0.12 
   9  -5 -18   -0.07    0.09 
   9  -4 -18    0.35    0.12 
   9  -3 -18    0.24    0.11 
   9  -2 -18    0.19    0.11 
   9  -1 -18    0.07    0.10 
   9   0 -18    0.10    0.09 
   9   1 -18    0.14    0.10 
   9   2 -18    0.13    0.11 
   9   3 -18    0.31    0.12 
   9   3 -18    0.31    0.13 
   9   4 -18    0.33    0.13 
   9   4 -18    0.44    0.14 
   9   5 -18    0.04    0.11 
   9   5 -18   -0.09    0.10 
   9   6 -18    0.28    0.14 
   9   6 -18    0.53    0.14 
   9   7 -18    0.35    0.15 
   9   7 -18    0.63    0.16 
   9   8 -18   -0.03    0.13 
   9   8 -18    0.04    0.12 
   9   9 -18   -0.19    0.13 
   9   9 -18    0.08    0.14 
   9  10 -18    0.05    0.15 
  -9 -11  18    0.30    0.13 
   9  11 -18    0.18    0.16 
  10 -10 -18    0.11    0.12 
  10  -9 -18    0.00    0.11 
  10  -8 -18   -0.01    0.10 
  10  -7 -18    0.23    0.12 
  10  -6 -18    0.43    0.14 
  10  -5 -18    0.02    0.10 
  10  -4 -18    0.04    0.10 
  10  -3 -18    0.11    0.10 
  10  -2 -18    0.08    0.11 
  10  -1 -18   -0.06    0.09 
  10   0 -18   -0.01    0.09 
  10   1 -18    0.00    0.10 
  10   2 -18    0.10    0.11 
  10   3 -18    0.08    0.10 
  10   3 -18    0.09    0.10 
  10   4 -18   -0.04    0.10 
  10   4 -18   -0.16    0.09 
  10   5 -18   -0.01    0.12 
  10   5 -18    0.00    0.11 
  10   6 -18    0.55    0.16 
  10   6 -18    0.77    0.16 
  10   7 -18    0.34    0.16 
  10   7 -18    0.09    0.12 
  10   8 -18   -0.07    0.11 
  10   8 -18    0.19    0.16 
  10   9 -18   -0.01    0.15 
  10   9 -18    0.17    0.14 
  10  10 -18    0.03    0.16 
  10  10 -18    0.21    0.14 
  11  -9 -18    0.28    0.13 
  11  -8 -18    0.02    0.10 
  11  -7 -18    0.28    0.13 
  11  -6 -18    0.52    0.15 
  11  -5 -18   -0.05    0.10 
  11  -4 -18    0.17    0.12 
  11  -3 -18    0.07    0.11 
  11  -2 -18    0.05    0.11 
  11  -1 -18    0.24    0.13 
  11   0 -18    0.04    0.11 
  11   1 -18    0.25    0.13 
  11   2 -18    0.07    0.11 
  11   3 -18   -0.04    0.11 
  11   4 -18    0.06    0.12 
  11   4 -18    0.08    0.11 
  11   5 -18    0.09    0.13 
  11   5 -18    0.03    0.12 
  11   6 -18    0.43    0.15 
  11   6 -18    0.51    0.17 
  11   7 -18    0.26    0.15 
  11   7 -18    0.15    0.13 
  11   8 -18    0.02    0.15 
  11   8 -18   -0.08    0.12 
  11   9 -18   -0.06    0.16 
  11   9 -18   -0.13    0.12 
  12  -8 -18    0.10    0.11 
  12  -7 -18    0.15    0.12 
  12  -6 -18    0.45    0.14 
  12  -5 -18   -0.14    0.10 
  12  -4 -18   -0.10    0.10 
  12  -3 -18    0.03    0.11 
  12  -2 -18    0.11    0.11 
  12  -1 -18   -0.01    0.10 
  12   0 -18   -0.05    0.10 
  12   1 -18   -0.10    0.10 
  12   2 -18    0.07    0.11 
  12   3 -18    0.04    0.11 
  12   4 -18    0.00    0.13 
  12   4 -18    0.01    0.11 
  12   5 -18    0.04    0.12 
  12   5 -18    0.05    0.13 
  12   6 -18    0.17    0.15 
  12   6 -18    0.41    0.15 
  12   7 -18    0.17    0.12 
  12   7 -18    0.11    0.16 
  12   8 -18    0.15    0.17 
  12   8 -18    0.12    0.13 
  13  -6 -18    0.14    0.12 
  13  -5 -18    0.11    0.11 
  13  -4 -18    0.10    0.12 
  13  -3 -18   -0.12    0.10 
  13  -2 -18    0.04    0.10 
  13  -1 -18    0.10    0.11 
  13   0 -18    0.17    0.12 
  13   1 -18   -0.04    0.10 
  13   2 -18    0.07    0.12 
  13   3 -18    0.06    0.12 
  13   4 -18   -0.09    0.14 
  13   4 -18    0.01    0.12 
  13   5 -18   -0.01    0.12 
  13   5 -18   -0.01    0.14 
  13   6 -18    0.09    0.16 
  13   6 -18    0.39    0.16 
  14  -4 -18   -0.22    0.10 
  14  -3 -18    0.13    0.12 
  14  -2 -18    0.04    0.11 
  14  -1 -18    0.04    0.12 
  14   0 -18    0.09    0.12 
  14   1 -18    0.11    0.12 
  14   2 -18   -0.16    0.11 
  14   3 -18    0.10    0.11 
  14   4 -18    0.08    0.13 
 -13  -3 -19    0.05    0.13 
 -13  -2 -19    0.06    0.13 
  13   1  19    0.03    0.11 
 -13  -1 -19    0.20    0.14 
  13   0  19    0.15    0.11 
  13  -1  19    0.06    0.10 
  13  -2  19    0.13    0.10 
  13  -3  19   -0.03    0.09 
  13  -4  19    0.11    0.11 
 -12  -6 -19    0.20    0.15 
 -12  -5 -19    0.08    0.13 
 -12  -4 -19    0.18    0.15 
 -12  -3 -19    0.04    0.12 
 -12  -2 -19    0.15    0.13 
  12   1  19    0.12    0.12 
 -12  -1 -19   -0.19    0.12 
  12   0  19    0.05    0.10 
 -12   0 -19   -0.08    0.12 
  12  -1  19    0.19    0.11 
  12  -2  19    0.14    0.11 
  12  -3  19    0.05    0.10 
  12  -4  19    0.17    0.11 
  12  -5  19    0.27    0.12 
  12  -6  19    0.10    0.10 
 -11  -7 -19   -0.02    0.13 
 -11  -6 -19    0.16    0.15 
 -11  -5 -19    0.15    0.14 
 -11  -4 -19   -0.10    0.12 
 -11  -3 -19    0.02    0.13 
 -11  -2 -19    0.04    0.13 
  11   1  19   -0.02    0.10 
 -11  -1 -19   -0.14    0.11 
  11   0  19   -0.02    0.09 
 -11   0 -19   -0.03    0.11 
  11  -1  19    0.07    0.10 
  11  -2  19    0.11    0.10 
  11  -3  19   -0.07    0.09 
  11  -4  19    0.09    0.11 
  11  -5  19    0.24    0.12 
  11  -6  19   -0.04    0.10 
  11  -7  19   -0.02    0.10 
 -10  -8 -19    0.12    0.13 
 -10  -7 -19   -0.01    0.14 
 -10  -6 -19   -0.05    0.13 
 -10  -5 -19    0.47    0.16 
 -10  -4 -19    0.05    0.13 
 -10  -3 -19   -0.09    0.13 
 -10  -2 -19    0.42    0.15 
  10   1  19    0.07    0.11 
 -10  -1 -19   -0.04    0.12 
  10   0  19    0.05    0.09 
 -10   0 -19    0.14    0.13 
  10  -1  19    0.20    0.11 
 -10   1 -19    0.08    0.13 
  10  -2  19    0.36    0.12 
  10  -3  19    0.06    0.10 
  10  -4  19    0.04    0.10 
  10  -5  19    0.71    0.15 
  10  -6  19    0.11    0.11 
  10  -7  19    0.08    0.10 
  10  -8  19    0.20    0.10 
  -9  -9 -19    0.10    0.13 
  -9  -8 -19   -0.06    0.13 
  -9  -7 -19    0.04    0.14 
  -9  -6 -19   -0.05    0.12 
  -9  -5 -19    0.53    0.16 
  -9  -4 -19   -0.02    0.11 
  -9  -3 -19   -0.02    0.11 
  -9  -2 -19    0.10    0.13 
  -9  -1 -19    0.05    0.12 
   9   0  19    0.01    0.09 
  -9   0 -19   -0.17    0.11 
   9  -1  19    0.13    0.10 
  -9   1 -19    0.17    0.13 
   9  -2  19    0.18    0.11 
   9  -3  19    0.05    0.10 
   9  -4  19    0.00    0.10 
   9  -5  19    0.33    0.14 
   9  -6  19    0.04    0.10 
   9  -7  19   -0.02    0.10 
   9  -8  19    0.14    0.12 
   9  -9  19   -0.02    0.10 
  -8 -10 -19    0.07    0.13 
  -8  -9 -19    0.11    0.14 
  -8  -8 -19   -0.04    0.12 
  -8  -7 -19   -0.10    0.12 
  -8  -6 -19    0.13    0.14 
  -8  -5 -19    0.55    0.16 
  -8  -4 -19    0.06    0.13 
  -8  -3 -19   -0.11    0.11 
  -8  -2 -19    0.20    0.13 
  -8  -1 -19   -0.06    0.10 
   8   0  19   -0.05    0.08 
  -8   0 -19    0.11    0.12 
   8  -1  19    0.06    0.09 
  -8   1 -19    0.00    0.11 
   8  -2  19    0.58    0.13 
   8  -3  19   -0.03    0.10 
   8  -4  19    0.10    0.10 
   8  -5  19    0.55    0.14 
   8  -6  19   -0.01    0.10 
   8  -7  19   -0.06    0.09 
   8  -8  19    0.08    0.11 
   8  -9  19    0.25    0.12 
   8 -10  19    0.07    0.12 
  -7 -11 -19    0.01    0.13 
  -7 -10 -19   -0.03    0.13 
  -7  -9 -19    0.05    0.13 
  -7  -8 -19   -0.16    0.11 
  -7  -7 -19    0.11    0.12 
  -7  -6 -19    0.14    0.13 
  -7  -5 -19    0.56    0.16 
  -7  -4 -19    0.19    0.13 
  -7  -3 -19   -0.13    0.09 
  -7  -2 -19    0.45    0.14 
  -7  -1 -19    0.22    0.13 
   7   0  19    0.03    0.08 
  -7   0 -19    0.02    0.10 
  -7   0 -19    0.03    0.10 
   7  -1  19    0.12    0.10 
  -7   1 -19    0.12    0.11 
  -7   1 -19    0.07    0.10 
   7  -2  19    0.21    0.10 
  -7   2 -19    0.44    0.14 
  -7   2 -19    0.30    0.12 
   7  -3  19    0.07    0.10 
  -7   3 -19    0.08    0.10 
   7  -4  19    0.29    0.12 
   7  -5  19    0.54    0.13 
   7  -6  19   -0.03    0.10 
   7  -7  19    0.24    0.13 
   7  -8  19    0.04    0.10 
   7  -9  19   -0.01    0.10 
   7 -10  19    0.11    0.11 
   7 -11  19    0.17    0.12 
  -6 -11 -19   -0.02    0.12 
  -6 -10 -19   -0.07    0.12 
  -6  -9 -19    0.07    0.12 
  -6  -8 -19    0.00    0.12 
  -6  -7 -19    0.21    0.12 
  -6  -6 -19    0.84    0.17 
  -6  -5 -19    0.08    0.11 
  -6  -4 -19   -0.05    0.11 
  -6  -3 -19    0.10    0.11 
  -6  -2 -19    0.03    0.10 
  -6  -2 -19    0.10    0.10 
  -6  -1 -19    0.20    0.11 
  -6  -1 -19    0.35    0.12 
   6   0  19   -0.04    0.08 
  -6   0 -19   -0.04    0.10 
  -6   0 -19   -0.13    0.08 
   6  -1  19    0.39    0.11 
  -6   1 -19    0.40    0.13 
  -6   1 -19    0.34    0.12 
   6  -2  19    0.02    0.08 
  -6   2 -19    0.14    0.11 
  -6   2 -19    0.03    0.11 
   6  -3  19   -0.16    0.08 
  -6   3 -19   -0.02    0.10 
   6  -4  19    0.02    0.10 
  -6   4 -19    0.11    0.10 
   6  -5  19    0.01    0.10 
   6  -6  19    0.90    0.17 
   6  -7  19   -0.08    0.09 
   6  -8  19   -0.03    0.10 
   6  -9  19    0.12    0.11 
   6 -10  19   -0.02    0.10 
   6 -11  19   -0.06    0.10 
  -5 -12 -19    0.02    0.14 
  -5 -11 -19    0.00    0.12 
  -5 -10 -19    0.02    0.12 
  -5  -9 -19   -0.01    0.12 
  -5  -8 -19    0.10    0.13 
  -5  -7 -19    0.37    0.15 
  -5  -6 -19    0.14    0.11 
  -5  -5 -19    0.07    0.11 
  -5  -4 -19    0.09    0.11 
  -5  -4 -19    0.05    0.10 
  -5  -3 -19    0.36    0.12 
  -5  -3 -19    0.47    0.13 
  -5  -2 -19    0.07    0.10 
  -5  -2 -19    0.07    0.11 
  -5  -1 -19    0.11    0.11 
  -5  -1 -19    0.12    0.10 
   5   0  19    0.16    0.09 
  -5   0 -19   -0.06    0.10 
  -5   0 -19   -0.09    0.09 
   5  -1  19    0.11    0.09 
  -5   1 -19    0.37    0.12 
  -5   1 -19    0.13    0.11 
   5  -2  19    0.00    0.09 
  -5   2 -19    0.02    0.09 
   5  -3  19    0.38    0.11 
  -5   3 -19    0.27    0.12 
   5  -4  19    0.04    0.09 
  -5   4 -19   -0.01    0.09 
   5  -5  19   -0.01    0.09 
  -5   5 -19    0.02    0.09 
   5  -6  19    0.16    0.12 
   5  -7  19    0.24    0.12 
   5  -8  19    0.08    0.11 
   5  -9  19   -0.07    0.10 
   5 -10  19   -0.02    0.10 
   5 -11  19   -0.01    0.11 
   5 -12  19    0.24    0.15 
  -4 -12 -19    0.18    0.13 
  -4 -11 -19   -0.03    0.12 
  -4 -10 -19    0.08    0.14 
  -4  -9 -19   -0.07    0.11 
  -4  -8 -19    0.15    0.12 
  -4  -7 -19    0.14    0.12 
  -4  -6 -19    0.43    0.14 
  -4  -6 -19    0.52    0.12 
  -4  -5 -19    0.52    0.12 
  -4  -5 -19    0.37    0.12 
  -4  -4 -19    0.96    0.16 
  -4  -4 -19    1.18    0.16 
  -4  -3 -19    0.36    0.13 
  -4  -3 -19    0.31    0.11 
  -4  -2 -19    0.05    0.10 
  -4  -2 -19    0.09    0.11 
  -4  -1 -19    0.06    0.10 
  -4  -1 -19   -0.09    0.09 
   4   0  19    0.04    0.09 
  -4   0 -19   -0.03    0.09 
  -4   0 -19    0.04    0.09 
   4  -1  19    0.36    0.11 
  -4   1 -19    0.07    0.09 
   4  -2  19    0.17    0.10 
  -4   2 -19    0.33    0.11 
   4  -3  19    0.50    0.12 
  -4   3 -19    0.50    0.13 
   4  -4  19    1.28    0.17 
  -4   4 -19    1.03    0.17 
   4  -5  19    0.38    0.12 
  -4   5 -19    0.47    0.13 
   4  -6  19    0.41    0.13 
  -4   6 -19    0.50    0.13 
   4  -7  19   -0.08    0.08 
   4  -8  19    0.14    0.11 
   4  -9  19    0.14    0.12 
   4 -10  19   -0.04    0.10 
   4 -11  19   -0.08    0.11 
   4 -12  19    0.10    0.12 
  -3 -12 -19    0.12    0.13 
  -3 -11 -19    0.05    0.12 
  -3 -10 -19    0.09    0.12 
  -3  -9 -19   -0.09    0.11 
  -3  -8 -19   -0.13    0.11 
  -3  -8 -19    0.07    0.10 
  -3  -7 -19    0.09    0.09 
  -3  -7 -19   -0.02    0.12 
  -3  -6 -19    0.01    0.11 
  -3  -6 -19    0.00    0.09 
  -3  -5 -19    0.84    0.15 
  -3  -5 -19    0.62    0.13 
  -3  -4 -19    0.00    0.08 
  -3  -4 -19    0.08    0.11 
  -3  -3 -19    0.71    0.14 
  -3  -3 -19    0.67    0.13 
  -3  -2 -19    0.34    0.10 
  -3  -2 -19    0.18    0.11 
  -3  -1 -19    0.11    0.10 
  -3  -1 -19    0.09    0.11 
  -3   0 -19   -0.02    0.09 
   3  -1  19   -0.09    0.08 
  -3   1 -19   -0.18    0.07 
   3  -2  19    0.04    0.08 
  -3   2 -19    0.21    0.10 
   3  -3  19    0.49    0.12 
  -3   3 -19    0.68    0.15 
   3  -4  19    0.07    0.09 
  -3   4 -19    0.10    0.10 
   3  -5  19    0.67    0.15 
  -3   5 -19    0.80    0.16 
   3  -6  19   -0.10    0.09 
  -3   6 -19   -0.08    0.09 
   3  -7  19    0.04    0.10 
   3  -8  19   -0.11    0.09 
   3  -9  19   -0.03    0.10 
   3 -10  19    0.17    0.12 
   3 -11  19   -0.06    0.10 
   3 -12  19    0.13    0.12 
  -2 -12 -19    0.24    0.13 
  -2 -11 -19    0.09    0.12 
  -2 -10 -19    0.13    0.10 
  -2 -10 -19    0.28    0.14 
  -2  -9 -19    0.12    0.11 
  -2  -9 -19    0.15    0.12 
  -2  -8 -19    0.79    0.16 
  -2  -8 -19    0.74    0.14 
  -2  -7 -19   -0.04    0.11 
  -2  -7 -19    0.04    0.09 
  -2  -6 -19    0.28    0.11 
  -2  -6 -19    0.08    0.11 
  -2  -5 -19    0.13    0.11 
  -2  -5 -19    0.35    0.11 
  -2  -4 -19   -0.09    0.08 
  -2  -4 -19    0.03    0.10 
  -2  -3 -19    0.16    0.11 
  -2  -3 -19    0.06    0.09 
  -2  -2 -19    0.59    0.13 
  -2  -2 -19    0.86    0.14 
  -2  -1 -19   -0.07    0.08 
  -2   0 -19   -0.06    0.07 
   2  -1  19    0.08    0.09 
  -2   1 -19   -0.15    0.07 
   2  -2  19    0.82    0.14 
  -2   2 -19    1.01    0.16 
   2  -3  19    0.24    0.11 
  -2   3 -19    0.08    0.09 
   2  -4  19    0.02    0.09 
  -2   4 -19    0.04    0.09 
   2  -5  19    0.26    0.11 
  -2   5 -19    0.29    0.13 
   2  -6  19    0.10    0.10 
  -2   6 -19    0.25    0.12 
   2  -7  19   -0.05    0.09 
  -2   7 -19   -0.03    0.10 
   2  -8  19    0.82    0.17 
   2  -9  19    0.39    0.14 
   2 -10  19    0.26    0.13 
   2 -11  19    0.34    0.13 
   2 -12  19    0.21    0.12 
  -1 -13 -19    0.19    0.15 
  -1 -12 -19    0.08    0.13 
  -1 -11 -19   -0.02    0.13 
  -1 -11 -19   -0.07    0.10 
  -1 -10 -19   -0.02    0.11 
  -1 -10 -19    0.05    0.12 
  -1  -9 -19    0.00    0.11 
  -1  -9 -19   -0.01    0.09 
  -1  -8 -19    0.00    0.09 
  -1  -8 -19    0.05    0.12 
  -1  -7 -19    0.03    0.10 
  -1  -7 -19    0.16    0.10 
  -1  -6 -19    0.04    0.10 
  -1  -6 -19    0.05    0.08 
  -1  -5 -19    0.99    0.14 
  -1  -5 -19    1.20    0.16 
  -1  -4 -19   -0.04    0.08 
  -1  -4 -19    0.12    0.11 
  -1  -3 -19    0.10    0.10 
  -1  -3 -19    0.03    0.08 
  -1  -2 -19   -0.05    0.07 
  -1  -1 -19    0.12    0.09 
  -1   0 -19    0.18    0.10 
   1  -1  19    0.15    0.09 
  -1   1 -19    0.37    0.12 
   1  -2  19    0.06    0.09 
  -1   2 -19    0.13    0.10 
   1  -3  19    0.13    0.10 
  -1   3 -19   -0.02    0.08 
   1  -4  19    0.10    0.10 
  -1   4 -19    0.16    0.10 
   1  -5  19    0.71    0.14 
  -1   5 -19    0.95    0.16 
   1  -6  19   -0.09    0.09 
  -1   6 -19    0.03    0.10 
   1  -7  19    0.02    0.10 
  -1   7 -19    0.13    0.12 
   1  -8  19    0.00    0.10 
  -1   8 -19   -0.02    0.11 
   1  -9  19   -0.03    0.10 
   1 -10  19   -0.07    0.10 
   1 -11  19   -0.07    0.10 
   1 -12  19    0.11    0.11 
   1 -13  19    0.25    0.14 
   0 -13 -19   -0.07    0.12 
   0 -13 -19   -0.02    0.13 
   0 -12 -19    0.21    0.14 
   0 -12 -19    0.25    0.13 
   0 -11 -19    0.00    0.11 
   0 -11 -19   -0.09    0.12 
   0 -10 -19    0.73    0.17 
   0 -10 -19    0.73    0.16 
   0  -9 -19   -0.09    0.09 
   0  -9 -19   -0.01    0.11 
   0  -8 -19    0.23    0.11 
   0  -8 -19    0.35    0.13 
   0  -7 -19    0.06    0.11 
   0  -7 -19    0.00    0.09 
   0  -6 -19    0.05    0.10 
   0  -6 -19    0.04    0.09 
   0  -5 -19   -0.10    0.08 
   0  -5 -19    0.02    0.11 
   0  -4 -19   -0.08    0.07 
   0  -4 -19   -0.03    0.10 
   0  -3 -19    0.03    0.08 
   0  -2 -19    0.11    0.09 
   0  -1 -19   -0.05    0.08 
   0   0 -19    0.07    0.09 
   0  -1  19   -0.13    0.08 
   0   1 -19   -0.07    0.08 
   0  -2  19    0.21    0.10 
   0   2 -19    0.20    0.11 
   0  -3  19    0.05    0.08 
   0   3 -19    0.00    0.08 
   0  -4  19    0.10    0.10 
   0   4 -19    0.14    0.10 
   0  -5  19    0.03    0.09 
   0   5 -19    0.01    0.10 
   0  -6  19    0.02    0.09 
   0   6 -19    0.02    0.10 
   0  -7  19    0.07    0.10 
   0   7 -19   -0.02    0.10 
   0  -8  19    0.29    0.12 
   0   8 -19    0.31    0.14 
   0  -9  19   -0.03    0.10 
   0 -10  19    0.79    0.17 
   0 -11  19    0.03    0.11 
   0 -12  19    0.17    0.11 
   0 -13  19   -0.05    0.10 
   1 -13 -19    0.32    0.15 
   1 -13 -19    0.01    0.13 
   1 -12 -19   -0.16    0.11 
   1 -12 -19    0.10    0.13 
   1 -11 -19    0.09    0.12 
   1 -11 -19    0.13    0.13 
   1 -10 -19    0.06    0.13 
   1 -10 -19   -0.06    0.10 
   1  -9 -19    0.03    0.10 
   1  -9 -19    0.18    0.14 
   1  -8 -19    0.11    0.11 
   1  -8 -19   -0.08    0.11 
   1  -7 -19   -0.02    0.10 
   1  -7 -19    0.00    0.09 
   1  -6 -19   -0.15    0.07 
   1  -6 -19    0.03    0.11 
   1  -5 -19    1.05    0.16 
   1  -5 -19    0.92    0.15 
   1  -4 -19    0.05    0.08 
   1  -3 -19   -0.04    0.08 
   1  -2 -19    0.03    0.08 
   1  -1 -19    0.21    0.10 
   1   0 -19   -0.08    0.08 
   1   1 -19    0.20    0.10 
  -1  -2  19   -0.05    0.09 
   1   2 -19    0.08    0.09 
  -1  -3  19    0.12    0.09 
   1   3 -19   -0.09    0.08 
  -1  -4  19    0.13    0.10 
   1   4 -19   -0.07    0.08 
  -1  -5  19    0.79    0.14 
   1   5 -19    1.09    0.17 
  -1  -6  19    0.02    0.09 
   1   6 -19   -0.06    0.09 
  -1  -7  19    0.09    0.10 
   1   7 -19    0.03    0.11 
  -1  -8  19   -0.04    0.09 
   1   8 -19    0.04    0.11 
  -1  -9  19   -0.07    0.08 
   1   9 -19    0.02    0.13 
  -1 -10  19    0.13    0.11 
  -1 -11  19   -0.02    0.11 
  -1 -12  19    0.03    0.10 
  -1 -13  19    0.28    0.13 
   2 -13 -19   -0.13    0.13 
   2 -12 -19    0.20    0.13 
   2 -12 -19    0.09    0.14 
   2 -11 -19    0.05    0.12 
   2 -11 -19   -0.04    0.11 
   2 -10 -19    0.17    0.12 
   2 -10 -19    0.16    0.14 
   2  -9 -19    0.13    0.13 
   2  -9 -19    0.23    0.12 
   2  -8 -19    0.99    0.16 
   2  -8 -19    0.94    0.16 
   2  -7 -19   -0.03    0.10 
   2  -7 -19   -0.06    0.08 
   2  -6 -19    0.34    0.11 
   2  -6 -19    0.37    0.13 
   2  -5 -19    0.42    0.12 
   2  -4 -19    0.07    0.09 
   2  -3 -19    0.11    0.09 
   2  -2 -19    0.63    0.13 
   2  -1 -19    0.01    0.08 
   2   0 -19   -0.06    0.08 
   2   1 -19   -0.04    0.08 
  -2  -2  19    0.91    0.14 
   2   2 -19    0.63    0.14 
  -2  -3  19    0.11    0.10 
   2   3 -19   -0.05    0.09 
  -2  -4  19    0.05    0.09 
   2   4 -19   -0.01    0.10 
  -2  -5  19    0.15    0.10 
   2   5 -19    0.08    0.11 
  -2  -6  19    0.26    0.12 
   2   6 -19    0.28    0.13 
  -2  -7  19    0.04    0.10 
   2   7 -19    0.07    0.11 
  -2  -8  19    0.63    0.16 
   2   8 -19    0.78    0.17 
  -2  -9  19    0.19    0.12 
   2   9 -19    0.15    0.13 
  -2 -10  19    0.30    0.13 
  -2 -11  19    0.12    0.12 
  -2 -12  19    0.17    0.13 
   3 -12 -19    0.15    0.14 
   3 -12 -19   -0.22    0.10 
   3 -11 -19    0.00    0.13 
   3 -11 -19    0.08    0.11 
   3 -10 -19    0.08    0.11 
   3 -10 -19    0.11    0.12 
   3  -9 -19    0.11    0.13 
   3  -9 -19   -0.13    0.10 
   3  -8 -19    0.04    0.11 
   3  -8 -19    0.04    0.11 
   3  -7 -19    0.14    0.11 
   3  -7 -19   -0.04    0.11 
   3  -6 -19    0.00    0.09 
   3  -5 -19    0.68    0.14 
   3  -4 -19    0.12    0.09 
   3  -3 -19    0.67    0.14 
   3  -2 -19    0.06    0.09 
   3  -1 -19    0.04    0.09 
   3   0 -19    0.02    0.09 
   3   1 -19   -0.07    0.08 
  -3  -2  19    0.02    0.10 
   3   2 -19    0.01    0.08 
  -3  -3  19    0.63    0.14 
   3   3 -19    0.76    0.16 
  -3  -4  19    0.03    0.10 
   3   4 -19    0.00    0.09 
  -3  -5  19    0.52    0.13 
   3   5 -19    0.63    0.15 
  -3  -6  19    0.06    0.10 
   3   6 -19    0.04    0.10 
  -3  -7  19    0.12    0.12 
   3   7 -19    0.06    0.10 
  -3  -8  19   -0.10    0.10 
   3   8 -19    0.09    0.12 
  -3  -9  19   -0.02    0.10 
   3   9 -19   -0.08    0.10 
  -3 -10  19    0.17    0.12 
  -3 -11  19   -0.02    0.11 
  -3 -12  19    0.08    0.11 
   4 -12 -19    0.02    0.13 
   4 -12 -19    0.08    0.13 
   4 -11 -19   -0.06    0.13 
   4 -11 -19    0.04    0.13 
   4 -10 -19   -0.12    0.10 
   4 -10 -19    0.10    0.13 
   4  -9 -19    0.23    0.14 
   4  -9 -19    0.01    0.10 
   4  -8 -19    0.29    0.12 
   4  -8 -19    0.30    0.14 
   4  -7 -19   -0.08    0.09 
   4  -6 -19    0.50    0.13 
   4  -5 -19    0.27    0.11 
   4  -4 -19    0.94    0.15 
   4  -3 -19    0.25    0.11 
   4  -2 -19    0.18    0.10 
   4  -1 -19    0.02    0.09 
   4   0 -19   -0.05    0.08 
   4   1 -19    0.21    0.11 
  -4  -2  19    0.18    0.12 
   4   2 -19    0.18    0.10 
  -4  -3  19    0.49    0.13 
   4   3 -19    0.22    0.12 
  -4  -4  19    0.95    0.16 
   4   4 -19    0.94    0.17 
  -4  -5  19    0.29    0.12 
   4   5 -19    0.09    0.10 
  -4  -6  19    0.46    0.14 
   4   6 -19    0.36    0.12 
  -4  -7  19   -0.11    0.10 
   4   7 -19   -0.19    0.09 
  -4  -8  19    0.23    0.13 
   4   8 -19    0.08    0.12 
  -4  -9  19    0.10    0.13 
   4   9 -19    0.13    0.13 
  -4 -10  19    0.17    0.12 
   4  10 -19   -0.04    0.12 
  -4 -11  19    0.13    0.12 
  -4 -12  19   -0.05    0.11 
   5 -12 -19    0.17    0.15 
   5 -12 -19    0.00    0.13 
   5 -11 -19    0.06    0.13 
   5 -11 -19   -0.08    0.12 
   5 -10 -19    0.01    0.12 
   5 -10 -19    0.11    0.14 
   5  -9 -19    0.09    0.12 
   5  -8 -19    0.10    0.11 
   5  -7 -19    0.07    0.11 
   5  -6 -19    0.04    0.10 
   5  -5 -19    0.06    0.10 
   5  -4 -19    0.09    0.10 
   5  -3 -19    0.19    0.10 
   5  -2 -19    0.01    0.09 
   5  -1 -19    0.23    0.11 
   5   0 -19    0.00    0.09 
   5   1 -19    0.20    0.10 
   5   2 -19    0.02    0.09 
  -5  -3  19    0.41    0.13 
   5   3 -19    0.34    0.12 
  -5  -4  19    0.07    0.10 
   5   4 -19    0.03    0.10 
  -5  -5  19   -0.08    0.10 
   5   5 -19    0.02    0.10 
  -5  -6  19    0.01    0.11 
   5   6 -19    0.10    0.11 
  -5  -7  19    0.23    0.13 
   5   7 -19    0.16    0.12 
  -5  -8  19    0.02    0.11 
   5   8 -19    0.08    0.12 
  -5  -9  19   -0.07    0.11 
   5   9 -19    0.01    0.12 
  -5 -10  19    0.07    0.12 
   5  10 -19   -0.06    0.12 
  -5 -11  19   -0.05    0.11 
  -5 -12  19    0.32    0.15 
   6 -11 -19   -0.05    0.13 
   6 -10 -19   -0.08    0.12 
   6  -9 -19    0.05    0.11 
   6  -8 -19    0.10    0.11 
   6  -7 -19    0.04    0.11 
   6  -6 -19    0.64    0.15 
   6  -5 -19   -0.07    0.09 
   6  -4 -19   -0.01    0.09 
   6  -3 -19   -0.01    0.10 
   6  -2 -19   -0.05    0.09 
   6  -1 -19    0.17    0.10 
   6   0 -19   -0.10    0.08 
   6   1 -19    0.13    0.09 
   6   2 -19    0.03    0.10 
  -6  -3  19    0.13    0.10 
   6   3 -19    0.01    0.09 
  -6  -4  19    0.07    0.10 
   6   4 -19    0.00    0.10 
  -6  -5  19    0.05    0.11 
   6   5 -19    0.01    0.10 
  -6  -6  19    0.59    0.16 
   6   6 -19    0.77    0.17 
  -6  -7  19    0.12    0.12 
   6   7 -19    0.23    0.13 
  -6  -8  19    0.03    0.11 
   6   8 -19    0.00    0.11 
  -6  -9  19    0.10    0.12 
   6   9 -19    0.06    0.12 
  -6 -10  19    0.05    0.11 
   6  10 -19    0.06    0.13 
  -6 -11  19    0.02    0.11 
   7 -11 -19   -0.02    0.13 
   7 -10 -19   -0.09    0.12 
   7  -9 -19   -0.04    0.11 
   7  -8 -19   -0.18    0.10 
   7  -7 -19    0.06    0.12 
   7  -6 -19   -0.07    0.11 
   7  -5 -19    0.39    0.14 
   7  -4 -19    0.15    0.11 
   7  -3 -19    0.02    0.09 
   7  -2 -19    0.23    0.10 
   7  -1 -19    0.19    0.11 
   7   0 -19    0.10    0.10 
   7   1 -19    0.21    0.11 
   7   2 -19    0.17    0.10 
  -7  -3  19    0.08    0.11 
   7   3 -19    0.03    0.10 
  -7  -4  19    0.49    0.14 
   7   4 -19    0.13    0.11 
  -7  -5  19    0.65    0.16 
   7   5 -19    0.68    0.16 
  -7  -6  19    0.13    0.11 
   7   6 -19    0.01    0.11 
  -7  -7  19    0.16    0.13 
   7   7 -19   -0.01    0.11 
  -7  -8  19    0.09    0.11 
   7   8 -19   -0.06    0.11 
  -7  -9  19    0.21    0.13 
   7   9 -19    0.06    0.12 
  -7 -10  19    0.07    0.12 
   7  10 -19    0.18    0.15 
  -7 -11  19   -0.09    0.10 
   8 -10 -19    0.19    0.14 
   8  -9 -19    0.17    0.14 
   8  -8 -19    0.03    0.13 
   8  -7 -19    0.12    0.13 
   8  -6 -19    0.20    0.13 
   8  -5 -19    0.55    0.14 
   8  -4 -19   -0.13    0.09 
   8  -3 -19    0.03    0.10 
   8  -2 -19    0.37    0.12 
   8  -1 -19    0.01    0.09 
   8   0 -19   -0.03    0.09 
   8   1 -19   -0.04    0.09 
   8   2 -19    0.25    0.11 
   8   3 -19   -0.02    0.10 
  -8  -4  19   -0.13    0.11 
   8   4 -19    0.00    0.10 
  -8  -5  19    0.60    0.16 
   8   5 -19    0.45    0.14 
  -8  -6  19    0.18    0.13 
   8   6 -19    0.14    0.13 
  -8  -7  19    0.06    0.13 
   8   7 -19   -0.05    0.11 
  -8  -8  19    0.09    0.13 
   8   8 -19   -0.02    0.12 
  -8  -9  19    0.26    0.15 
   8   9 -19    0.21    0.13 
  -8 -10  19   -0.02    0.11 
   8  10 -19    0.11    0.14 
   9  -9 -19    0.01    0.13 
   9  -8 -19   -0.02    0.13 
   9  -7 -19   -0.08    0.10 
   9  -6 -19    0.00    0.10 
   9  -5 -19    0.69    0.15 
   9  -4 -19   -0.04    0.10 
   9  -3 -19    0.07    0.10 
   9  -2 -19    0.03    0.09 
   9  -1 -19    0.15    0.10 
   9   0 -19   -0.09    0.08 
   9   1 -19    0.05    0.10 
   9   2 -19    0.08    0.11 
   9   3 -19    0.02    0.10 
   9   4 -19    0.02    0.11 
   9   4 -19    0.06    0.11 
   9   5 -19    0.52    0.16 
   9   5 -19    0.65    0.16 
   9   6 -19    0.01    0.11 
   9   6 -19    0.17    0.14 
   9   7 -19    0.02    0.13 
   9   7 -19    0.33    0.14 
  -9  -8  19    0.15    0.13 
   9   8 -19    0.14    0.14 
  -9  -9  19    0.19    0.13 
   9   9 -19   -0.02    0.13 
  10  -9 -19    0.14    0.10 
  10  -8 -19    0.27    0.12 
  10  -7 -19    0.26    0.12 
  10  -6 -19    0.17    0.11 
  10  -5 -19    0.33    0.13 
  10  -4 -19    0.02    0.10 
  10  -3 -19    0.01    0.10 
  10  -2 -19    0.49    0.14 
  10  -1 -19   -0.08    0.10 
  10   0 -19    0.00    0.10 
  10   1 -19    0.16    0.11 
  10   2 -19    0.42    0.13 
  10   3 -19   -0.01    0.10 
  10   4 -19    0.05    0.10 
  10   4 -19   -0.07    0.12 
  10   5 -19    0.46    0.17 
  10   5 -19    0.39    0.14 
  10   6 -19    0.05    0.12 
  10   6 -19    0.26    0.16 
  10   7 -19    0.26    0.16 
  10   7 -19    0.09    0.12 
  10   8 -19    0.37    0.15 
  10   8 -19    0.16    0.16 
  10   9 -19    0.00    0.14 
  11  -7 -19    0.08    0.11 
  11  -6 -19    0.07    0.11 
  11  -5 -19    0.29    0.12 
  11  -4 -19    0.05    0.11 
  11  -3 -19    0.02    0.11 
  11  -2 -19   -0.03    0.10 
  11  -1 -19    0.04    0.11 
  11   0 -19    0.03    0.10 
  11   1 -19    0.15    0.12 
  11   2 -19    0.08    0.11 
  11   3 -19    0.04    0.11 
  11   4 -19    0.17    0.12 
  11   5 -19    0.20    0.13 
  11   5 -19    0.20    0.15 
  11   6 -19   -0.04    0.14 
  11   6 -19   -0.03    0.12 
  11   7 -19    0.08    0.14 
  11   7 -19   -0.03    0.16 
  12  -6 -19    0.00    0.10 
  12  -5 -19    0.18    0.12 
  12  -4 -19    0.12    0.12 
  12  -3 -19   -0.07    0.10 
  12  -2 -19    0.14    0.12 
  12  -1 -19    0.04    0.11 
  12   0 -19    0.12    0.12 
  12   1 -19   -0.02    0.10 
  12   2 -19   -0.02    0.11 
  12   3 -19    0.11    0.11 
  12   4 -19    0.17    0.12 
  12   5 -19    0.09    0.13 
  12   5 -19    0.21    0.16 
  12   6 -19    0.08    0.16 
  12   6 -19    0.05    0.12 
  13  -4 -19    0.14    0.11 
  13  -3 -19    0.21    0.13 
  13  -2 -19   -0.04    0.10 
  13  -1 -19   -0.01    0.11 
  13   0 -19    0.12    0.13 
  13   1 -19   -0.09    0.11 
  13   2 -19   -0.04    0.11 
  13   3 -19    0.20    0.13 
  13   4 -19    0.00    0.12 
 -12  -3 -20    0.08    0.14 
 -12  -2 -20    0.03    0.13 
 -12  -1 -20   -0.03    0.13 
  12   0  20    0.30    0.13 
 -12   0 -20    0.22    0.16 
  12  -1  20    0.08    0.11 
  12  -2  20    0.03    0.09 
  12  -3  20    0.22    0.12 
 -11  -5 -20    0.10    0.13 
 -11  -4 -20   -0.08    0.13 
 -11  -3 -20   -0.10    0.12 
 -11  -2 -20    0.09    0.14 
 -11  -1 -20    0.07    0.13 
  11   0  20    0.16    0.13 
 -11   0 -20    0.10    0.13 
  11  -1  20   -0.02    0.10 
  11  -2  20   -0.04    0.10 
  11  -3  20    0.06    0.10 
  11  -4  20    0.11    0.12 
  11  -5  20    0.08    0.11 
 -10  -7 -20    0.36    0.16 
 -10  -6 -20    0.21    0.14 
 -10  -5 -20   -0.12    0.12 
 -10  -4 -20    0.17    0.13 
 -10  -3 -20    0.03    0.14 
 -10  -2 -20   -0.04    0.12 
 -10  -1 -20    0.02    0.13 
  10   0  20    0.15    0.12 
 -10   0 -20    0.13    0.14 
  10  -1  20    0.09    0.11 
 -10   1 -20    0.01    0.13 
  10  -2  20   -0.13    0.09 
  10  -3  20    0.10    0.12 
  10  -4  20    0.19    0.12 
  10  -5  20    0.17    0.12 
  10  -6  20    0.27    0.13 
  10  -7  20    0.28    0.13 
  -9  -8 -20    0.26    0.15 
  -9  -7 -20    0.30    0.16 
  -9  -6 -20   -0.01    0.14 
  -9  -5 -20    0.05    0.14 
  -9  -4 -20    0.10    0.14 
  -9  -3 -20    0.08    0.14 
  -9  -2 -20   -0.02    0.11 
  -9  -1 -20    0.09    0.14 
  -9   0 -20    0.40    0.15 
   9  -1  20    0.12    0.11 
  -9   1 -20    0.00    0.13 
   9  -2  20    0.18    0.11 
   9  -3  20   -0.09    0.10 
   9  -4  20    0.13    0.12 
   9  -5  20    0.14    0.11 
   9  -6  20    0.01    0.11 
   9  -7  20    0.09    0.11 
   9  -8  20    0.21    0.12 
  -8  -9 -20    0.30    0.16 
  -8  -8 -20    0.02    0.13 
  -8  -7 -20    0.04    0.14 
  -8  -6 -20    0.00    0.12 
  -8  -5 -20    0.11    0.13 
  -8  -4 -20    0.13    0.14 
  -8  -3 -20    0.16    0.13 
  -8  -2 -20    0.10    0.13 
  -8  -1 -20   -0.06    0.11 
  -8   0 -20    0.18    0.13 
   8  -1  20    0.09    0.10 
  -8   1 -20   -0.02    0.12 
   8  -2  20    0.27    0.12 
   8  -3  20    0.13    0.11 
   8  -4  20    0.31    0.12 
   8  -5  20    0.20    0.12 
   8  -6  20    0.12    0.12 
   8  -7  20    0.21    0.12 
   8  -8  20    0.15    0.12 
   8  -9  20    0.00    0.10 
  -7  -9 -20   -0.03    0.13 
  -7  -8 -20    0.09    0.13 
  -7  -7 -20    0.11    0.14 
  -7  -6 -20    0.59    0.16 
  -7  -5 -20    0.16    0.13 
  -7  -4 -20    0.12    0.12 
  -7  -3 -20   -0.04    0.12 
  -7  -2 -20    0.25    0.13 
  -7  -1 -20   -0.05    0.11 
  -7   0 -20    0.26    0.13 
   7  -1  20    0.01    0.10 
  -7   1 -20   -0.03    0.12 
  -7   1 -20    0.00    0.10 
   7  -2  20    0.13    0.10 
  -7   2 -20    0.29    0.12 
   7  -3  20    0.14    0.10 
  -7   3 -20    0.08    0.11 
   7  -4  20   -0.02    0.09 
   7  -5  20    0.13    0.11 
   7  -6  20    0.67    0.15 
   7  -7  20    0.17    0.12 
   7  -8  20   -0.06    0.10 
   7  -9  20   -0.04    0.10 
   7 -10  20    0.15    0.12 
  -6 -10 -20    0.12    0.14 
  -6  -9 -20    0.10    0.14 
  -6  -8 -20    0.12    0.14 
  -6  -7 -20    0.34    0.15 
  -6  -6 -20    0.07    0.12 
  -6  -5 -20    0.41    0.15 
  -6  -4 -20    0.47    0.15 
  -6  -3 -20    0.07    0.12 
  -6  -2 -20   -0.08    0.11 
  -6  -1 -20    0.09    0.12 
  -6  -1 -20    0.07    0.10 
  -6   0 -20    0.38    0.13 
  -6   0 -20    0.64    0.15 
   6  -1  20    0.06    0.10 
  -6   1 -20    0.08    0.11 
   6  -2  20   -0.01    0.09 
  -6   2 -20    0.01    0.09 
   6  -3  20   -0.11    0.08 
  -6   3 -20    0.09    0.10 
   6  -4  20    0.54    0.14 
  -6   4 -20    0.50    0.14 
   6  -5  20    0.32    0.13 
   6  -6  20    0.38    0.13 
   6  -7  20    0.23    0.12 
   6  -8  20    0.05    0.10 
   6  -9  20    0.28    0.13 
   6 -10  20    0.11    0.12 
  -5 -11 -20    0.26    0.15 
  -5 -10 -20   -0.11    0.12 
  -5  -9 -20   -0.06    0.12 
  -5  -8 -20    0.05    0.13 
  -5  -7 -20    0.19    0.14 
  -5  -6 -20    0.18    0.12 
  -5  -5 -20    0.09    0.12 
  -5  -4 -20    0.02    0.12 
  -5  -3 -20    0.13    0.12 
  -5  -3 -20    0.12    0.10 
  -5  -2 -20    0.35    0.12 
  -5  -2 -20    0.18    0.11 
  -5  -1 -20   -0.08    0.11 
  -5  -1 -20   -0.13    0.09 
  -5   0 -20    0.30    0.12 
   5  -1  20    0.03    0.09 
  -5   1 -20   -0.04    0.10 
   5  -2  20    0.12    0.10 
  -5   2 -20    0.14    0.11 
   5  -3  20   -0.09    0.09 
  -5   3 -20    0.23    0.12 
   5  -4  20    0.03    0.10 
  -5   4 -20    0.34    0.13 
   5  -5  20   -0.02    0.09 
  -5   5 -20    0.02    0.12 
   5  -6  20   -0.03    0.10 
   5  -7  20    0.07    0.11 
   5  -8  20    0.07    0.11 
   5  -9  20    0.11    0.12 
   5 -10  20   -0.03    0.10 
   5 -11  20    0.32    0.13 
  -4 -11 -20   -0.03    0.14 
  -4 -10 -20    0.09    0.14 
  -4  -9 -20    0.02    0.13 
  -4  -8 -20    0.28    0.15 
  -4  -7 -20    0.26    0.13 
  -4  -6 -20    0.17    0.12 
  -4  -5 -20    0.07    0.10 
  -4  -5 -20    0.13    0.12 
  -4  -4 -20    0.58    0.13 
  -4  -4 -20    0.67    0.15 
  -4  -3 -20    0.13    0.10 
  -4  -3 -20    0.12    0.12 
  -4  -2 -20   -0.05    0.09 
  -4  -2 -20   -0.01    0.10 
  -4  -1 -20   -0.08    0.09 
  -4   0 -20    0.52    0.13 
   4  -1  20    0.12    0.10 
  -4   1 -20    0.00    0.09 
   4  -2  20    0.04    0.09 
  -4   2 -20   -0.10    0.09 
   4  -3  20    0.19    0.10 
  -4   3 -20    0.25    0.12 
   4  -4  20    0.50    0.14 
  -4   4 -20    0.81    0.16 
   4  -5  20    0.05    0.11 
  -4   5 -20   -0.13    0.09 
   4  -6  20    0.13    0.11 
  -4   6 -20    0.14    0.12 
   4  -7  20   -0.02    0.10 
   4  -8  20    0.25    0.13 
   4  -9  20    0.11    0.11 
   4 -10  20    0.35    0.14 
   4 -11  20    0.21    0.12 
  -3 -11 -20    0.08    0.14 
  -3 -10 -20    0.19    0.14 
  -3  -9 -20   -0.11    0.11 
  -3  -8 -20    0.10    0.12 
  -3  -7 -20   -0.05    0.11 
  -3  -7 -20    0.14    0.11 
  -3  -6 -20    0.37    0.14 
  -3  -6 -20    0.54    0.13 
  -3  -5 -20    0.13    0.12 
  -3  -5 -20    0.10    0.10 
  -3  -4 -20    0.20    0.11 
  -3  -4 -20    0.02    0.10 
  -3  -3 -20    0.03    0.10 
  -3  -3 -20    0.04    0.11 
  -3  -2 -20   -0.12    0.08 
  -3  -1 -20   -0.06    0.09 
  -3   0 -20    0.17    0.11 
  -3   1 -20   -0.13    0.09 
   3  -2  20    0.00    0.08 
  -3   2 -20    0.07    0.08 
   3  -3  20   -0.02    0.09 
  -3   3 -20   -0.09    0.09 
   3  -4  20    0.21    0.11 
  -3   4 -20    0.23    0.12 
   3  -5  20   -0.03    0.10 
  -3   5 -20    0.02    0.10 
   3  -6  20    0.28    0.12 
  -3   6 -20    0.29    0.14 
   3  -7  20   -0.02    0.10 
   3  -8  20   -0.03    0.10 
   3  -9  20   -0.13    0.10 
   3 -10  20   -0.10    0.10 
   3 -11  20   -0.01    0.11 
  -2 -11 -20    0.17    0.15 
  -2 -10 -20    0.21    0.15 
  -2  -9 -20    0.08    0.13 
  -2  -9 -20    0.01    0.11 
  -2  -8 -20    0.24    0.12 
  -2  -8 -20    0.49    0.15 
  -2  -7 -20    0.03    0.12 
  -2  -7 -20    0.01    0.10 
  -2  -6 -20    0.68    0.16 
  -2  -6 -20    0.75    0.14 
  -2  -5 -20    0.09    0.11 
  -2  -5 -20   -0.03    0.10 
  -2  -4 -20    0.17    0.12 
  -2  -4 -20    0.23    0.11 
  -2  -3 -20    0.06    0.11 
  -2  -3 -20    0.24    0.11 
  -2  -2 -20   -0.11    0.09 
  -2  -1 -20    0.03    0.10 
  -2   0 -20    0.60    0.14 
  -2   1 -20   -0.03    0.09 
   2  -2  20    0.09    0.10 
  -2   2 -20   -0.05    0.09 
   2  -3  20    0.21    0.10 
  -2   3 -20    0.06    0.09 
   2  -4  20    0.40    0.12 
  -2   4 -20    0.18    0.11 
   2  -5  20    0.00    0.10 
  -2   5 -20    0.12    0.11 
   2  -6  20    0.82    0.16 
  -2   6 -20    0.56    0.15 
   2  -7  20    0.08    0.11 
  -2   7 -20    0.02    0.11 
   2  -8  20    0.27    0.13 
   2  -9  20    0.01    0.11 
   2 -10  20    0.21    0.13 
   2 -11  20    0.21    0.13 
  -1 -12 -20    0.03    0.13 
  -1 -11 -20    0.05    0.13 
  -1 -11 -20   -0.11    0.12 
  -1 -10 -20   -0.08    0.11 
  -1 -10 -20   -0.02    0.13 
  -1  -9 -20    0.06    0.11 
  -1  -9 -20   -0.11    0.12 
  -1  -8 -20    0.01    0.12 
  -1  -8 -20    0.04    0.10 
  -1  -7 -20    0.07    0.12 
  -1  -7 -20   -0.02    0.10 
  -1  -6 -20    0.05    0.10 
  -1  -6 -20   -0.12    0.10 
  -1  -5 -20    0.06    0.09 
  -1  -5 -20    0.04    0.12 
  -1  -4 -20    0.12    0.12 
  -1  -4 -20   -0.11    0.08 
  -1  -3 -20   -0.11    0.09 
  -1  -2 -20   -0.07    0.09 
  -1  -1 -20    0.00    0.09 
  -1   0 -20    0.50    0.13 
  -1   1 -20   -0.06    0.10 
   1  -2  20    0.15    0.10 
  -1   2 -20   -0.03    0.09 
   1  -3  20   -0.08    0.08 
  -1   3 -20   -0.09    0.09 
   1  -4  20    0.02    0.09 
  -1   4 -20   -0.05    0.10 
   1  -5  20    0.01    0.10 
  -1   5 -20    0.04    0.11 
   1  -6  20   -0.04    0.10 
  -1   6 -20   -0.06    0.11 
   1  -7  20    0.02    0.10 
  -1   7 -20    0.00    0.11 
   1  -8  20    0.08    0.11 
  -1   8 -20    0.13    0.13 
   1  -9  20   -0.02    0.10 
   1 -10  20   -0.13    0.10 
   1 -11  20    0.09    0.11 
   1 -12  20    0.08    0.11 
   0 -12 -20    0.54    0.16 
   0 -12 -20    0.71    0.18 
   0 -11 -20    0.08    0.14 
   0 -11 -20   -0.11    0.12 
   0 -10 -20    0.26    0.13 
   0 -10 -20    0.22    0.14 
   0  -9 -20   -0.06    0.10 
   0  -9 -20   -0.07    0.11 
   0  -8 -20    0.15    0.13 
   0  -8 -20    0.08    0.11 
   0  -7 -20   -0.01    0.11 
   0  -7 -20   -0.05    0.09 
   0  -6 -20    0.90    0.16 
   0  -6 -20    0.70    0.14 
   0  -5 -20    0.00    0.09 
   0  -4 -20    0.03    0.10 
   0  -3 -20   -0.08    0.09 
   0  -2 -20    0.07    0.09 
   0  -1 -20    0.04    0.08 
   0   0 -20    0.27    0.11 
   0   1 -20    0.05    0.09 
   0  -2  20   -0.07    0.09 
   0   2 -20    0.07    0.10 
   0  -3  20    0.01    0.10 
   0   3 -20    0.09    0.10 
   0  -4  20    0.08    0.10 
   0   4 -20    0.15    0.11 
   0  -5  20    0.01    0.10 
   0   5 -20   -0.09    0.10 
   0  -6  20    1.01    0.17 
   0   6 -20    0.86    0.18 
   0  -7  20   -0.01    0.10 
   0   7 -20   -0.12    0.11 
   0  -8  20    0.10    0.11 
   0   8 -20    0.09    0.14 
   0  -9  20   -0.06    0.10 
   0 -10  20    0.10    0.12 
   0 -11  20    0.03    0.11 
   0 -12  20    0.39    0.14 
   1 -12 -20    0.08    0.14 
   1 -12 -20   -0.12    0.12 
   1 -11 -20    0.14    0.14 
   1 -11 -20   -0.04    0.13 
   1 -10 -20   -0.04    0.11 
   1 -10 -20   -0.12    0.12 
   1  -9 -20    0.23    0.15 
   1  -9 -20    0.16    0.12 
   1  -8 -20   -0.04    0.10 
   1  -8 -20    0.06    0.12 
   1  -7 -20    0.04    0.10 
   1  -7 -20   -0.07    0.11 
   1  -6 -20    0.14    0.11 
   1  -5 -20    0.00    0.10 
   1  -4 -20    0.08    0.09 
   1  -3 -20   -0.02    0.08 
   1  -2 -20   -0.05    0.09 
   1  -1 -20   -0.10    0.08 
   1   0 -20    0.48    0.13 
   1   1 -20   -0.10    0.09 
   1   2 -20   -0.10    0.09 
  -1  -3  20   -0.03    0.08 
   1   3 -20   -0.13    0.09 
  -1  -4  20   -0.06    0.09 
   1   4 -20   -0.11    0.09 
  -1  -5  20    0.00    0.10 
   1   5 -20    0.09    0.11 
  -1  -6  20   -0.03    0.10 
   1   6 -20    0.11    0.12 
  -1  -7  20   -0.15    0.09 
   1   7 -20   -0.04    0.12 
  -1  -8  20   -0.04    0.09 
   1   8 -20    0.21    0.14 
  -1  -9  20    0.04    0.10 
   1   9 -20    0.02    0.14 
  -1 -10  20    0.05    0.11 
  -1 -11  20    0.10    0.11 
  -1 -12  20    0.20    0.13 
   2 -12 -20    0.33    0.16 
   2 -11 -20   -0.03    0.13 
   2 -11 -20   -0.08    0.11 
   2 -10 -20    0.23    0.14 
   2 -10 -20    0.22    0.13 
   2  -9 -20   -0.01    0.13 
   2  -9 -20    0.08    0.12 
   2  -8 -20   -0.05    0.10 
   2  -8 -20    0.29    0.15 
   2  -7 -20   -0.07    0.09 
   2  -6 -20    0.50    0.13 
   2  -5 -20    0.14    0.10 
   2  -4 -20    0.31    0.12 
   2  -3 -20    0.08    0.10 
   2  -2 -20   -0.02    0.09 
   2  -1 -20   -0.06    0.08 
   2   0 -20    0.54    0.13 
   2   1 -20   -0.08    0.08 
   2   2 -20    0.06    0.09 
  -2  -3  20    0.04    0.10 
   2   3 -20    0.26    0.12 
  -2  -4  20    0.05    0.10 
   2   4 -20    0.30    0.13 
  -2  -5  20   -0.05    0.10 
   2   5 -20   -0.04    0.10 
  -2  -6  20    0.34    0.12 
   2   6 -20    0.86    0.18 
  -2  -7  20    0.00    0.10 
   2   7 -20   -0.12    0.11 
  -2  -8  20    0.13    0.12 
   2   8 -20    0.03    0.13 
  -2  -9  20    0.09    0.11 
   2   9 -20    0.13    0.13 
  -2 -10  20    0.18    0.12 
  -2 -11  20    0.08    0.11 
   3 -11 -20    0.03    0.14 
   3 -11 -20   -0.05    0.12 
   3 -10 -20    0.09    0.13 
   3 -10 -20   -0.10    0.13 
   3  -9 -20   -0.07    0.11 
   3  -9 -20   -0.09    0.13 
   3  -8 -20   -0.02    0.10 
   3  -7 -20   -0.04    0.10 
   3  -6 -20    0.36    0.12 
   3  -5 -20   -0.06    0.09 
   3  -4 -20    0.26    0.11 
   3  -3 -20   -0.04    0.09 
   3  -2 -20    0.06    0.09 
   3  -1 -20    0.00    0.09 
   3   0 -20    0.32    0.12 
   3   1 -20    0.10    0.10 
   3   2 -20   -0.06    0.09 
  -3  -3  20    0.01    0.10 
   3   3 -20    0.02    0.11 
  -3  -4  20    0.03    0.10 
   3   4 -20    0.37    0.13 
  -3  -5  20    0.11    0.11 
   3   5 -20   -0.12    0.10 
  -3  -6  20    0.27    0.12 
   3   6 -20    0.42    0.15 
  -3  -7  20    0.00    0.11 
   3   7 -20   -0.02    0.10 
  -3  -8  20   -0.09    0.10 
   3   8 -20   -0.01    0.11 
  -3  -9  20    0.08    0.12 
   3   9 -20   -0.14    0.11 
  -3 -10  20    0.11    0.12 
  -3 -11  20    0.19    0.13 
   4 -11 -20    0.18    0.14 
   4 -11 -20    0.30    0.16 
   4 -10 -20    0.26    0.15 
   4 -10 -20    0.20    0.16 
   4  -9 -20   -0.02    0.12 
   4  -8 -20    0.40    0.14 
   4  -7 -20   -0.03    0.11 
   4  -6 -20    0.15    0.11 
   4  -5 -20    0.00    0.10 
   4  -4 -20    0.39    0.12 
   4  -3 -20    0.09    0.10 
   4  -2 -20    0.00    0.09 
   4  -1 -20    0.07    0.10 
   4   0 -20    0.49    0.13 
   4   1 -20   -0.01    0.10 
   4   2 -20    0.01    0.10 
  -4  -3  20    0.05    0.12 
   4   3 -20    0.31    0.12 
  -4  -4  20    0.39    0.13 
   4   4 -20    0.40    0.14 
  -4  -5  20   -0.07    0.11 
   4   5 -20    0.10    0.11 
  -4  -6  20    0.09    0.11 
   4   6 -20   -0.06    0.10 
  -4  -7  20    0.02    0.11 
   4   7 -20    0.04    0.12 
  -4  -8  20    0.30    0.14 
   4   8 -20    0.41    0.15 
  -4  -9  20   -0.03    0.11 
   4   9 -20    0.00    0.12 
  -4 -10  20    0.15    0.13 
   4  10 -20    0.11    0.13 
  -4 -11  20    0.44    0.15 
   5 -11 -20    0.07    0.14 
   5 -10 -20   -0.06    0.13 
   5  -9 -20    0.16    0.13 
   5  -8 -20    0.08    0.13 
   5  -7 -20    0.03    0.11 
   5  -6 -20    0.01    0.11 
   5  -5 -20    0.07    0.11 
   5  -4 -20    0.12    0.11 
   5  -3 -20    0.05    0.11 
   5  -2 -20    0.31    0.12 
   5  -1 -20    0.01    0.10 
   5   0 -20    0.10    0.11 
   5   1 -20    0.19    0.12 
   5   2 -20    0.13    0.10 
   5   3 -20   -0.03    0.09 
  -5  -4  20    0.07    0.11 
   5   4 -20    0.13    0.11 
  -5  -5  20    0.19    0.12 
   5   5 -20    0.16    0.11 
  -5  -6  20    0.00    0.11 
   5   6 -20    0.00    0.11 
  -5  -7  20   -0.06    0.11 
   5   7 -20    0.07    0.12 
  -5  -8  20    0.10    0.11 
   5   8 -20    0.07    0.13 
  -5  -9  20   -0.03    0.11 
   5   9 -20    0.31    0.14 
  -5 -10  20    0.10    0.12 
   5  10 -20   -0.01    0.12 
  -5 -11  20    0.00    0.11 
   6 -10 -20    0.04    0.14 
   6  -9 -20    0.20    0.15 
   6  -8 -20    0.09    0.12 
   6  -7 -20    0.35    0.14 
   6  -6 -20    0.00    0.12 
   6  -5 -20    0.32    0.13 
   6  -4 -20    0.52    0.14 
   6  -3 -20    0.15    0.12 
   6  -2 -20    0.02    0.11 
   6  -1 -20    0.03    0.10 
   6   0 -20    0.50    0.13 
   6   1 -20   -0.09    0.09 
   6   2 -20    0.01    0.09 
   6   3 -20   -0.07    0.08 
  -6  -4  20    0.58    0.16 
   6   4 -20    0.51    0.15 
  -6  -5  20    0.26    0.14 
   6   5 -20    0.44    0.14 
  -6  -6  20    0.14    0.13 
   6   6 -20    0.02    0.11 
  -6  -7  20    0.32    0.14 
   6   7 -20    0.31    0.15 
  -6  -8  20   -0.10    0.11 
   6   8 -20    0.04    0.12 
  -6  -9  20    0.19    0.13 
   6   9 -20    0.10    0.13 
  -6 -10  20   -0.12    0.12 
   6  10 -20    0.06    0.13 
   7 -10 -20    0.17    0.15 
   7  -9 -20   -0.13    0.12 
   7  -8 -20   -0.11    0.12 
   7  -7 -20    0.14    0.13 
   7  -6 -20    0.49    0.15 
   7  -5 -20    0.11    0.12 
   7  -4 -20   -0.03    0.11 
   7  -3 -20    0.13    0.12 
   7  -2 -20    0.13    0.11 
   7  -1 -20    0.05    0.10 
   7   0 -20    0.15    0.11 
   7   1 -20    0.13    0.10 
   7   2 -20    0.17    0.11 
   7   3 -20    0.04    0.10 
  -7  -4  20    0.12    0.13 
   7   4 -20   -0.06    0.12 
  -7  -5  20   -0.10    0.10 
   7   5 -20    0.06    0.11 
  -7  -6  20    0.52    0.15 
   7   6 -20    0.54    0.16 
  -7  -7  20    0.09    0.13 
   7   7 -20    0.23    0.13 
  -7  -8  20   -0.09    0.11 
   7   8 -20   -0.02    0.12 
  -7  -9  20   -0.04    0.12 
   7   9 -20    0.18    0.13 
  -7 -10  20   -0.15    0.10 
   7  10 -20   -0.01    0.13 
   8  -9 -20    0.00    0.14 
   8  -8 -20    0.07    0.14 
   8  -7 -20    0.11    0.14 
   8  -6 -20   -0.09    0.12 
   8  -5 -20    0.01    0.12 
   8  -4 -20   -0.01    0.10 
   8  -3 -20    0.11    0.10 
   8  -2 -20    0.20    0.11 
   8  -1 -20    0.01    0.10 
   8   0 -20    0.08    0.10 
   8   1 -20    0.03    0.10 
   8   2 -20    0.19    0.11 
   8   3 -20    0.00    0.10 
   8   4 -20    0.10    0.13 
  -8  -5  20    0.22    0.14 
   8   5 -20   -0.09    0.10 
  -8  -6  20    0.42    0.15 
   8   6 -20    0.17    0.13 
  -8  -7  20    0.14    0.13 
   8   7 -20    0.01    0.12 
  -8  -8  20    0.30    0.14 
   8   8 -20    0.20    0.14 
  -8  -9  20    0.25    0.14 
   8   9 -20   -0.06    0.12 
   9  -8 -20    0.05    0.14 
   9  -7 -20    0.05    0.12 
   9  -6 -20    0.00    0.11 
   9  -5 -20   -0.04    0.10 
   9  -4 -20    0.01    0.11 
   9  -3 -20   -0.08    0.10 
   9  -2 -20   -0.01    0.10 
   9  -1 -20    0.06    0.09 
   9   0 -20    0.37    0.14 
   9   1 -20    0.17    0.11 
   9   2 -20    0.00    0.11 
   9   3 -20   -0.03    0.10 
   9   4 -20   -0.13    0.10 
  -9  -5  20   -0.06    0.14 
   9   5 -20    0.17    0.12 
  -9  -6  20   -0.05    0.12 
   9   6 -20   -0.04    0.11 
  -9  -7  20    0.22    0.14 
   9   7 -20    0.29    0.14 
  -9  -8  20    0.23    0.16 
   9   8 -20    0.38    0.15 
  10  -7 -20    0.10    0.11 
  10  -6 -20    0.10    0.11 
  10  -5 -20    0.20    0.12 
  10  -4 -20    0.20    0.12 
  10  -3 -20    0.15    0.11 
  10  -2 -20   -0.01    0.10 
  10  -1 -20    0.05    0.10 
  10   0 -20    0.20    0.12 
  10   1 -20    0.06    0.11 
  10   2 -20   -0.11    0.10 
  10   3 -20    0.15    0.12 
  10   4 -20    0.19    0.12 
  10   5 -20   -0.02    0.14 
  10   5 -20    0.12    0.12 
  10   6 -20    0.12    0.15 
  10   6 -20    0.02    0.13 
 -10  -7  20    0.27    0.14 
  10   7 -20    0.10    0.12 
  11  -6 -20    0.05    0.10 
  11  -5 -20   -0.05    0.10 
  11  -4 -20   -0.07    0.09 
  11  -3 -20    0.09    0.10 
  11  -2 -20    0.15    0.11 
  11  -1 -20    0.23    0.12 
  11   0 -20    0.07    0.12 
  11   1 -20    0.01    0.11 
  11   2 -20   -0.04    0.10 
  11   3 -20    0.22    0.12 
  11   4 -20   -0.10    0.10 
  11   5 -20    0.04    0.11 
  11   6 -20    0.04    0.12 
  12  -3 -20    0.23    0.12 
  12  -2 -20    0.15    0.11 
  12  -1 -20    0.22    0.11 
  12   0 -20    0.34    0.14 
  12   1 -20    0.08    0.11 
  12   2 -20   -0.14    0.10 
  12   3 -20    0.08    0.11 
  12   4 -20    0.05    0.12 
 -11  -2 -21   -0.06    0.14 
 -11  -1 -21    0.29    0.15 
 -11   0 -21    0.07    0.14 
  11  -2  21    0.21    0.12 
 -10  -5 -21    0.10    0.14 
 -10  -4 -21    0.07    0.14 
 -10  -3 -21    0.00    0.14 
 -10  -2 -21    0.01    0.14 
 -10  -1 -21    0.20    0.15 
 -10   0 -21    0.09    0.14 
  10  -2  21   -0.08    0.10 
  10  -3  21   -0.01    0.11 
  10  -4  21    0.08    0.11 
  10  -5  21    0.04    0.11 
  -9  -6 -21    0.12    0.15 
  -9  -5 -21    0.13    0.15 
  -9  -4 -21   -0.01    0.13 
  -9  -3 -21    0.18    0.15 
  -9  -2 -21   -0.03    0.13 
  -9  -1 -21   -0.12    0.13 
  -9   0 -21    0.03    0.13 
  -9   1 -21    0.05    0.15 
   9  -2  21   -0.09    0.10 
   9  -3  21    0.28    0.12 
   9  -4  21   -0.13    0.10 
   9  -5  21   -0.05    0.11 
   9  -6  21    0.10    0.12 
  -8  -7 -21    0.18    0.15 
  -8  -6 -21   -0.04    0.13 
  -8  -5 -21    0.22    0.14 
  -8  -4 -21    0.08    0.14 
  -8  -3 -21    0.03    0.13 
  -8  -2 -21   -0.10    0.12 
  -8  -1 -21   -0.01    0.13 
  -8   0 -21    0.05    0.13 
   8  -2  21    0.02    0.11 
   8  -3  21    0.17    0.12 
   8  -4  21   -0.02    0.11 
   8  -5  21    0.07    0.10 
   8  -6  21    0.16    0.12 
   8  -7  21    0.13    0.12 
  -7  -8 -21    0.01    0.13 
  -7  -7 -21    0.30    0.16 
  -7  -6 -21    0.28    0.15 
  -7  -5 -21    0.31    0.15 
  -7  -4 -21    0.25    0.15 
  -7  -3 -21   -0.01    0.12 
  -7  -2 -21    0.02    0.13 
  -7  -1 -21    0.02    0.12 
   7  -2  21    0.17    0.12 
  -7   2 -21    0.17    0.13 
   7  -3  21    0.47    0.14 
  -7   3 -21    0.17    0.14 
   7  -4  21    0.51    0.14 
   7  -5  21    0.20    0.13 
   7  -6  21    0.17    0.12 
   7  -7  21    0.18    0.12 
   7  -8  21    0.11    0.11 
  -6  -9 -21    0.24    0.15 
  -6  -8 -21    0.04    0.14 
  -6  -7 -21    0.11    0.14 
  -6  -6 -21    0.08    0.13 
  -6  -5 -21    0.38    0.16 
  -6  -4 -21    0.10    0.14 
  -6  -3 -21   -0.09    0.11 
  -6  -2 -21    0.23    0.14 
  -6  -1 -21    0.01    0.14 
  -6   0 -21   -0.06    0.11 
  -6   1 -21    0.02    0.12 
   6  -2  21    0.27    0.12 
  -6   2 -21    0.42    0.14 
   6  -3  21    0.11    0.11 
  -6   3 -21   -0.09    0.12 
   6  -4  21    0.17    0.11 
  -6   4 -21    0.05    0.13 
   6  -5  21    0.28    0.13 
   6  -6  21    0.30    0.14 
   6  -7  21    0.05    0.11 
   6  -8  21    0.15    0.12 
   6  -9  21    0.14    0.12 
  -5  -9 -21    0.10    0.13 
  -5  -8 -21   -0.03    0.13 
  -5  -7 -21    0.17    0.14 
  -5  -6 -21   -0.02    0.13 
  -5  -5 -21    0.75    0.17 
  -5  -4 -21   -0.06    0.12 
  -5  -3 -21    0.12    0.13 
  -5  -2 -21    0.04    0.14 
  -5  -2 -21    0.03    0.12 
  -5  -1 -21    0.28    0.12 
  -5   0 -21   -0.07    0.10 
  -5   1 -21    0.39    0.13 
   5  -2  21   -0.10    0.10 
  -5   2 -21    0.06    0.12 
   5  -3  21   -0.03    0.10 
  -5   3 -21    0.04    0.12 
   5  -4  21    0.20    0.12 
  -5   4 -21   -0.05    0.12 
   5  -5  21    0.85    0.16 
  -5   5 -21    1.01    0.19 
   5  -6  21    0.01    0.10 
   5  -7  21   -0.05    0.10 
   5  -8  21   -0.08    0.10 
   5  -9  21   -0.04    0.11 
  -4 -10 -21    0.20    0.14 
  -4  -9 -21    0.19    0.16 
  -4  -8 -21   -0.05    0.13 
  -4  -7 -21   -0.03    0.13 
  -4  -6 -21   -0.03    0.13 
  -4  -5 -21   -0.12    0.11 
  -4  -4 -21    0.15    0.12 
  -4  -4 -21   -0.07    0.12 
  -4  -3 -21    0.17    0.11 
  -4  -3 -21    0.00    0.13 
  -4  -2 -21    0.57    0.15 
  -4  -1 -21   -0.03    0.11 
  -4   0 -21   -0.05    0.10 
  -4   1 -21    0.10    0.11 
   4  -2  21    0.40    0.13 
  -4   2 -21    0.50    0.15 
   4  -3  21    0.03    0.09 
  -4   3 -21    0.11    0.12 
   4  -4  21   -0.01    0.10 
  -4   4 -21    0.20    0.12 
   4  -5  21   -0.03    0.11 
  -4   5 -21    0.02    0.13 
   4  -6  21   -0.07    0.10 
  -4   6 -21    0.06    0.14 
   4  -7  21   -0.09    0.10 
   4  -8  21   -0.04    0.10 
   4  -9  21    0.16    0.13 
   4 -10  21   -0.08    0.10 
  -3 -10 -21    0.24    0.15 
  -3  -9 -21    0.00    0.13 
  -3  -8 -21    0.03    0.12 
  -3  -7 -21   -0.03    0.12 
  -3  -6 -21   -0.04    0.10 
  -3  -6 -21    0.21    0.13 
  -3  -5 -21    0.21    0.14 
  -3  -5 -21    0.11    0.11 
  -3  -4 -21    0.22    0.14 
  -3  -4 -21    0.30    0.13 
  -3  -3 -21   -0.06    0.10 
  -3  -2 -21    0.01    0.11 
  -3  -1 -21    0.53    0.15 
  -3   0 -21   -0.11    0.10 
  -3   1 -21    0.43    0.14 
  -3   2 -21   -0.08    0.10 
   3  -3  21    0.10    0.11 
  -3   3 -21   -0.01    0.11 
   3  -4  21    0.11    0.11 
  -3   4 -21    0.26    0.13 
   3  -5  21    0.18    0.12 
  -3   5 -21   -0.20    0.10 
   3  -6  21    0.07    0.11 
  -3   6 -21   -0.05    0.12 
   3  -7  21    0.06    0.11 
   3  -8  21   -0.07    0.11 
   3  -9  21    0.01    0.12 
   3 -10  21    0.14    0.12 
  -2 -10 -21    0.36    0.16 
  -2  -9 -21    0.56    0.17 
  -2  -8 -21    0.62    0.16 
  -2  -8 -21    0.24    0.13 
  -2  -7 -21   -0.04    0.10 
  -2  -7 -21    0.00    0.12 
  -2  -6 -21    0.03    0.12 
  -2  -6 -21    0.06    0.10 
  -2  -5 -21    0.05    0.10 
  -2  -5 -21   -0.04    0.13 
  -2  -4 -21    0.06    0.10 
  -2  -3 -21   -0.15    0.09 
  -2  -2 -21   -0.01    0.09 
  -2  -1 -21    0.14    0.11 
  -2   0 -21   -0.26    0.09 
  -2   1 -21    0.30    0.12 
  -2   2 -21    0.01    0.10 
   2  -3  21    0.05    0.11 
  -2   3 -21    0.09    0.10 
   2  -4  21   -0.06    0.08 
  -2   4 -21    0.08    0.12 
   2  -5  21    0.04    0.11 
  -2   5 -21    0.06    0.13 
   2  -6  21   -0.02    0.10 
  -2   6 -21    0.10    0.13 
   2  -7  21    0.08    0.12 
  -2   7 -21    0.01    0.13 
   2  -8  21    0.56    0.16 
   2  -9  21    0.14    0.12 
   2 -10  21    0.22    0.13 
  -1 -10 -21    0.08    0.13 
  -1 -10 -21    0.11    0.14 
  -1  -9 -21    0.74    0.16 
  -1  -9 -21    0.77    0.18 
  -1  -8 -21    0.07    0.12 
  -1  -8 -21   -0.01    0.13 
  -1  -7 -21   -0.05    0.10 
  -1  -7 -21    0.00    0.12 
  -1  -6 -21   -0.05    0.13 
  -1  -6 -21   -0.01    0.10 
  -1  -5 -21   -0.03    0.10 
  -1  -4 -21    0.23    0.12 
  -1  -3 -21    0.47    0.13 
  -1  -2 -21   -0.02    0.11 
  -1  -1 -21    0.11    0.10 
  -1   0 -21    0.05    0.11 
  -1   1 -21    0.09    0.11 
  -1   2 -21    0.03    0.11 
   1  -3  21    0.32    0.12 
  -1   3 -21    0.20    0.11 
   1  -4  21    0.13    0.11 
  -1   4 -21    0.19    0.12 
   1  -5  21    0.00    0.09 
  -1   5 -21    0.01    0.11 
   1  -6  21    0.04    0.11 
  -1   6 -21   -0.05    0.12 
   1  -7  21    0.05    0.11 
  -1   7 -21    0.04    0.12 
   1  -8  21   -0.02    0.11 
  -1   8 -21    0.09    0.14 
   1  -9  21    0.59    0.16 
   1 -10  21    0.08    0.13 
   0 -11 -21    0.06    0.13 
   0 -10 -21    0.07    0.12 
   0 -10 -21    0.26    0.15 
   0  -9 -21    0.26    0.14 
   0  -9 -21    0.04    0.14 
   0  -8 -21    0.33    0.15 
   0  -8 -21    0.84    0.17 
   0  -7 -21   -0.09    0.10 
   0  -6 -21   -0.05    0.10 
   0  -5 -21    0.14    0.11 
   0  -4 -21   -0.08    0.09 
   0  -3 -21   -0.11    0.09 
   0  -2 -21   -0.02    0.10 
   0  -1 -21    0.04    0.10 
   0   0 -21   -0.16    0.09 
   0   1 -21    0.11    0.11 
   0   2 -21    0.03    0.11 
   0  -3  21   -0.03    0.10 
   0   3 -21   -0.04    0.10 
   0  -4  21   -0.10    0.09 
   0   4 -21    0.03    0.10 
   0  -5  21    0.08    0.11 
   0   5 -21   -0.06    0.11 
   0  -6  21   -0.03    0.10 
   0   6 -21   -0.09    0.12 
   0  -7  21   -0.02    0.10 
   0   7 -21    0.02    0.13 
   0  -8  21    0.40    0.14 
   0   8 -21    0.64    0.18 
   0  -9  21    0.14    0.13 
   0 -10  21    0.20    0.14 
   1 -10 -21    0.02    0.13 
   1 -10 -21    0.13    0.15 
   1  -9 -21    0.37    0.16 
   1  -9 -21    0.48    0.15 
   1  -8 -21    0.06    0.12 
   1  -7 -21   -0.01    0.11 
   1  -6 -21   -0.07    0.09 
   1  -5 -21   -0.10    0.09 
   1  -4 -21    0.17    0.11 
   1  -3 -21    0.32    0.12 
   1  -2 -21    0.15    0.10 
   1  -1 -21    0.02    0.10 
   1   0 -21   -0.01    0.10 
   1   1 -21    0.03    0.10 
   1   2 -21    0.01    0.11 
   1   3 -21    0.53    0.15 
  -1  -4  21    0.30    0.12 
   1   4 -21    0.14    0.12 
  -1  -5  21    0.04    0.10 
   1   5 -21   -0.11    0.11 
  -1  -6  21   -0.07    0.10 
   1   6 -21    0.05    0.13 
  -1  -7  21    0.07    0.11 
   1   7 -21    0.02    0.13 
  -1  -8  21    0.05    0.11 
   1   8 -21    0.00    0.14 
  -1  -9  21    0.64    0.16 
   1   9 -21    0.54    0.19 
  -1 -10  21   -0.07    0.11 
   2 -10 -21    0.22    0.16 
   2 -10 -21    0.36    0.15 
   2  -9 -21    0.27    0.14 
   2  -8 -21    0.30    0.14 
   2  -7 -21    0.01    0.12 
   2  -6 -21    0.10    0.11 
   2  -5 -21   -0.01    0.10 
   2  -4 -21    0.12    0.11 
   2  -3 -21    0.18    0.11 
   2  -2 -21    0.08    0.11 
   2  -1 -21    0.25    0.12 
   2   0 -21   -0.08    0.09 
   2   1 -21    0.15    0.12 
   2   2 -21    0.10    0.12 
   2   3 -21    0.07    0.12 
  -2  -4  21    0.09    0.11 
   2   4 -21    0.11    0.12 
  -2  -5  21   -0.01    0.10 
   2   5 -21    0.10    0.12 
  -2  -6  21    0.18    0.12 
   2   6 -21   -0.09    0.12 
  -2  -7  21   -0.02    0.11 
   2   7 -21    0.05    0.13 
  -2  -8  21    0.47    0.15 
   2   8 -21    0.29    0.17 
  -2  -9  21    0.16    0.13 
   2   9 -21    0.31    0.16 
  -2 -10  21    0.49    0.15 
   3 -10 -21    0.04    0.14 
   3  -9 -21   -0.04    0.13 
   3  -8 -21    0.15    0.12 
   3  -7 -21    0.06    0.11 
   3  -6 -21    0.00    0.10 
   3  -5 -21   -0.07    0.10 
   3  -4 -21    0.49    0.13 
   3  -3 -21   -0.02    0.10 
   3  -2 -21   -0.01    0.11 
   3  -1 -21    0.39    0.14 
   3   0 -21    0.00    0.11 
   3   1 -21    0.32    0.13 
   3   2 -21    0.01    0.11 
   3   3 -21   -0.03    0.12 
  -3  -4  21    0.14    0.13 
   3   4 -21    0.08    0.12 
  -3  -5  21    0.09    0.11 
   3   5 -21    0.01    0.12 
  -3  -6  21   -0.02    0.12 
   3   6 -21    0.05    0.13 
  -3  -7  21   -0.09    0.12 
   3   7 -21   -0.07    0.10 
  -3  -8  21    0.18    0.13 
   3   8 -21    0.05    0.12 
  -3  -9  21    0.33    0.14 
   3   9 -21    0.15    0.13 
  -3 -10  21    0.04    0.13 
   4 -10 -21   -0.03    0.14 
   4  -9 -21    0.16    0.13 
   4  -8 -21   -0.08    0.12 
   4  -7 -21    0.12    0.12 
   4  -6 -21    0.11    0.12 
   4  -5 -21    0.10    0.11 
   4  -4 -21    0.15    0.11 
   4  -3 -21    0.04    0.11 
   4  -2 -21    0.47    0.14 
   4  -1 -21    0.01    0.11 
   4   0 -21    0.12    0.12 
   4   1 -21    0.01    0.11 
   4   2 -21    0.50    0.15 
   4   3 -21   -0.08    0.11 
   4   4 -21    0.11    0.13 
  -4  -5  21    0.08    0.13 
   4   5 -21    0.10    0.11 
  -4  -6  21   -0.01    0.11 
   4   6 -21   -0.16    0.10 
  -4  -7  21    0.04    0.12 
   4   7 -21   -0.01    0.12 
  -4  -8  21   -0.04    0.11 
   4   8 -21    0.07    0.12 
  -4  -9  21    0.22    0.13 
   4   9 -21    0.31    0.14 
  -4 -10  21    0.21    0.13 
   4  10 -21    0.02    0.13 
   5  -9 -21    0.01    0.13 
   5  -8 -21    0.00    0.13 
   5  -7 -21    0.11    0.13 
   5  -6 -21    0.09    0.13 
   5  -5 -21    0.98    0.18 
   5  -4 -21   -0.01    0.11 
   5  -3 -21    0.13    0.12 
   5  -2 -21    0.10    0.11 
   5  -1 -21    0.33    0.13 
   5   0 -21    0.11    0.11 
   5   1 -21    0.12    0.13 
   5   2 -21    0.05    0.12 
   5   3 -21    0.10    0.11 
   5   4 -21   -0.05    0.10 
  -5  -5  21    0.90    0.18 
   5   5 -21    0.82    0.17 
  -5  -6  21    0.11    0.12 
   5   6 -21    0.00    0.12 
  -5  -7  21    0.08    0.12 
   5   7 -21   -0.06    0.12 
  -5  -8  21   -0.02    0.11 
   5   8 -21   -0.09    0.11 
  -5  -9  21    0.15    0.13 
   5   9 -21    0.02    0.12 
   6  -9 -21   -0.02    0.13 
   6  -8 -21   -0.14    0.11 
   6  -7 -21    0.24    0.14 
   6  -6 -21    0.18    0.13 
   6  -5 -21    0.34    0.15 
   6  -4 -21    0.01    0.11 
   6  -3 -21    0.03    0.12 
   6  -2 -21    0.00    0.12 
   6  -1 -21    0.29    0.13 
   6   0 -21   -0.04    0.11 
   6   1 -21    0.04    0.10 
   6   2 -21    0.30    0.12 
   6   3 -21   -0.06    0.10 
   6   4 -21    0.01    0.11 
  -6  -5  21    0.46    0.16 
   6   5 -21    0.39    0.14 
  -6  -6  21    0.05    0.13 
   6   6 -21    0.15    0.13 
  -6  -7  21    0.02    0.12 
   6   7 -21    0.09    0.12 
  -6  -8  21    0.03    0.13 
   6   8 -21    0.09    0.13 
  -6  -9  21   -0.01    0.13 
   6   9 -21    0.21    0.14 
   7  -8 -21    0.04    0.14 
   7  -7 -21    0.00    0.13 
   7  -6 -21    0.19    0.14 
   7  -5 -21    0.12    0.13 
   7  -4 -21    0.21    0.13 
   7  -3 -21    0.03    0.13 
   7  -2 -21    0.03    0.11 
   7  -1 -21    0.21    0.12 
   7   0 -21   -0.10    0.09 
   7   1 -21    0.19    0.11 
   7   2 -21    0.16    0.11 
   7   3 -21   -0.04    0.10 
   7   4 -21    0.36    0.14 
   7   5 -21    0.18    0.12 
  -7  -6  21    0.19    0.14 
   7   6 -21    0.25    0.14 
  -7  -7  21    0.15    0.13 
   7   7 -21    0.24    0.14 
  -7  -8  21   -0.02    0.12 
   7   8 -21    0.14    0.14 
   8  -7 -21    0.21    0.15 
   8  -6 -21    0.12    0.13 
   8  -5 -21    0.15    0.14 
   8  -4 -21    0.06    0.11 
   8  -3 -21    0.16    0.12 
   8  -2 -21   -0.06    0.09 
   8  -1 -21    0.18    0.11 
   8   0 -21   -0.04    0.10 
   8   1 -21    0.04    0.11 
   8   2 -21   -0.03    0.11 
   8   3 -21   -0.03    0.10 
   8   4 -21   -0.04    0.11 
   8   5 -21    0.28    0.14 
  -8  -6  21    0.29    0.15 
   8   6 -21    0.08    0.13 
  -8  -7  21    0.18    0.14 
   8   7 -21    0.27    0.13 
   9  -6 -21    0.25    0.12 
   9  -5 -21    0.00    0.10 
   9  -4 -21    0.17    0.11 
   9  -3 -21    0.08    0.11 
   9  -2 -21    0.06    0.11 
   9  -1 -21   -0.04    0.09 
   9   0 -21    0.07    0.11 
   9   1 -21   -0.05    0.10 
   9   2 -21    0.00    0.10 
   9   3 -21    0.38    0.14 
   9   4 -21    0.00    0.11 
   9   5 -21    0.03    0.11 
  -9  -6  21    0.25    0.17 
   9   6 -21    0.28    0.13 
  10  -5 -21    0.15    0.11 
  10  -4 -21    0.11    0.11 
  10  -3 -21    0.15    0.12 
  10  -2 -21    0.04    0.11 
  10  -1 -21    0.07    0.11 
  10   0 -21    0.05    0.10 
  10   1 -21    0.14    0.12 
  10   2 -21   -0.05    0.10 
  10   3 -21    0.14    0.13 
  10   4 -21   -0.01    0.10 
  10   5 -21    0.28    0.13 
  11  -3 -21    0.10    0.11 
  11  -2 -21    0.22    0.13 
  11  -1 -21    0.26    0.13 
  11   0 -21    0.04    0.11 
  11   1 -21    0.08    0.12 
  11   2 -21    0.10    0.12 
  11   3 -21   -0.02    0.12 
  -9  -3 -22    0.09    0.16 
  -9  -2 -22    0.01    0.14 
  -9  -1 -22   -0.17    0.14 
   9  -3  22    0.10    0.11 
   9  -4  22    0.07    0.12 
  -8  -5 -22   -0.03    0.14 
  -8  -4 -22    0.26    0.16 
  -8  -3 -22   -0.01    0.14 
  -8  -2 -22    0.06    0.14 
   8  -3  22   -0.06    0.11 
   8  -4  22    0.29    0.12 
   8  -5  22   -0.07    0.10 
  -7  -6 -22   -0.02    0.14 
  -7  -5 -22    0.17    0.15 
  -7  -4 -22    0.09    0.15 
  -7  -3 -22    0.32    0.16 
  -7  -2 -22   -0.02    0.15 
   7  -3  22    0.21    0.13 
  -7   3 -22    0.35    0.17 
   7  -4  22    0.01    0.11 
   7  -5  22    0.09    0.12 
   7  -6  22    0.10    0.11 
  -6  -7 -22    0.16    0.15 
  -6  -6 -22    0.13    0.15 
  -6  -5 -22   -0.03    0.14 
  -6  -4 -22    0.18    0.14 
  -6  -3 -22   -0.23    0.13 
  -6   1 -22    0.37    0.15 
  -6   2 -22   -0.01    0.12 
   6  -3  22   -0.01    0.12 
  -6   3 -22   -0.15    0.12 
   6  -4  22    0.24    0.13 
  -6   4 -22    0.16    0.14 
   6  -5  22   -0.07    0.10 
   6  -6  22    0.19    0.14 
   6  -7  22    0.03    0.11 
  -5  -8 -22   -0.03    0.12 
  -5  -7 -22    0.16    0.15 
  -5  -6 -22    0.34    0.16 
  -5  -5 -22    0.02    0.13 
  -5  -4 -22    0.16    0.16 
  -5  -1 -22    0.06    0.12 
  -5   0 -22   -0.05    0.11 
  -5   1 -22    0.21    0.13 
  -5   2 -22   -0.15    0.11 
   5  -3  22    0.50    0.15 
  -5   3 -22    0.28    0.15 
   5  -4  22    0.27    0.13 
  -5   4 -22    0.28    0.16 
   5  -5  22    0.14    0.12 
  -5   5 -22    0.00    0.13 
   5  -6  22   -0.23    0.09 
   5  -7  22    0.01    0.11 
   5  -8  22    0.09    0.11 
  -4  -8 -22    0.10    0.15 
  -4  -7 -22    0.06    0.14 
  -4  -6 -22    0.05    0.14 
  -4  -5 -22   -0.13    0.14 
  -4  -3 -22    0.13    0.13 
  -4  -2 -22   -0.14    0.12 
  -4  -1 -22    0.03    0.11 
  -4   0 -22    0.07    0.12 
  -4   1 -22    0.10    0.12 
  -4   2 -22    0.12    0.13 
  -4   3 -22    0.10    0.13 
   4  -4  22   -0.01    0.11 
  -4   4 -22   -0.17    0.11 
   4  -5  22   -0.12    0.10 
  -4   5 -22   -0.22    0.12 
   4  -6  22   -0.02    0.11 
  -4   6 -22   -0.01    0.14 
   4  -7  22   -0.07    0.10 
   4  -8  22    0.05    0.12 
  -3  -9 -22   -0.21    0.13 
  -3  -8 -22   -0.07    0.14 
  -3  -7 -22    0.44    0.17 
  -3  -6 -22    0.11    0.15 
  -3  -5 -22    0.03    0.13 
  -3  -4 -22    0.17    0.13 
  -3  -3 -22    0.02    0.12 
  -3  -2 -22    0.15    0.11 
  -3  -1 -22    0.13    0.12 
  -3   0 -22    0.13    0.13 
  -3   1 -22    0.16    0.12 
  -3   2 -22    0.09    0.11 
  -3   3 -22    0.00    0.13 
   3  -4  22    0.13    0.12 
  -3   4 -22    0.27    0.15 
   3  -5  22    0.13    0.12 
  -3   5 -22   -0.02    0.13 
   3  -6  22    0.00    0.11 
  -3   6 -22    0.00    0.14 
   3  -7  22    0.16    0.12 
   3  -8  22    0.01    0.12 
   3  -9  22    0.14    0.12 
  -2  -9 -22   -0.13    0.13 
  -2  -8 -22   -0.05    0.14 
  -2  -7 -22   -0.01    0.15 
  -2  -7 -22    0.13    0.13 
  -2  -6 -22    0.20    0.13 
  -2  -5 -22    0.13    0.13 
  -2  -4 -22    0.05    0.12 
  -2  -3 -22    0.06    0.12 
  -2  -2 -22    0.01    0.13 
  -2  -1 -22    0.16    0.13 
  -2   0 -22   -0.12    0.12 
  -2   1 -22    0.05    0.13 
  -2   2 -22    0.05    0.12 
  -2   3 -22   -0.12    0.11 
   2  -4  22   -0.02    0.11 
  -2   4 -22    0.03    0.12 
   2  -5  22    0.41    0.14 
  -2   5 -22    0.17    0.14 
   2  -6  22    0.06    0.12 
  -2   6 -22   -0.06    0.13 
   2  -7  22   -0.03    0.11 
  -2   7 -22   -0.07    0.14 
   2  -8  22    0.07    0.12 
   2  -9  22   -0.14    0.10 
  -1  -9 -22    0.02    0.16 
  -1  -9 -22    0.10    0.13 
  -1  -8 -22   -0.09    0.12 
  -1  -7 -22    0.16    0.14 
  -1  -6 -22   -0.05    0.11 
  -1  -5 -22   -0.08    0.11 
  -1  -4 -22    0.09    0.12 
  -1  -3 -22    0.44    0.15 
  -1  -2 -22    0.07    0.11 
  -1  -1 -22    0.21    0.13 
  -1   0 -22    0.20    0.14 
  -1   1 -22    0.06    0.13 
  -1   2 -22   -0.01    0.11 
  -1   3 -22    0.20    0.13 
   1  -4  22    0.25    0.14 
  -1   4 -22    0.16    0.14 
   1  -5  22   -0.03    0.10 
  -1   5 -22    0.03    0.13 
   1  -6  22    0.05    0.11 
  -1   6 -22   -0.02    0.13 
   1  -7  22    0.25    0.13 
  -1   7 -22    0.23    0.17 
   1  -8  22   -0.03    0.12 
  -1   8 -22    0.06    0.15 
   1  -9  22   -0.06    0.11 
   0  -9 -22   -0.12    0.13 
   0  -8 -22    0.12    0.12 
   0  -7 -22    0.19    0.13 
   0  -6 -22    0.18    0.13 
   0  -5 -22   -0.08    0.11 
   0  -4 -22    0.25    0.13 
   0  -3 -22   -0.07    0.11 
   0  -2 -22    0.18    0.12 
   0  -1 -22    0.00    0.11 
   0   0 -22    0.02    0.12 
   0   1 -22    0.05    0.13 
   0   2 -22    0.11    0.12 
   0   3 -22   -0.01    0.11 
   0   4 -22    0.16    0.12 
   0  -5  22    0.01    0.11 
   0   5 -22   -0.06    0.12 
   0  -6  22    0.04    0.11 
   0   6 -22    0.08    0.14 
   0  -7  22   -0.06    0.11 
   0   7 -22    0.21    0.15 
   0  -8  22    0.22    0.12 
   0   8 -22   -0.16    0.14 
   0  -9  22   -0.11    0.11 
   1  -9 -22   -0.01    0.13 
   1  -8 -22    0.22    0.14 
   1  -7 -22    0.18    0.14 
   1  -6 -22   -0.10    0.10 
   1  -5 -22    0.00    0.12 
   1  -4 -22   -0.03    0.11 
   1  -3 -22    0.28    0.13 
   1  -2 -22    0.11    0.12 
   1  -1 -22    0.41    0.14 
   1   0 -22   -0.09    0.11 
   1   1 -22    0.20    0.13 
   1   2 -22    0.01    0.12 
   1   3 -22    0.21    0.13 
   1   4 -22   -0.04    0.12 
  -1  -5  22   -0.09    0.10 
   1   5 -22    0.13    0.13 
  -1  -6  22   -0.01    0.12 
   1   6 -22   -0.04    0.13 
  -1  -7  22    0.17    0.12 
   1   7 -22    0.26    0.17 
  -1  -8  22   -0.08    0.10 
   1   8 -22   -0.03    0.14 
  -1  -9  22   -0.09    0.11 
   1   9 -22    0.28    0.18 
   2  -9 -22    0.12    0.14 
   2  -8 -22    0.14    0.14 
   2  -7 -22    0.03    0.12 
   2  -6 -22   -0.03    0.12 
   2  -5 -22    0.05    0.11 
   2  -4 -22    0.04    0.11 
   2  -3 -22    0.04    0.11 
   2  -2 -22   -0.02    0.11 
   2  -1 -22    0.06    0.12 
   2   0 -22    0.06    0.12 
   2   1 -22    0.11    0.12 
   2   2 -22    0.14    0.14 
   2   3 -22    0.13    0.13 
   2   4 -22   -0.03    0.12 
  -2  -5  22    0.10    0.13 
   2   5 -22    0.14    0.14 
  -2  -6  22   -0.09    0.11 
   2   6 -22   -0.01    0.14 
  -2  -7  22    0.07    0.11 
   2   7 -22    0.22    0.17 
  -2  -8  22   -0.09    0.11 
   2   8 -22    0.14    0.16 
  -2  -9  22   -0.03    0.12 
   2   9 -22   -0.09    0.15 
   3  -9 -22    0.04    0.14 
   3  -8 -22    0.00    0.13 
   3  -7 -22    0.23    0.15 
   3  -6 -22    0.06    0.13 
   3  -5 -22   -0.03    0.12 
   3  -4 -22    0.12    0.13 
   3  -3 -22    0.06    0.12 
   3  -2 -22    0.01    0.11 
   3  -1 -22    0.11    0.13 
   3   0 -22   -0.14    0.10 
   3   1 -22    0.21    0.13 
   3   2 -22    0.14    0.14 
   3   3 -22    0.06    0.13 
   3   4 -22    0.13    0.14 
  -3  -5  22    0.03    0.13 
   3   5 -22   -0.07    0.13 
  -3  -6  22    0.06    0.11 
   3   6 -22    0.00    0.14 
  -3  -7  22    0.37    0.14 
   3   7 -22    0.18    0.15 
  -3  -8  22   -0.10    0.11 
   3   8 -22    0.15    0.12 
  -3  -9  22    0.19    0.13 
   3   9 -22    0.10    0.13 
   4  -8 -22   -0.01    0.13 
   4  -7 -22   -0.02    0.14 
   4  -6 -22    0.11    0.13 
   4  -5 -22    0.07    0.13 
   4  -4 -22    0.08    0.13 
   4  -3 -22    0.25    0.14 
   4  -2 -22   -0.06    0.11 
   4  -1 -22    0.18    0.13 
   4   0 -22    0.05    0.13 
   4   1 -22    0.04    0.12 
   4   2 -22   -0.04    0.12 
   4   3 -22    0.02    0.13 
   4   4 -22    0.02    0.14 
   4   5 -22    0.02    0.13 
  -4  -6  22    0.05    0.14 
   4   6 -22    0.04    0.11 
  -4  -7  22    0.08    0.13 
   4   7 -22   -0.06    0.11 
  -4  -8  22    0.03    0.13 
   4   8 -22    0.09    0.12 
   5  -8 -22   -0.12    0.13 
   5  -7 -22   -0.13    0.12 
   5  -6 -22   -0.05    0.13 
   5  -5 -22    0.01    0.12 
   5  -4 -22    0.04    0.13 
   5  -3 -22    0.39    0.14 
   5  -2 -22    0.02    0.12 
   5  -1 -22    0.15    0.13 
   5   0 -22    0.00    0.13 
   5   1 -22    0.38    0.15 
   5   2 -22   -0.15    0.12 
   5   3 -22    0.24    0.14 
   5   4 -22    0.29    0.14 
   5   5 -22    0.15    0.12 
  -5  -6  22   -0.26    0.11 
   5   6 -22    0.00    0.11 
  -5  -7  22    0.19    0.14 
   5   7 -22    0.22    0.13 
  -5  -8  22   -0.14    0.12 
   5   8 -22    0.24    0.14 
   6  -7 -22    0.07    0.13 
   6  -6 -22   -0.03    0.13 
   6  -5 -22    0.04    0.13 
   6  -4 -22    0.22    0.14 
   6  -3 -22    0.05    0.13 
   6  -2 -22   -0.02    0.13 
   6  -1 -22   -0.05    0.13 
   6   0 -22    0.07    0.14 
   6   1 -22    0.08    0.11 
   6   2 -22    0.09    0.12 
   6   3 -22    0.19    0.14 
   6   4 -22    0.02    0.11 
   6   5 -22    0.35    0.13 
  -6  -6  22   -0.01    0.15 
   6   6 -22    0.08    0.12 
  -6  -7  22   -0.15    0.11 
   6   7 -22    0.00    0.12 
   7  -6 -22    0.01    0.13 
   7  -5 -22   -0.01    0.12 
   7  -4 -22    0.03    0.12 
   7  -3 -22    0.21    0.15 
   7  -2 -22    0.07    0.13 
   7  -1 -22   -0.02    0.10 
   7   0 -22    0.36    0.14 
   7   1 -22    0.07    0.12 
   7   2 -22    0.18    0.12 
   7   3 -22    0.08    0.11 
   7   4 -22    0.19    0.13 
   7   5 -22    0.16    0.13 
   7   6 -22    0.09    0.13 
   8  -5 -22    0.15    0.15 
   8  -4 -22    0.11    0.14 
   8  -3 -22    0.00    0.10 
   8  -2 -22   -0.12    0.09 
   8  -1 -22   -0.02    0.10 
   8   0 -22   -0.07    0.10 
   8   1 -22   -0.06    0.11 
   8   2 -22    0.13    0.11 
   8   3 -22   -0.08    0.09 
   8   4 -22    0.27    0.13 
   8   5 -22    0.03    0.11 
   9  -4 -22    0.14    0.11 
   9  -3 -22    0.00    0.10 
   9  -2 -22    0.11    0.11 
   9  -1 -22   -0.01    0.10 
   9   0 -22    0.05    0.11 
   9   1 -22   -0.12    0.10 
   9   2 -22   -0.01    0.10 
   9   3 -22    0.32    0.13 
   9   4 -22    0.20    0.13 
  10  -1 -22    0.03    0.11 
  10   0 -22    0.37    0.14 
  10   1 -22    0.08    0.12 
   7  -4  23   -0.06    0.12 
  -6  -5 -23    0.12    0.16 
  -6   2 -23    0.46    0.18 
  -6   3 -23   -0.09    0.14 
   6  -4  23   -0.13    0.13 
  -6   4 -23    0.31    0.17 
   6  -5  23   -0.14    0.10 
  -5  -6 -23    0.23    0.17 
  -5   0 -23   -0.04    0.14 
  -5   1 -23   -0.01    0.13 
  -5   2 -23    0.17    0.16 
  -5   3 -23   -0.08    0.13 
  -5   4 -23    0.05    0.16 
   5  -5  23    0.15    0.14 
  -5   5 -23    0.20    0.17 
   5  -6  23    0.21    0.13 
  -4  -2 -23    0.06    0.14 
  -4  -1 -23   -0.08    0.13 
  -4   0 -23    0.00    0.13 
  -4   1 -23   -0.06    0.13 
  -4   2 -23    0.23    0.15 
  -4   3 -23    0.11    0.14 
  -4   4 -23    0.11    0.16 
   4  -5  23    0.22    0.13 
  -4   5 -23    0.16    0.16 
   4  -6  23    0.09    0.13 
  -3  -5 -23    0.19    0.15 
  -3  -4 -23    0.30    0.15 
  -3  -3 -23   -0.01    0.13 
  -3  -2 -23    0.13    0.15 
  -3  -1 -23   -0.16    0.12 
  -3   0 -23   -0.18    0.12 
  -3   1 -23    0.11    0.13 
  -3   2 -23    0.01    0.13 
  -3   3 -23    0.07    0.13 
  -3   4 -23    0.21    0.15 
   3  -5  23    0.29    0.15 
  -3   5 -23    0.25    0.17 
   3  -6  23   -0.05    0.11 
  -3   6 -23    0.02    0.16 
   3  -7  23    0.03    0.12 
  -2  -6 -23    0.26    0.15 
  -2  -5 -23    0.01    0.14 
  -2  -4 -23    0.04    0.13 
  -2  -3 -23   -0.12    0.12 
  -2  -2 -23    0.04    0.13 
  -2  -1 -23    0.02    0.14 
  -2   0 -23   -0.16    0.12 
  -2   1 -23   -0.12    0.12 
  -2   2 -23    0.18    0.14 
  -2   3 -23    0.00    0.14 
  -2   4 -23    0.22    0.15 
   2  -5  23    0.00    0.13 
  -2   5 -23   -0.05    0.13 
   2  -6  23    0.45    0.15 
  -2   6 -23    0.39    0.18 
   2  -7  23    0.21    0.13 
  -2   7 -23   -0.23    0.14 
  -1  -7 -23   -0.09    0.13 
  -1  -6 -23    0.06    0.13 
  -1  -5 -23    0.02    0.13 
  -1  -4 -23    0.13    0.13 
  -1  -3 -23    0.07    0.14 
  -1  -2 -23   -0.03    0.13 
  -1  -1 -23    0.05    0.13 
  -1   0 -23   -0.10    0.13 
  -1   1 -23    0.28    0.15 
  -1   2 -23   -0.03    0.12 
  -1   3 -23    0.23    0.14 
  -1   4 -23    0.18    0.15 
   1  -5  23    0.16    0.14 
  -1   5 -23    0.03    0.14 
   1  -6  23    0.08    0.12 
  -1   6 -23    0.12    0.16 
   1  -7  23   -0.04    0.11 
  -1   7 -23    0.03    0.16 
   0  -7 -23   -0.07    0.14 
   0  -6 -23    0.37    0.16 
   0  -5 -23   -0.03    0.12 
   0  -4 -23    0.27    0.15 
   0  -3 -23    0.02    0.13 
   0  -2 -23    0.07    0.13 
   0  -1 -23    0.13    0.14 
   0   0 -23    0.02    0.13 
   0   1 -23    0.07    0.13 
   0   2 -23   -0.14    0.12 
   0   3 -23   -0.02    0.13 
   0   4 -23    0.01    0.14 
   0   5 -23   -0.22    0.12 
   0  -6  23    0.12    0.13 
   0   6 -23    0.08    0.15 
   0  -7  23   -0.01    0.12 
   0   7 -23   -0.04    0.15 
   1  -7 -23    0.03    0.14 
   1  -6 -23    0.21    0.14 
   1  -5 -23   -0.11    0.13 
   1  -4 -23    0.22    0.14 
   1  -3 -23    0.30    0.15 
   1  -2 -23    0.03    0.13 
   1  -1 -23    0.04    0.13 
   1   0 -23   -0.02    0.13 
   1   1 -23    0.11    0.15 
   1   2 -23   -0.10    0.13 
   1   3 -23    0.02    0.13 
   1   4 -23    0.02    0.13 
   1   5 -23   -0.11    0.14 
  -1  -6  23   -0.06    0.12 
   1   6 -23    0.16    0.15 
  -1  -7  23    0.17    0.12 
   1   7 -23   -0.08    0.15 
   2  -7 -23    0.15    0.14 
   2  -6 -23    0.25    0.14 
   2  -5 -23    0.03    0.13 
   2  -4 -23    0.17    0.14 
   2  -3 -23    0.12    0.14 
   2  -2 -23   -0.02    0.13 
   2  -1 -23    0.02    0.13 
   2   0 -23   -0.06    0.13 
   2   1 -23    0.01    0.14 
   2   2 -23    0.20    0.16 
   2   3 -23    0.07    0.14 
   2   4 -23    0.36    0.16 
   2   5 -23   -0.09    0.14 
  -2  -6  23    0.14    0.14 
   2   6 -23    0.36    0.17 
  -2  -7  23   -0.05    0.12 
   2   7 -23    0.10    0.16 
   3  -7 -23    0.28    0.16 
   3  -6 -23    0.10    0.13 
   3  -5 -23    0.30    0.15 
   3  -4 -23    0.26    0.15 
   3  -3 -23    0.11    0.14 
   3  -2 -23    0.07    0.14 
   3  -1 -23    0.05    0.14 
   3   0 -23    0.03    0.14 
   3   1 -23   -0.07    0.12 
   3   2 -23    0.00    0.14 
   3   3 -23   -0.13    0.12 
   3   4 -23    0.15    0.15 
   3   5 -23    0.45    0.16 
   3   6 -23   -0.05    0.15 
  -3  -7  23    0.16    0.13 
   3   7 -23    0.21    0.17 
   4  -7 -23    0.20    0.14 
   4  -6 -23    0.09    0.13 
   4  -5 -23    0.07    0.14 
   4  -4 -23    0.02    0.13 
   4  -3 -23    0.17    0.15 
   4  -2 -23    0.20    0.15 
   4  -1 -23    0.01    0.14 
   4   0 -23   -0.08    0.12 
   4   1 -23   -0.04    0.13 
   4   2 -23    0.45    0.19 
   4   3 -23   -0.11    0.14 
   4   4 -23    0.09    0.15 
   4   5 -23    0.06    0.15 
   4   6 -23    0.13    0.13 
   4   7 -23    0.13    0.11 
   5  -6 -23    0.01    0.14 
   5  -5 -23    0.17    0.15 
   5  -4 -23   -0.01    0.13 
   5  -3 -23    0.06    0.14 
   5  -2 -23    0.21    0.15 
   5  -1 -23    0.02    0.14 
   5   0 -23   -0.03    0.13 
   5   1 -23    0.11    0.16 
   5   2 -23    0.39    0.17 
   5   3 -23    0.10    0.15 
   5   4 -23    0.01    0.10 
   5   5 -23    0.12    0.12 
   5   6 -23    0.08    0.12 
   6  -5 -23   -0.07    0.14 
   6  -4 -23    0.13    0.15 
   6  -3 -23   -0.11    0.13 
   6  -2 -23    0.38    0.16 
   6  -1 -23    0.09    0.14 
   6   0 -23    0.18    0.15 
   6   1 -23    0.10    0.14 
   6   2 -23    0.45    0.14 
   6   3 -23   -0.20    0.10 
   6   4 -23    0.13    0.12 
   6   5 -23    0.09    0.11 
   7  -4 -23    0.13    0.15 
   7  -3 -23    0.01    0.14 
   7  -2 -23    0.08    0.15 
   7  -1 -23    0.02    0.14 
   7   0 -23    0.20    0.12 
   7   1 -23    0.15    0.12 
   7   2 -23    0.18    0.12 
   7   3 -23    0.10    0.12 
   7   4 -23    0.34    0.14 
   8  -2 -23    0.52    0.14 
   8  -1 -23    0.26    0.14 
   8   0 -23    0.22    0.13 
   8   1 -23    0.22    0.13 
   8   2 -23    0.46    0.14 
  -5   1 -24    0.06    0.15 
  -5   2 -24    0.08    0.16 
  -5   3 -24    0.03    0.16 
  -4  -2 -24   -0.02    0.15 
  -4  -1 -24   -0.02    0.14 
  -4   0 -24    0.33    0.17 
  -4   1 -24   -0.07    0.15 
  -4   2 -24   -0.18    0.14 
  -4   3 -24    0.00    0.16 
  -4   4 -24    0.34    0.18 
  -3  -4 -24    0.28    0.17 
  -3  -3 -24    0.31    0.17 
  -3  -2 -24   -0.10    0.15 
  -3  -1 -24    0.01    0.14 
  -3   0 -24    0.20    0.16 
  -3   1 -24   -0.04    0.14 
  -3   2 -24   -0.12    0.15 
  -3   3 -24   -0.01    0.14 
  -3   4 -24    0.19    0.17 
  -2  -5 -24    0.00    0.15 
  -2  -4 -24    0.44    0.17 
  -2  -3 -24    0.03    0.15 
  -2  -2 -24    0.25    0.16 
  -2  -1 -24    0.08    0.15 
  -2   0 -24    0.03    0.14 
  -2   1 -24   -0.11    0.13 
  -2   2 -24    0.22    0.16 
  -2   3 -24   -0.18    0.14 
  -2   4 -24    0.31    0.17 
  -2   5 -24    0.08    0.16 
  -1  -5 -24    0.13    0.15 
  -1  -4 -24    0.09    0.15 
  -1  -3 -24    0.24    0.16 
  -1  -2 -24   -0.08    0.14 
  -1  -1 -24    0.52    0.19 
  -1   0 -24   -0.12    0.15 
  -1   1 -24    0.26    0.16 
  -1   2 -24    0.01    0.14 
  -1   3 -24    0.09    0.16 
  -1   4 -24   -0.04    0.15 
  -1   5 -24    0.22    0.17 
   0  -5 -24   -0.10    0.14 
   0  -4 -24    0.03    0.15 
   0  -3 -24   -0.05    0.14 
   0  -2 -24    0.26    0.17 
   0  -1 -24    0.00    0.14 
   0   0 -24    0.26    0.17 
   0   1 -24   -0.06    0.14 
   0   2 -24    0.08    0.15 
   0   3 -24   -0.09    0.13 
   0   4 -24    0.07    0.16 
   0   5 -24    0.06    0.15 
   1  -5 -24    0.11    0.15 
   1  -4 -24    0.19    0.15 
   1  -3 -24    0.15    0.16 
   1  -2 -24    0.00    0.15 
   1  -1 -24    0.40    0.18 
   1   0 -24    0.11    0.15 
   1   1 -24    0.41    0.18 
   1   2 -24    0.18    0.16 
   1   3 -24    0.08    0.16 
   1   4 -24    0.02    0.15 
   1   5 -24    0.05    0.15 
   2  -5 -24    0.26    0.16 
   2  -4 -24    0.07    0.15 
   2  -3 -24    0.17    0.15 
   2  -2 -24    0.02    0.15 
   2  -1 -24   -0.17    0.15 
   2   0 -24    0.13    0.16 
   2   1 -24   -0.01    0.17 
   2   2 -24    0.02    0.15 
   2   3 -24   -0.01    0.14 
   2   4 -24    0.42    0.19 
   2   5 -24    0.19    0.17 
   3  -4 -24    0.20    0.15 
   3  -3 -24    0.03    0.14 
   3  -2 -24    0.21    0.16 
   3  -1 -24   -0.16    0.14 
   3   0 -24    0.32    0.17 
   3   1 -24   -0.01    0.14 
   3   2 -24    0.06    0.16 
   3   3 -24    0.05    0.15 
   3   4 -24    0.06    0.16 
   4  -4 -24    0.21    0.16 
   4  -3 -24    0.16    0.16 
   4  -2 -24    0.15    0.15 
   4  -1 -24    0.00    0.15 
   4   0 -24    0.27    0.17 
   4   1 -24    0.00    0.15 
   4   2 -24   -0.23    0.15 
   4   3 -24   -0.14    0.15 
   4   4 -24    0.06    0.15 
   5  -3 -24    0.00    0.14 
   5  -2 -24   -0.04    0.14 
   5  -1 -24    0.14    0.17 
   5   0 -24   -0.04    0.15 
   5   1 -24   -0.10    0.15 
   5   2 -24    0.10    0.17 
   5   3 -24   -0.14    0.14 
   0   0 -25    0.12    0.18 
   0   0   0    0.00    0.00 
;
_shelx_hkl_checksum              19187
loop_
_space_group_symop_operation_xyz
'x, y, z'
'-x+1/2, -y, z+1/2'
'-x, y+1/2, -z+1/2'
'x+1/2, -y+1/2, -z'
'-x, -y, -z'
'x-1/2, y, -z-1/2'
'x, -y-1/2, z-1/2'
'-x-1/2, y-1/2, z'
loop_
_atom_site_label
_atom_site_type_symbol
_atom_site_fract_x
_atom_site_fract_y
_atom_site_fract_z
_atom_site_U_iso_or_equiv
_atom_site_adp_type
_atom_site_occupancy
_atom_site_site_symmetry_order
_atom_site_calc_flag
_atom_site_refinement_flags_posn
_atom_site_refinement_flags_adp
S1 S 0.01441(5) 0.10714(4) 0.40121(4) 0.0569(2) Uani 1 1 d . .
N1 N 0.05943(16) 0.13965(15) 0.24444(12) 0.0621(6) Uani 1 1 d . .
N2 N 0.09599(17) 0.13877(17) 0.12707(13) 0.0709(7) Uani 1 1 d . .
N3 N 0.09099(14) 0.16392(14) 0.36581(11) 0.0536(6) Uani 1 1 d . .
O1 O 0.12595(16) 0.07576(14) 0.23620(10) 0.0815(7) Uani 1 1 d . .
O2 O 0.03276(15) 0.10237(14) 0.47516(10) 0.0778(6) Uani 1 1 d . .
O3 O -0.06192(13) 0.14606(14) 0.37844(12) 0.0748(6) Uani 1 1 d . .
C1 C 0.1616(2) 0.0918(2) 0.16570(16) 0.0693(8) Uani 1 1 d . .
H1 H 0.2122 0.1284 0.1697 0.083 Uiso 1 1 calc R U
C2 C 0.0437(2) 0.16717(18) 0.17347(15) 0.0620(7) Uani 1 1 d . .
C3 C -0.03242(18) 0.22032(18) 0.15709(15) 0.0587(7) Uani 1 1 d . .
C4 C -0.0451(2) 0.2491(2) 0.08788(15) 0.0672(8) Uani 1 1 d . .
H4 H -0.0068 0.2339 0.0523 0.081 Uiso 1 1 calc R U
C5 C -0.1137(2) 0.3002(2) 0.07121(18) 0.0747(9) Uani 1 1 d . .
H5 H -0.1221 0.3188 0.0244 0.090 Uiso 1 1 calc R U
C6 C -0.1698(2) 0.3238(2) 0.12315(19) 0.0770(9) Uani 1 1 d . .
H6 H -0.2158 0.3590 0.1119 0.092 Uiso 1 1 calc R U
C7 C -0.1581(2) 0.2954(2) 0.19170(19) 0.0771(9) Uani 1 1 d . .
H7 H -0.1965 0.3114 0.2269 0.093 Uiso 1 1 calc R U
C8 C -0.09038(19) 0.2434(2) 0.20917(16) 0.0673(8) Uani 1 1 d . .
H8 H -0.0834 0.2238 0.2558 0.081 Uiso 1 1 calc R U
C9 C 0.18406(19) 0.00338(19) 0.13580(14) 0.0608(7) Uani 1 1 d . .
C10 C 0.1263(2) -0.0612(2) 0.13187(19) 0.0802(9) Uani 1 1 d . .
H10 H 0.0710 -0.0500 0.1458 0.096 Uiso 1 1 calc R U
C11 C 0.1473(3) -0.1423(2) 0.1079(2) 0.0931(11) Uani 1 1 d . .
H11 H 0.1064 -0.1860 0.1055 0.112 Uiso 1 1 calc R U
C12 C 0.2275(3) -0.1601(3) 0.08728(19) 0.0908(11) Uani 1 1 d . .
H12 H 0.2416 -0.2165 0.0723 0.109 Uiso 1 1 calc R U
C13 C 0.2869(3) -0.0966(3) 0.0883(2) 0.0995(13) Uani 1 1 d . .
H13 H 0.3414 -0.1084 0.0728 0.119 Uiso 1 1 calc R U
C14 C 0.2654(2) -0.0130(3) 0.11313(18) 0.0856(10) Uani 1 1 d . .
H14 H 0.3057 0.0313 0.1144 0.103 Uiso 1 1 calc R U
C15 C 0.08225(16) 0.20194(18) 0.29677(13) 0.0522(6) Uani 1 1 d . .
C16 C 0.09547(17) 0.28626(18) 0.28318(14) 0.0546(7) Uani 1 1 d . .
H16 H 0.0981 0.3003 0.2349 0.066 Uiso 1 1 calc R U
C17 C 0.10661(16) 0.36075(17) 0.33136(15) 0.0539(7) Uani 1 1 d . .
C18 C 0.1325(2) 0.4399(2) 0.30165(18) 0.0751(9) Uani 1 1 d . .
H18 H 0.1438 0.4432 0.2530 0.090 Uiso 1 1 calc R U
C19 C 0.1415(3) 0.5138(2) 0.3436(2) 0.0942(11) Uani 1 1 d . .
H19 H 0.1579 0.5666 0.3228 0.113 Uiso 1 1 calc R U
C20 C 0.1267(3) 0.5104(2) 0.4148(2) 0.0953(12) Uani 1 1 d . .
H20 H 0.1340 0.5602 0.4428 0.114 Uiso 1 1 calc R U
C21 C 0.1014(2) 0.4341(2) 0.44473(19) 0.0801(10) Uani 1 1 d . .
H21 H 0.0910 0.4319 0.4936 0.096 Uiso 1 1 calc R U
C22 C 0.09083(19) 0.3595(2) 0.40405(16) 0.0660(8) Uani 1 1 d . .
H22 H 0.0729 0.3078 0.4256 0.079 Uiso 1 1 calc R U
C23 C 0.1761(2) 0.1499(3) 0.39338(19) 0.0927(12) Uani 1 1 d . .
H23A H 0.1941 0.0913 0.3821 0.139 Uiso 1 1 calc R U
H23B H 0.1761 0.1577 0.4443 0.139 Uiso 1 1 calc R U
H23C H 0.2139 0.1915 0.3719 0.139 Uiso 1 1 calc R U
C24 C 0.0195(2) 0.00059(19) 0.36696(18) 0.0818(10) Uani 1 1 d . .
H24A H -0.0195 -0.0363 0.3922 0.123 Uiso 1 1 calc R U
H24B H 0.0756 -0.0219 0.3727 0.123 Uiso 1 1 calc R U
H24C H 0.0052 0.0014 0.3171 0.123 Uiso 1 1 calc R U
loop_
_atom_site_aniso_label
_atom_site_aniso_U_11
_atom_site_aniso_U_22
_atom_site_aniso_U_33
_atom_site_aniso_U_23
_atom_site_aniso_U_13
_atom_site_aniso_U_12
S1 0.0706(5) 0.0455(4) 0.0547(4) 0.0052(3) 0.0110(3) 0.0025(3)
N1 0.0890(17) 0.0493(13) 0.0478(13) -0.0025(10) 0.0039(12) 0.0115(12)
N2 0.0908(19) 0.0628(16) 0.0589(15) 0.0013(12) 0.0058(14) 0.0067(14)
N3 0.0644(14) 0.0509(13) 0.0454(12) 0.0053(10) 0.0038(10) 0.0001(10)
O1 0.1271(19) 0.0692(13) 0.0482(11) -0.0001(10) 0.0084(11) 0.0350(13)
O2 0.1057(17) 0.0768(15) 0.0509(12) 0.0093(10) 0.0130(10) -0.0037(12)
O3 0.0667(13) 0.0665(13) 0.0914(15) 0.0154(11) 0.0124(11) 0.0048(10)
C1 0.084(2) 0.0632(19) 0.0611(18) -0.0042(15) 0.0011(15) -0.0032(16)
C2 0.085(2) 0.0513(16) 0.0494(16) -0.0032(13) 0.0053(14) 0.0011(15)
C3 0.0748(19) 0.0481(15) 0.0533(16) -0.0040(12) 0.0011(13) -0.0091(13)
C4 0.084(2) 0.0606(18) 0.0569(17) 0.0029(14) 0.0018(15) -0.0023(16)
C5 0.080(2) 0.072(2) 0.072(2) 0.0143(17) -0.0103(17) -0.0140(18)
C6 0.063(2) 0.077(2) 0.092(2) 0.0065(19) -0.0111(18) -0.0117(16)
C7 0.0614(19) 0.089(2) 0.081(2) -0.0089(19) 0.0011(16) -0.0087(17)
C8 0.0686(19) 0.073(2) 0.0602(17) -0.0039(15) -0.0014(14) -0.0098(16)
C9 0.0714(19) 0.0613(18) 0.0498(15) -0.0032(13) 0.0051(13) 0.0079(15)
C10 0.078(2) 0.073(2) 0.090(2) -0.0110(18) 0.0186(18) -0.0053(18)
C11 0.110(3) 0.067(2) 0.102(3) -0.005(2) 0.016(2) -0.008(2)
C12 0.118(3) 0.075(2) 0.079(2) -0.0231(19) -0.004(2) 0.027(2)
C13 0.077(2) 0.128(4) 0.093(3) -0.048(3) 0.010(2) 0.018(2)
C14 0.078(2) 0.100(3) 0.079(2) -0.022(2) 0.0047(18) -0.017(2)
C15 0.0583(15) 0.0525(16) 0.0459(14) 0.0002(12) 0.0069(11) 0.0019(12)
C16 0.0594(16) 0.0570(17) 0.0474(14) 0.0079(12) 0.0047(12) 0.0001(13)
C17 0.0528(15) 0.0487(15) 0.0602(17) 0.0029(13) -0.0061(12) -0.0001(12)
C18 0.091(2) 0.0593(19) 0.075(2) 0.0152(16) -0.0142(17) -0.0101(16)
C19 0.121(3) 0.051(2) 0.111(3) 0.009(2) -0.021(2) -0.0162(19)
C20 0.123(3) 0.063(2) 0.100(3) -0.017(2) -0.025(2) -0.006(2)
C21 0.102(3) 0.066(2) 0.073(2) -0.0129(17) -0.0084(18) -0.0007(19)
C22 0.077(2) 0.0590(18) 0.0616(18) -0.0006(14) 0.0026(15) -0.0015(15)
C23 0.070(2) 0.126(3) 0.083(2) 0.033(2) -0.0059(17) -0.005(2)
C24 0.118(3) 0.0447(17) 0.082(2) 0.0015(16) 0.010(2) -0.0022(17)
loop_
_atom_type_symbol
_atom_type_description
_atom_type_scat_dispersion_real
_atom_type_scat_dispersion_imag
_atom_type_scat_source
C C 0.0033 0.0016 'International Tables Vol C Tables 4.2.6.8 and 6.1.1.4'
H H 0.0000 0.0000 'International Tables Vol C Tables 4.2.6.8 and 6.1.1.4'
N N 0.0061 0.0033 'International Tables Vol C Tables 4.2.6.8 and 6.1.1.4'
O O 0.0106 0.0060 'International Tables Vol C Tables 4.2.6.8 and 6.1.1.4'
S S 0.1246 0.1234 'International Tables Vol C Tables 4.2.6.8 and 6.1.1.4'
loop_
_geom_angle_atom_site_label_1
_geom_angle_atom_site_label_2
_geom_angle_atom_site_label_3
_geom_angle
O3 S1 O2 119.48(14)
O3 S1 N3 107.05(12)
O2 S1 N3 105.74(12)
O3 S1 C24 108.55(16)
O2 S1 C24 107.57(15)
N3 S1 C24 107.96(14)
C15 N1 C2 119.9(2)
C15 N1 O1 109.8(2)
C2 N1 O1 103.2(2)
C2 N2 C1 107.0(2)
C15 N3 C23 118.1(2)
C15 N3 S1 120.79(18)
C23 N3 S1 117.85(19)
N1 O1 C1 105.5(2)
N2 C1 O1 104.8(2)
N2 C1 C9 115.1(2)
O1 C1 C9 106.2(2)
N2 C1 H1 110.1
O1 C1 H1 110.1
C9 C1 H1 110.1
N2 C2 N1 115.1(3)
N2 C2 C3 124.9(3)
N1 C2 C3 119.9(2)
C4 C3 C8 118.9(3)
C4 C3 C2 119.0(3)
C8 C3 C2 122.2(3)
C5 C4 C3 120.5(3)
C5 C4 H4 119.8
C3 C4 H4 119.8
C6 C5 C4 120.2(3)
C6 C5 H5 119.9
C4 C5 H5 119.9
C5 C6 C7 119.9(3)
C5 C6 H6 120.1
C7 C6 H6 120.1
C6 C7 C8 120.8(3)
C6 C7 H7 119.6
C8 C7 H7 119.6
C7 C8 C3 119.8(3)
C7 C8 H8 120.1
C3 C8 H8 120.1
C10 C9 C14 119.2(3)
C10 C9 C1 120.9(3)
C14 C9 C1 119.9(3)
C9 C10 C11 121.0(3)
C9 C10 H10 119.5
C11 C10 H10 119.5
C10 C11 C12 120.4(4)
C10 C11 H11 119.8
C12 C11 H11 119.8
C13 C12 C11 120.5(3)
C13 C12 H12 119.7
C11 C12 H12 119.7
C12 C13 C14 119.1(3)
C12 C13 H13 120.4
C14 C13 H13 120.4
C9 C14 C13 119.6(3)
C9 C14 H14 120.2
C13 C14 H14 120.2
C16 C15 N1 123.9(2)
C16 C15 N3 123.6(2)
N1 C15 N3 112.5(2)
C15 C16 C17 130.8(2)
C15 C16 H16 114.6
C17 C16 H16 114.6
C22 C17 C18 117.3(3)
C22 C17 C16 125.1(2)
C18 C17 C16 117.5(3)
C19 C18 C17 120.6(3)
C19 C18 H18 119.7
C17 C18 H18 119.7
C20 C19 C18 120.8(3)
C20 C19 H19 119.6
C18 C19 H19 119.6
C21 C20 C19 119.5(3)
C21 C20 H20 120.2
C19 C20 H20 120.2
C20 C21 C22 121.0(3)
C20 C21 H21 119.5
C22 C21 H21 119.5
C21 C22 C17 120.7(3)
C21 C22 H22 119.6
C17 C22 H22 119.6
N3 C23 H23A 109.5
N3 C23 H23B 109.5
H23A C23 H23B 109.5
N3 C23 H23C 109.5
H23A C23 H23C 109.5
H23B C23 H23C 109.5
S1 C24 H24A 109.5
S1 C24 H24B 109.5
H24A C24 H24B 109.5
S1 C24 H24C 109.5
H24A C24 H24C 109.5
H24B C24 H24C 109.5
loop_
_geom_bond_atom_site_label_1
_geom_bond_atom_site_label_2
_geom_bond_distance
S1 O3 1.414(2)
S1 O2 1.417(2)
S1 N3 1.631(2)
S1 C24 1.746(3)
N1 C15 1.410(3)
N1 C2 1.416(4)
N1 O1 1.443(3)
N2 C2 1.277(4)
N2 C1 1.455(4)
N3 C15 1.423(3)
N3 C23 1.460(4)
O1 C1 1.457(4)
C1 C9 1.500(4)
C1 H1 0.9800
C2 C3 1.485(4)
C3 C4 1.383(4)
C3 C8 1.385(4)
C4 C5 1.374(4)
C4 H4 0.9300
C5 C6 1.365(5)
C5 H5 0.9300
C6 C7 1.367(4)
C6 H6 0.9300
C7 C8 1.373(4)
C7 H7 0.9300
C8 H8 0.9300
C9 C10 1.346(4)
C9 C14 1.382(4)
C10 C11 1.355(5)
C10 H10 0.9300
C11 C12 1.357(5)
C11 H11 0.9300
C12 C13 1.349(6)
C12 H12 0.9300
C13 C14 1.396(5)
C13 H13 0.9300
C14 H14 0.9300
C15 C16 1.325(4)
C16 C17 1.460(4)
C16 H16 0.9300
C17 C22 1.384(4)
C17 C18 1.389(4)
C18 C19 1.379(5)
C18 H18 0.9300
C19 C20 1.353(5)
C19 H19 0.9300
C20 C21 1.351(5)
C20 H20 0.9300
C21 C22 1.377(4)
C21 H21 0.9300
C22 H22 0.9300
C23 H23A 0.9600
C23 H23B 0.9600
C23 H23C 0.9600
C24 H24A 0.9600
C24 H24B 0.9600
C24 H24C 0.9600
loop_
_geom_hbond_atom_site_label_D
_geom_hbond_atom_site_label_H
_geom_hbond_atom_site_label_A
_geom_hbond_distance_DH
_geom_hbond_distance_HA
_geom_hbond_distance_DA
_geom_hbond_angle_DHA
C24 H24C N1 0.96 2.65 3.185(4) 115.7
C24 H24C N1 0.96 2.65 3.185(4) 115.7
C24 H24C N1 0.96 2.65 3.185(4) 115.7
loop_
_geom_torsion_atom_site_label_1
_geom_torsion_atom_site_label_2
_geom_torsion_atom_site_label_3
_geom_torsion_atom_site_label_4
_geom_torsion
O3 S1 N3 C15 -34.4(2)
O2 S1 N3 C15 -162.8(2)
C24 S1 N3 C15 82.3(2)
O3 S1 N3 C23 166.5(2)
O2 S1 N3 C23 38.1(3)
C24 S1 N3 C23 -76.8(3)
C15 N1 O1 C1 -111.1(2)
C2 N1 O1 C1 17.9(3)
C2 N2 C1 O1 16.4(3)
C2 N2 C1 C9 132.7(3)
N1 O1 C1 N2 -21.1(3)
N1 O1 C1 C9 -143.4(2)
C1 N2 C2 N1 -5.2(3)
C1 N2 C2 C3 178.8(3)
C15 N1 C2 N2 114.2(3)
O1 N1 C2 N2 -8.3(3)
C15 N1 C2 C3 -69.5(4)
O1 N1 C2 C3 168.0(2)
N2 C2 C3 C4 -6.4(4)
N1 C2 C3 C4 177.7(3)
N2 C2 C3 C8 174.8(3)
N1 C2 C3 C8 -1.0(4)
C8 C3 C4 C5 0.4(4)
C2 C3 C4 C5 -178.4(3)
C3 C4 C5 C6 0.7(5)
C4 C5 C6 C7 -0.9(5)
C5 C6 C7 C8 0.2(5)
C6 C7 C8 C3 0.9(5)
C4 C3 C8 C7 -1.1(4)
C2 C3 C8 C7 177.6(3)
N2 C1 C9 C10 -61.2(4)
O1 C1 C9 C10 54.2(4)
N2 C1 C9 C14 120.0(3)
O1 C1 C9 C14 -124.5(3)
C14 C9 C10 C11 1.7(5)
C1 C9 C10 C11 -177.0(3)
C9 C10 C11 C12 0.1(6)
C10 C11 C12 C13 -2.0(6)
C11 C12 C13 C14 2.1(6)
C10 C9 C14 C13 -1.6(5)
C1 C9 C14 C13 177.1(3)
C12 C13 C14 C9 -0.3(6)
C2 N1 C15 C16 -4.4(4)
O1 N1 C15 C16 114.8(3)
C2 N1 C15 N3 176.6(2)
O1 N1 C15 N3 -64.2(3)
C23 N3 C15 C16 -74.5(4)
S1 N3 C15 C16 126.5(3)
C23 N3 C15 N1 104.5(3)
S1 N3 C15 N1 -54.5(3)
N1 C15 C16 C17 169.5(3)
N3 C15 C16 C17 -11.6(5)
C15 C16 C17 C22 -11.9(5)
C15 C16 C17 C18 170.3(3)
C22 C17 C18 C19 -0.2(5)
C16 C17 C18 C19 177.8(3)
C17 C18 C19 C20 1.1(6)
C18 C19 C20 C21 -1.2(6)
C19 C20 C21 C22 0.4(6)
C20 C21 C22 C17 0.6(5)
C18 C17 C22 C21 -0.6(4)
C16 C17 C22 C21 -178.4(3)
