#------------------------------------------------------------------------------
#$Date: 2017-05-31 04:19:47 +0300 (Wed, 31 May 2017) $
#$Revision: 197055 $
#$URL: file:///home/coder/svn-repositories/cod/cif/1/54/61/1546130.cif $
#------------------------------------------------------------------------------
#
# This file is available in the Crystallography Open Database (COD),
# http://www.crystallography.net/
#
# All data on this site have been placed in the public domain by the
# contributors.
#
data_1546130
loop_
_publ_author_name
'Sairenji, Shiho'
'Kikuchi, Takashi'
'Abozeid, Mohamed Ahmed'
'Takizawa, Shinobu'
'Sasai, Hiroaki'
'Ando, Yuichiro'
'Ohmatsu, Kohsuke'
'Ooi, Takashi'
'Fujita, Makoto'
_publ_section_title
;
 Determination of the absolute configuration of compounds bearing chiral
 quaternary carbon centers using the crystalline sponge method
;
_journal_name_full               'Chem. Sci.'
_journal_paper_doi               10.1039/C7SC01524K
_journal_year                    2017
_chemical_absolute_configuration S
_chemical_formula_moiety
'(C72 H48 N12 Zn6 I12.03), 0.48(C24 H27 N O6 S), (C6 H12), 5.67(C2 H4 Cl2)'
_chemical_formula_sum
'C100.85 H95.62 Cl11.35 I12.03 N24.48 O2.88 S0.48 Zn6'
_chemical_formula_weight         4033.02
_space_group_crystal_system      monoclinic
_space_group_IT_number           5
_space_group_name_Hall           'C 2y'
_space_group_name_H-M_alt        'C 1 2 1'
_symmetry_space_group_name_Hall  'C 2y'
_symmetry_space_group_name_H-M   'C 1 2 1'
_atom_sites_solution_hydrogens   geom
_audit_creation_method           SHELXL-2014/7
_audit_update_record
;
2017-04-21 deposited with the CCDC.
2017-05-30 downloaded from the CCDC.
;
_cell_angle_alpha                90
_cell_angle_beta                 101.047(3)
_cell_angle_gamma                90
_cell_formula_units_Z            4
_cell_length_a                   33.9973(10)
_cell_length_b                   14.9225(3)
_cell_length_c                   31.1158(8)
_cell_measurement_reflns_used    14689
_cell_measurement_temperature    100.00(10)
_cell_measurement_theta_max      74.3620
_cell_measurement_theta_min      3.6380
_cell_volume                     15493.3(7)
_computing_cell_refinement       'CrysAlisPro 1.171.38.41 (Rigaku OD, 2015)'
_computing_data_collection       'CrysAlisPro 1.171.38.41 (Rigaku OD, 2015)'
_computing_data_reduction        'CrysAlisPro 1.171.38.41 (Rigaku OD, 2015)'
_computing_molecular_graphics    'shelXle (Hubschle et al., 2011)'
_computing_publication_material  'SHELXL-2014/7 (Sheldrick, 2014)'
_computing_structure_refinement  'SHELXL-2014/7 (Sheldrick, 2014)'
_computing_structure_solution    'SHELXT-2014/5 (Sheldrick, 2014)'
_diffrn_ambient_temperature      100.00(10)
_diffrn_detector_area_resol_mean 5.2332
_diffrn_measured_fraction_theta_full 0.999
_diffrn_measured_fraction_theta_max 0.999
_diffrn_measurement_device_type  'SuperNova, Dual, Cu at zero, AtlasS2'
_diffrn_measurement_method       '\w scans'
_diffrn_radiation_type           CuK\a
_diffrn_radiation_wavelength     1.54184
_diffrn_reflns_av_R_equivalents  0.0696
_diffrn_reflns_av_unetI/netI     0.0781
_diffrn_reflns_Laue_measured_fraction_full 0.999
_diffrn_reflns_Laue_measured_fraction_max 0.999
_diffrn_reflns_limit_h_max       40
_diffrn_reflns_limit_h_min       -37
_diffrn_reflns_limit_k_max       17
_diffrn_reflns_limit_k_min       -17
_diffrn_reflns_limit_l_max       35
_diffrn_reflns_limit_l_min       -37
_diffrn_reflns_number            68884
_diffrn_reflns_point_group_measured_fraction_full 0.998
_diffrn_reflns_point_group_measured_fraction_max 0.998
_diffrn_reflns_theta_full        67.684
_diffrn_reflns_theta_max         68.247
_diffrn_reflns_theta_min         3.530
_diffrn_source                   'micro-focus sealed X-ray tube'
_exptl_absorpt_coefficient_mu    22.084
_exptl_absorpt_correction_T_max  0.997
_exptl_absorpt_correction_T_min  0.992
_exptl_absorpt_correction_type   gaussian
_exptl_absorpt_process_details
;
CrysAlisPro 1.171.38.41 (Rigaku Oxford Diffraction, 2015)
Numerical absorption correction based on gaussian integration over
            a multifaceted crystal model
Empirical absorption correction using spherical harmonics,
 implemented in SCALE3 ABSPACK scaling algorithm.
;
_exptl_crystal_colour            colorless
_exptl_crystal_density_diffrn    1.729
_exptl_crystal_description       block
_exptl_crystal_F_000             7653
_exptl_crystal_size_max          0.262
_exptl_crystal_size_mid          0.163
_exptl_crystal_size_min          0.085
_refine_diff_density_max         1.150
_refine_diff_density_min         -1.371
_refine_diff_density_rms         0.161
_refine_ls_abs_structure_details
;
 Flack x determined using 6282 quotients [(I+)-(I-)]/[(I+)+(I-)]
 (Parsons, Flack and Wagner, Acta Cryst. B69 (2013) 249-259).
;
_refine_ls_abs_structure_Flack   0.044(7)
_refine_ls_extinction_method     none
_refine_ls_goodness_of_fit_ref   1.037
_refine_ls_hydrogen_treatment    constr
_refine_ls_matrix_type           full
_refine_ls_number_parameters     1986
_refine_ls_number_reflns         28286
_refine_ls_number_restraints     4835
_refine_ls_restrained_S_all      1.019
_refine_ls_R_factor_all          0.1099
_refine_ls_R_factor_gt           0.0818
_refine_ls_shift/su_max          0.000
_refine_ls_shift/su_mean         0.000
_refine_ls_structure_factor_coef Fsqd
_refine_ls_weighting_details
'w=1/[\s^2^(Fo^2^)+(0.1517P)^2^+3.2230P] where P=(Fo^2^+2Fc^2^)/3'
_refine_ls_weighting_scheme      calc
_refine_ls_wR_factor_gt          0.2226
_refine_ls_wR_factor_ref         0.2560
_reflns_Friedel_coverage         0.917
_reflns_Friedel_fraction_full    0.996
_reflns_Friedel_fraction_max     0.996
_reflns_number_gt                19013
_reflns_number_total             28286
_reflns_threshold_expression     'I > 2\s(I)'
_cod_data_source_file            c7sc01524k2.cif
_cod_data_source_block           exp_591_sq
_cod_database_code               1546130
_shelx_shelxl_version_number     2014/7
_shelx_space_group_comment
;
The symmetry employed for this shelxl refinement is uniquely defined
by the following loop, which should always be used as a source of
symmetry information in preference to the above space-group names.
They are only intended as comments.
;
_shelx_res_file
;

    exp_591_sq.res created by SHELXL-2014/7


TITL shelxt_b.res in C2
CELL  1.54184  33.9973  14.9225  31.1158   90.000  101.047   90.000
ZERR     4.00   0.0010   0.0003   0.0008    0.000    0.003    0.000
LATT  -7
SYMM  - X,   Y, - Z
SFAC  C    H    N    O    ZN   I S Cl
UNIT 403.4 382.5 97.92 11.5 24 48.12 1.917 45.39
LIST 4
MERG   2
FMAP   2
PLAN   100
BOND   $H
L.S. 50 0  118

ACTA
SIMU
RIGU

DFIX 1.54 C90a C91a C91a C92a C92a C93a C93a C94a C94a C95a C95a C90a
DANG 2.51 C90a C92a C92a C94a C94a C90a C91a C93a C93a C95a C95a C91a
SIMU C90a > C95a
ISOR C90a > C95a

SADI C74 C75 C73 C74

SIMU 0.01 0.02 C122 > CL24
ISOR C122 C123

EADP ZN5B ZN5A
EADP I10A I10B I10C

EQIV $1 1/2+X, -1/2+Y, Z
FREE I10C_$1 C111
FREE C96 S1
FREE C88 O3
FREE C88 S1
FREE C88 N25
FREE C96 N25
FREE I11C I12A
FREE I12C C106
FREE I12C Cl12
FREE I5A I6C
FREE I10C I9C
FREE I10C I9A
FREE I12C H10G
FREE O3 H88A
FREE S1 H88A
FREE O3 H88C
FREE N25 H88A

SADI C90 O1 C96 O6
DFIX 1.43 C90 O2 C93 O2 C96 O5 C97 O5
DFIX 1.54 C83 C88 C93 C94 C97 C98 C73 C96
DFIX 1.54 C73 C82
DANG 2.51 C82 C88
DANG 2.51 C84 C88

FLAT C82 > C87 C88
FLAT C76 > C81 C99

DANG 2.52 C84 C88 C82 C88
DFIX -2.0 C88 O3
DFIX 1.54 C100 C101
SADI C100 Cl1 C101 Cl2
DFIX 1.54 C122 C123
DFIX 1.79 C122 CL23 C123 CL24
DANG 2.76 C122 CL24 C123 CL23 C117 CL17 C111 CL11

SUMP 1.0 0.01 1.0 2 1.0 3 1.0 4
SUMP 1.0 0.01 1.0 6 1.0 7 1.0 8
ABIN
WGHT    0.151700    3.223000
FVAR       0.59200   0.47938   0.45207   0.14564   0.60010   0.32749   0.43218
FVAR       0.27450   0.51487
AFIX  66
SAME C9 C10 C11 C12 C13 N5
SAME C14 C15 C16 C17 C18 N6
SAME C19 C20 C21 C22 C23 N7
SAME C27 C28 C29 C30 C31 N11
SAME C32 C33 C34 C35 C36 N12
SAME C37 C38 C39 C40 C41 N13
SAME C45 C46 C47 C48 C49 N17
SAME C50 C51 C52 C53 C54 N18
SAME C55 C56 C57 C58 C59 N19
SAME C63 C64 C65 C66 C67 N23
SAME C68 C69 C70 C71 C72 N24
C1    1    0.121383    0.122402    0.389702    11.00000    0.07622    0.04349 =
         0.07210   -0.01047   -0.04553   -0.00009
AFIX  43
H1    2    0.102016    0.151490    0.369297    11.00000   -1.20000
AFIX  65
C2    1    0.142886    0.169594    0.425053    11.00000    0.05931    0.03640 =
         0.06490   -0.00919   -0.03117    0.00156
AFIX  43
H2    2    0.137905    0.230257    0.428299    11.00000   -1.20000
AFIX  65
C3    1    0.171834    0.126119    0.455551    11.00000    0.04514    0.02948 =
         0.05430    0.00236   -0.02503   -0.00800
C4    1    0.179279    0.035451    0.450700    11.00000    0.08079    0.03094 =
         0.06571   -0.00081   -0.03676    0.00572
AFIX  43
H4    2    0.198647    0.006363    0.471106    11.00000   -1.20000
AFIX  65
C5    1    0.157776   -0.011743    0.415350    11.00000    0.09569    0.03981 =
         0.07489    0.00084   -0.04500    0.00574
AFIX  43
H5    2    0.162757   -0.072406    0.412104    11.00000   -1.20000
AFIX  65
N1    3    0.128828    0.031732    0.384851    11.00000    0.07813    0.03503 =
         0.05721    0.00133   -0.02569   -0.00225
AFIX   0
SAME C24 C25 C26 N8 N9 N10
SAME C42 C43 C44 N14 N15 N16
SAME C60 C61 C62 N20 N21 N22
C6    1    0.193826    0.176785    0.494084    11.00000    0.04785    0.02717 =
         0.05849    0.00225   -0.02834   -0.00400
C7    1    0.205298    0.308592    0.530519    11.00000    0.04629    0.02379 =
         0.05613   -0.00148   -0.02065   -0.00122
C8    1    0.239889    0.184766    0.554758    11.00000    0.05539    0.02462 =
         0.06631   -0.00122   -0.03288   -0.00106
N2    3    0.182930    0.262404    0.496524    11.00000    0.04903    0.02696 =
         0.06507    0.00209   -0.02639   -0.00553
N3    3    0.233319    0.273001    0.560858    11.00000    0.05332    0.02311 =
         0.06597   -0.00373   -0.03669   -0.00332
N4    3    0.222131    0.134833    0.522705    11.00000    0.05867    0.02270 =
         0.06636   -0.00295   -0.03608   -0.00339

C9    1    0.211259    0.551726    0.558598    11.00000    0.10075    0.02756 =
         0.10559   -0.01522   -0.01326   -0.01079
AFIX  43
H9    2    0.226717    0.590433    0.578385    11.00000   -1.20000
AFIX   0
C10   1    0.219870    0.460163    0.562025    11.00000    0.09749    0.03006 =
         0.10041   -0.01791   -0.03826   -0.01107
AFIX  43
H10   2    0.239737    0.437624    0.584146    11.00000   -1.20000
AFIX   0
C11   1    0.197565    0.404559    0.531097    11.00000    0.06891    0.02339 =
         0.06265   -0.00103   -0.01545   -0.00454
C12   1    0.167596    0.440505    0.500131    11.00000    0.11927    0.03549 =
         0.08473   -0.01314   -0.04526    0.02014
AFIX  43
H12   2    0.152244    0.403610    0.479333    11.00000   -1.20000
AFIX   0
C13   1    0.160194    0.531505    0.499814    11.00000    0.12059    0.03926 =
         0.09886   -0.00826   -0.01905    0.02219
AFIX  43
H13   2    0.139385    0.554853    0.479027    11.00000   -1.20000
AFIX   0
C14   1    0.306085    0.007799    0.617355    11.00000    0.08435    0.03899 =
         0.13398    0.01516   -0.08521   -0.01165
AFIX  43
H14   2    0.311882   -0.052422    0.614032    11.00000   -1.20000
AFIX   0
C15   1    0.277893    0.048784    0.585672    11.00000    0.10230    0.02446 =
         0.13074    0.00174   -0.08550    0.00536
AFIX  43
H15   2    0.263541    0.016022    0.562429    11.00000   -1.20000
AFIX   0
C16   1    0.271538    0.138896    0.589257    11.00000    0.05798    0.02200 =
         0.08706    0.00946   -0.05057   -0.00403
C17   1    0.290826    0.184785    0.625845    11.00000    0.09677    0.03734 =
         0.09269    0.00617   -0.07318   -0.00860
AFIX  43
H17   2    0.285646    0.245169    0.629643    11.00000   -1.20000
AFIX   0
C18   1    0.318163    0.138319    0.656806    11.00000    0.09733    0.04331 =
         0.11270    0.01254   -0.08597   -0.02252
AFIX  43
H18   2    0.331758    0.169252    0.681116    11.00000   -1.20000
AFIX   0
C19   1    0.101929    0.690003    0.571350    11.00000    0.14221    0.06425 =
         0.11121   -0.04376    0.02145   -0.01801
AFIX  43
H19   2    0.093362    0.649057    0.548981    11.00000   -1.20000
AFIX   0
C20   1    0.081209    0.695314    0.605202    11.00000    0.14366    0.06096 =
         0.10968   -0.03854    0.01827   -0.01516
AFIX  43
H20   2    0.063687    0.649807    0.609532    11.00000   -1.20000
AFIX   0
C21   1    0.086737    0.769559    0.632935    11.00000    0.08145    0.03974 =
         0.06610   -0.00781   -0.03018    0.01398
C22   1    0.119957    0.820512    0.631444    11.00000    0.11070    0.06626 =
         0.10962   -0.03405    0.00472   -0.01559
AFIX  43
H22   2    0.126915    0.866426    0.651683    11.00000   -1.20000
AFIX   0
C23   1    0.143502    0.804887    0.600217    11.00000    0.11344    0.06120 =
         0.10969   -0.02593    0.01012   -0.01032
AFIX  43
H23   2    0.166419    0.839262    0.600819    11.00000   -1.20000
AFIX   0
C24   1    0.062622    0.785003    0.665889    11.00000    0.07524    0.03905 =
         0.06329   -0.00829   -0.04213    0.01568
C25   1    0.011940    0.743199    0.698784    11.00000    0.06746    0.03138 =
         0.05922   -0.00216   -0.05510    0.00692
C26   1    0.048236    0.866296    0.720093    11.00000    0.06172    0.03568 =
         0.04984   -0.00284   -0.04515    0.00233
C27   1   -0.071665    0.625468    0.737240    11.00000    0.07019    0.06346 =
         0.12894    0.00298   -0.05177   -0.02374
AFIX  43
H27   2   -0.084197    0.626621    0.761307    11.00000   -1.20000
AFIX   0
C28   1   -0.038590    0.679420    0.737337    11.00000    0.07815    0.05445 =
         0.09000   -0.01079   -0.04418   -0.02494
AFIX  43
H28   2   -0.028508    0.713901    0.761875    11.00000   -1.20000
AFIX   0
C29   1   -0.020576    0.682525    0.701675    11.00000    0.06773    0.03476 =
         0.08394   -0.00658   -0.04960   -0.00166
C30   1   -0.038166    0.635466    0.665196    11.00000    0.11456    0.09363 =
         0.11834   -0.04165   -0.04524   -0.04445
AFIX  43
H30   2   -0.030344    0.643990    0.638440    11.00000   -1.20000
AFIX   0
C31   1   -0.068065    0.574628    0.669554    11.00000    0.11674    0.08971 =
         0.13976   -0.03487   -0.05083   -0.05156
AFIX  43
H31   2   -0.075856    0.533348    0.647148    11.00000   -1.20000
AFIX   0
C32   1    0.095233    1.074248    0.775099    11.00000    0.10722    0.04304 =
         0.05456   -0.00641   -0.02357   -0.02744
AFIX  43
H32   2    0.118678    1.106879    0.775967    11.00000   -1.20000
AFIX   0
C33   1    0.088540    0.999807    0.748713    11.00000    0.09746    0.04825 =
         0.06663   -0.01156   -0.02259   -0.02206
AFIX  43
H33   2    0.107142    0.983367    0.731794    11.00000   -1.20000
AFIX   0
C34   1    0.053855    0.948749    0.747240    11.00000    0.07408    0.03394 =
         0.04367   -0.00248   -0.03570   -0.00262
C35   1    0.028181    0.974841    0.773349    11.00000    0.06505    0.04785 =
         0.05794   -0.01555   -0.03919   -0.00269
AFIX  43
H35   2    0.004894    0.942064    0.773229    11.00000   -1.20000
AFIX   0
C36   1    0.036095    1.049755    0.800283    11.00000    0.08557    0.04493 =
         0.04459   -0.01333   -0.03452   -0.00601
AFIX  43
H36   2    0.018727    1.064721    0.818892    11.00000   -1.20000
AFIX   0
C37   1    0.152235    1.175840    0.919594    11.00000    0.12118    0.01297 =
         0.08776   -0.00242   -0.07842   -0.00678
AFIX  43
H37   2    0.157408    1.236301    0.916011    11.00000   -1.20000
AFIX   0
C38   1    0.174693    1.133635    0.954202    11.00000    0.07959    0.02053 =
         0.06291   -0.00461   -0.05068   -0.00375
AFIX  43
H38   2    0.195452    1.163802    0.972275    11.00000   -1.20000
AFIX   0
C39   1    0.166529    1.044725    0.962593    11.00000    0.06289    0.02317 =
         0.05549   -0.00545   -0.04305    0.00520
C40   1    0.138748    1.003080    0.931733    11.00000    0.09812    0.02652 =
         0.07550    0.00393   -0.06859   -0.01185
AFIX  43
H40   2    0.134392    0.941821    0.933720    11.00000   -1.20000
AFIX   0
C41   1    0.116928    1.051946    0.897325    11.00000    0.12636    0.02870 =
         0.08502    0.00152   -0.08594   -0.01321
AFIX  43
H41   2    0.096650    1.022666    0.878138    11.00000   -1.20000
AFIX   0
C42   1    0.190088    0.994220    0.998435    11.00000    0.06159    0.02468 =
         0.05207   -0.00441   -0.03443    0.00713
C43   1    0.238787    0.984697    1.059117    11.00000    0.06765    0.02693 =
         0.06136   -0.00148   -0.03964    0.01417
C44   1    0.202560    0.864196    1.034669    11.00000    0.08070    0.02781 =
         0.05225    0.00254   -0.02754    0.00552
C45   1    0.322437    1.033005    1.152455    11.00000    0.09560    0.04363 =
         0.08050   -0.00224   -0.06334    0.00520
AFIX  43
H45   2    0.337687    1.002625    1.175985    11.00000   -1.20000
AFIX   0
C46   1    0.293476    0.986868    1.124500    11.00000    0.08569    0.03299 =
         0.07462   -0.00309   -0.05290    0.00943
AFIX  43
H46   2    0.289267    0.926338    1.129122    11.00000   -1.20000
AFIX   0
C47   1    0.270528    1.030873    1.089350    11.00000    0.06881    0.03069 =
         0.06812   -0.00460   -0.04516    0.01900
C48   1    0.278625    1.120418    1.083734    11.00000    0.09269    0.03691 =
         0.09988    0.00619   -0.07218    0.00807
AFIX  43
H48   2    0.264412    1.151823    1.059922    11.00000   -1.20000
AFIX   0
C49   1    0.307768    1.162830    1.113493    11.00000    0.10599    0.03597 =
         0.10664    0.00074   -0.07485    0.00207
AFIX  43
H49   2    0.312218    1.223575    1.109747    11.00000   -1.20000
AFIX   0
C50   1    0.161620    0.633769    0.999479    11.00000    0.14341    0.02740 =
         0.10667    0.00184   -0.06398   -0.01344
AFIX  43
H50   2    0.140928    0.610193    0.978620    11.00000   -1.20000
AFIX   0
C51   1    0.167145    0.724829    1.002109    11.00000    0.13723    0.02374 =
         0.08696   -0.00152   -0.05696   -0.00725
AFIX  43
H51   2    0.150898    0.761590    0.982005    11.00000   -1.20000
AFIX   0
C52   1    0.196163    0.763228    1.033789    11.00000    0.10721    0.02320 =
         0.07532    0.01072   -0.04397    0.00011
C53   1    0.220695    0.706854    1.061429    11.00000    0.10327    0.02512 =
         0.09032    0.01715   -0.03989    0.00112
AFIX  43
H53   2    0.241986    0.729245    1.081908    11.00000   -1.20000
AFIX   0
C54   1    0.213089    0.614941    1.058244    11.00000    0.11743    0.02657 =
         0.09833    0.02088   -0.04223   -0.00041
AFIX  43
H54   2    0.227811    0.577233    1.079133    11.00000   -1.20000
AFIX   0
C55   1    0.432996    1.082277    1.160098    11.00000    0.11415    0.09628 =
         0.07121    0.01122   -0.02047    0.04137
AFIX  43
H55   2    0.419305    1.107779    1.134249    11.00000   -1.20000
AFIX   0
C56   1    0.465468    1.028182    1.158082    11.00000    0.10941    0.10341 =
         0.07591    0.02717   -0.01412    0.04422
AFIX  43
H56   2    0.475370    1.022299    1.132359    11.00000   -1.20000
AFIX   0
C57   1    0.482902    0.982589    1.196152    11.00000    0.07417    0.04436 =
         0.06539    0.00521   -0.02920    0.00727
C58   1    0.466655    0.991503    1.233169    11.00000    0.07010    0.02936 =
         0.06801    0.00284   -0.03068    0.00724
AFIX  43
H58   2    0.476460    0.957606    1.257992    11.00000   -1.20000
AFIX   0
C59   1    0.435313    1.051933    1.233078    11.00000    0.06954    0.04384 =
         0.06928   -0.00287   -0.03741    0.00741
AFIX  43
H59   2    0.424761    1.058957    1.258327    11.00000   -1.20000
AFIX   0
C60   1    0.516437    0.923014    1.195286    11.00000    0.07118    0.04517 =
         0.06499    0.00854   -0.02515    0.01178
C61   1    0.551179    0.798242    1.216606    11.00000    0.06641    0.03100 =
         0.05349    0.00230   -0.02739   -0.00123
C62   1    0.566815    0.884474    1.162680    11.00000    0.07708    0.04578 =
         0.06502    0.00747   -0.02052    0.00245
C63   1    0.539405    0.612158    1.295362    11.00000    0.07674    0.04019 =
         0.05856    0.01018   -0.04087   -0.00542
AFIX  43
H63   2    0.521281    0.594337    1.312603    11.00000   -1.20000
AFIX   0
C64   1    0.531545    0.690148    1.270019    11.00000    0.06275    0.04358 =
         0.05423    0.00848   -0.04395   -0.01038
AFIX  43
H64   2    0.509034    0.724824    1.271138    11.00000   -1.20000
AFIX   0
C65   1    0.557654    0.714165    1.243633    11.00000    0.07914    0.03352 =
         0.04831    0.00474   -0.03370   -0.00281
C66   1    0.589583    0.659615    1.241379    11.00000    0.12988    0.07509 =
         0.10007    0.04135    0.01484    0.03844
AFIX  43
H66   2    0.607262    0.673822    1.223001    11.00000   -1.20000
AFIX   0
C67   1    0.595142    0.582733    1.266977    11.00000    0.13082    0.06985 =
         0.09823    0.03950    0.01293    0.03641
AFIX  43
H67   2    0.615814    0.543879    1.263912    11.00000   -1.20000
AFIX   0
C68   1    0.651477    0.866596    1.100866    11.00000    0.11762    0.08345 =
         0.11619    0.03451    0.02389    0.00935
AFIX  43
H68   2    0.674648    0.832980    1.101722    11.00000   -1.20000
AFIX   0
C69   1    0.629122    0.853440    1.132499    11.00000    0.09612    0.08574 =
         0.10436    0.04146    0.00519    0.02085
AFIX  43
H69   2    0.637925    0.813745    1.155361    11.00000   -1.20000
AFIX   0
C70   1    0.593068    0.899638    1.130458    11.00000    0.08310    0.05632 =
         0.08151    0.01962   -0.01109    0.00258
C71   1    0.582125    0.961242    1.097463    11.00000    0.10845    0.09819 =
         0.10274    0.05003    0.01005    0.02644
AFIX  43
H71   2    0.558330    0.993329    1.094804    11.00000   -1.20000
AFIX   0
C72   1    0.607531    0.973784    1.068559    11.00000    0.13845    0.08780 =
         0.13673    0.05079    0.03861    0.02289
AFIX  43
H72   2    0.601058    1.018205    1.047423    11.00000   -1.20000
AFIX   0
N5    3    0.182022    0.586624    0.528433    11.00000    0.11052    0.04273 =
         0.09211   -0.00685   -0.00072    0.00786
N6    3    0.325669    0.052191    0.653205    11.00000    0.07348    0.04361 =
         0.11880    0.01719   -0.06721   -0.02591
N7    3    0.134088    0.741508    0.569176    11.00000    0.11085    0.03595 =
         0.08714   -0.00611   -0.00509    0.01210
N8    3    0.033931    0.724694    0.667854    11.00000    0.07316    0.04257 =
         0.06919   -0.01092   -0.04619    0.01182
N9    3    0.018865    0.809915    0.726532    11.00000    0.06668    0.03568 =
         0.05784   -0.00340   -0.04195   -0.00197
N10   3    0.070760    0.859765    0.690228    11.00000    0.07893    0.03979 =
         0.05251   -0.00374   -0.03817    0.01275
N11   3   -0.086162    0.571689    0.703562    11.00000    0.07282    0.05295 =
         0.13801    0.00054   -0.06913   -0.01406
N13   3    0.123249    1.138239    0.890090    11.00000    0.09257    0.02162 =
         0.06200   -0.00685   -0.05126   -0.00018
N12   3    0.069066    1.101402    0.799644    11.00000    0.09445    0.03747 =
         0.04563   -0.00373   -0.04193   -0.01394
N15   3    0.233951    0.898078    1.063848    11.00000    0.07036    0.02996 =
         0.05209   -0.00415   -0.02542    0.00858
N14   3    0.219051    1.035999    1.025807    11.00000    0.06838    0.02101 =
         0.06794   -0.00443   -0.04954    0.01061
N16   3    0.180021    0.907565    1.002097    11.00000    0.08732    0.02371 =
         0.05095    0.00224   -0.04018    0.00085
N17   3    0.329778    1.121031    1.147243    11.00000    0.08375    0.03660 =
         0.08092   -0.01123   -0.05317    0.00687
N19   3    0.420058    1.100154    1.197335    11.00000    0.07832    0.05218 =
         0.06434    0.00433   -0.03765    0.02110
N18   3    0.185516    0.578545    1.026426    11.00000    0.10830    0.02892 =
         0.08735    0.00849   -0.02860   -0.00368
N20   3    0.521536    0.852657    1.224010    11.00000    0.06424    0.03737 =
         0.05194    0.00518   -0.03557    0.00480
N21   3    0.574726    0.809921    1.187914    11.00000    0.07130    0.04320 =
         0.05814    0.00538   -0.02283    0.00382
N24   3    0.640937    0.926378    1.068799    11.00000    0.10800    0.04144 =
         0.08757    0.00754    0.00547   -0.00961
N23   3    0.572359    0.562473    1.295445    11.00000    0.09524    0.03579 =
         0.05598    0.01002   -0.02892    0.00397
N22   3    0.538506    0.942498    1.165054    11.00000    0.07739    0.04894 =
         0.07049    0.01608   -0.01973    0.00862
PART 2 -21.0
SAME C102 C103 Cl3 Cl4
SAME C104 C105 Cl5 Cl6
SAME C106 C107 Cl7 Cl8
SAME C108 C109 Cl9 Cl10
SAME C110 C111 Cl11 Cl12
SAME C112 C113 Cl13 Cl14
SAME C114 C115 Cl15 Cl16
SAME C116 C117 Cl17 Cl18
SAME C118 C119 Cl19 Cl20
SAME C120 C121 Cl21 Cl22
SAME C126 C127 Cl27 Cl28
C100  1    0.016117    0.255040    0.379340   -21.00000    0.10758    0.16234 =
         0.08548   -0.02294   -0.02616    0.04253
AFIX  23
H10A  2    0.004400    0.314526    0.376639   -21.00000   -1.20000
H10B  2    0.033495    0.247879    0.358225   -21.00000   -1.20000
AFIX   0
C101  1   -0.015970    0.181594    0.374754   -21.00000    0.10837    0.16309 =
         0.08714   -0.04468   -0.00654    0.04529
AFIX  23
H10C  2   -0.031048    0.189765    0.397960   -21.00000   -1.20000
H10D  2   -0.002444    0.124217    0.379646   -21.00000   -1.20000
AFIX   0
CL1   8    0.042254    0.232009    0.434904   -21.00000    0.13835    0.25445 =
         0.08890   -0.03748   -0.02214    0.09059
CL2   8   -0.051986    0.175398    0.322308   -21.00000    0.11159    0.23844 =
         0.10208   -0.07871   -0.01343    0.02026
PART 0
PART 2 31.0
C102  1   -0.135912    0.445592    0.317110    31.00000    0.11897    0.11530 =
         0.18514   -0.00312   -0.01594   -0.00980
AFIX  23
H10E  2   -0.155068    0.403650    0.301048    31.00000   -1.20000
H10F  2   -0.138936    0.503543    0.302732    31.00000   -1.20000
AFIX   0
C103  1   -0.093158    0.410845    0.323022    31.00000    0.12186    0.11687 =
         0.18236   -0.01607   -0.02384   -0.01005
AFIX  23
H10G  2   -0.089396    0.389900    0.294576    31.00000   -1.20000
H10H  2   -0.091558    0.358491    0.341754    31.00000   -1.20000
AFIX   0
CL3   8   -0.140208    0.453390    0.374944    31.00000    0.13100    0.12479 =
         0.19070    0.00896   -0.01894    0.03440
CL4   8   -0.049792    0.481536    0.345086    31.00000    0.10577    0.09151 =
         0.04781    0.00118   -0.00057   -0.00223

PART -1 21.0
C73   1    0.013575    0.464168    0.490714    21.00000    0.07248    0.06622 =
         0.05937    0.00443    0.00125    0.01353
C74   1    0.032615    0.422857    0.533875    21.00000    0.06980    0.07638 =
         0.06156    0.00868    0.00881    0.01738
AFIX  23
H74A  2    0.014937    0.384163    0.546547    21.00000   -1.20000
H74B  2    0.046419    0.465221    0.555201    21.00000   -1.20000
AFIX   0
C75   1    0.059562    0.373983    0.508301    21.00000    0.06941    0.07006 =
         0.04950    0.01214    0.00573    0.01523
C76   1    0.022532    0.324092    0.397944    21.00000    0.08371    0.10814 =
         0.04983   -0.00070    0.00861    0.02843
C77   1   -0.011299    0.346373    0.361680    21.00000    0.09079    0.13221 =
         0.04734   -0.02369   -0.00108    0.04657
AFIX  43
H77   2   -0.014212    0.405160    0.351651    21.00000   -1.20000
AFIX   0
C78   1   -0.037078    0.286215    0.343415    21.00000    0.09303    0.13946 =
         0.06649   -0.02846   -0.01256    0.04365
AFIX  43
H78   2   -0.057374    0.300658    0.319888    21.00000   -1.20000
AFIX   0
C79   1   -0.033021    0.198454    0.360679    21.00000    0.08717    0.14019 =
         0.06791   -0.03011   -0.03128    0.03603
C80   1   -0.000149    0.168897    0.396930    21.00000    0.07578    0.11902 =
         0.06116   -0.02092   -0.02002    0.02428
AFIX  43
H80   2    0.001157    0.110994    0.408168    21.00000   -1.20000
AFIX   0
C81   1    0.029606    0.236512    0.413443    21.00000    0.09031    0.11369 =
         0.06099   -0.00413   -0.02488    0.01806
AFIX  43
H81   2    0.052604    0.222061    0.433655    21.00000   -1.20000
AFIX   0
SAME C76 > C81
C82   1    0.012339    0.564578    0.500202    21.00000    0.09211    0.06641 =
         0.08254    0.00118   -0.01136    0.01448
C83   1    0.038031    0.623053    0.478834    21.00000    0.12010    0.06737 =
         0.12305    0.00434    0.01924    0.00889
C84   1    0.038349    0.710358    0.483661    21.00000    0.13066    0.06908 =
         0.15177    0.00170    0.04020    0.01028
AFIX  43
H84   2    0.054674    0.746797    0.470303    21.00000   -1.20000
AFIX   0
C85   1    0.012733    0.746680    0.510112    21.00000    0.12455    0.06744 =
         0.14272   -0.00089    0.03396    0.00706
AFIX  43
H85   2    0.012095    0.808714    0.512764    21.00000   -1.20000
AFIX   0
C86   1   -0.013369    0.693279    0.534118    21.00000    0.10712    0.06683 =
         0.11719   -0.00743    0.01018    0.00507
AFIX  43
H86   2   -0.028140    0.719511    0.553029    21.00000   -1.20000
AFIX   0
C87   1   -0.013999    0.597785    0.525808    21.00000    0.10370    0.06440 =
         0.09929   -0.00396    0.00232    0.00831
AFIX  43
H87   2   -0.031265    0.559957    0.537072    21.00000   -1.20000
AFIX   0
C88   1    0.063057    0.567265    0.452912    21.00000    0.18384    0.09950 =
         0.17704   -0.00390    0.06522    0.02645
AFIX  33
H88A  2    0.056630    0.504988    0.455082    21.00000   -1.50000
H88B  2    0.057272    0.585295    0.422742    21.00000   -1.50000
H88C  2    0.091008    0.576430    0.464611    21.00000   -1.50000
AFIX   0
C89   1    0.090581    0.314062    0.517439    21.00000    0.05746    0.05868 =
         0.04099    0.00834   -0.00042    0.00126
AFIX  43
H89   2    0.106876    0.300772    0.497454    21.00000   -1.20000
AFIX   0
C90   1    0.096528    0.271001    0.562211    21.00000    0.06398    0.09116 =
         0.04764    0.02758    0.00541    0.01272
C93   1    0.136933    0.165100    0.607350    21.00000    0.14608    0.15760 =
         0.09612    0.05533    0.01161    0.04611
AFIX  23
H93A  2    0.110853    0.153231    0.614430    21.00000   -1.20000
H93B  2    0.153435    0.194031    0.632396    21.00000   -1.20000
AFIX   0
C94   1    0.156639    0.075757    0.597491    21.00000    0.16546    0.16161 =
         0.12862    0.05226    0.01357    0.05714
AFIX  33
H94A  2    0.159479    0.037276    0.622622    21.00000   -1.50000
H94B  2    0.140084    0.046957    0.572908    21.00000   -1.50000
H94C  2    0.182569    0.087664    0.590833    21.00000   -1.50000
AFIX   0
C96   1   -0.024441    0.427129    0.462602    21.00000    0.07001    0.08388 =
         0.07900   -0.01107    0.00494    0.01656
C97   1   -0.077062    0.480063    0.392062    21.00000    0.10374    0.12380 =
         0.12439   -0.00434   -0.02943    0.01242
AFIX  23
H97A  2   -0.069676    0.429195    0.375890    21.00000   -1.20000
H97B  2   -0.074098    0.533289    0.375073    21.00000   -1.20000
AFIX   0
C98   1   -0.122161    0.470432    0.394035    21.00000    0.09646    0.05841 =
         0.17547    0.00129   -0.02637    0.01837
AFIX  33
H98A  2   -0.137637    0.467263    0.364830    21.00000   -1.50000
H98B  2   -0.126143    0.416748    0.409657    21.00000   -1.50000
H98C  2   -0.130586    0.521331    0.408836    21.00000   -1.50000
AFIX   0
C99   1   -0.052471    0.135447    0.343589    21.00000    0.09712    0.14125 =
         0.07903   -0.02887   -0.05163    0.03349
AFIX  33
H99A  2   -0.045006    0.082368    0.360638    21.00000   -1.50000
H99B  2   -0.080476    0.147177    0.342008    21.00000   -1.50000
H99C  2   -0.047334    0.126894    0.314586    21.00000   -1.50000
AFIX   0
O1    4    0.078248    0.274334    0.587888    21.00000    0.06466    0.10046 =
         0.04023    0.02590    0.00118    0.01343
O2    4    0.132540    0.223209    0.569948    21.00000    0.08837    0.12985 =
         0.06839    0.02847    0.00390    0.04015
O3    4    0.050180    0.492782    0.399849    21.00000    0.11024    0.09230 =
         0.07270    0.02877    0.02165    0.04378
O4    4    0.095766    0.377329    0.426610    21.00000    0.08803    0.08036 =
         0.07978    0.01406    0.01678    0.02571
O5    4   -0.048039    0.486069    0.433188    21.00000    0.07275    0.08216 =
         0.09530   -0.00181   -0.00871    0.00857
O6    4   -0.038308    0.363973    0.469241    21.00000    0.07027    0.08229 =
         0.03760   -0.02151    0.00291    0.01501

S1    7    0.055983    0.411219    0.421455    21.00000    0.08838    0.08072 =
         0.05319    0.02093    0.01177    0.03241
N25   3    0.047594    0.430490    0.474971    21.00000    0.07578    0.06920 =
         0.05578    0.01279    0.00500    0.01720
PART 1 11.0
C90A  1    0.079889    0.080087    0.498306    11.00000    0.09952    0.08487 =
         0.09505    0.02050   -0.00004    0.02087
AFIX  23
H90A  2    0.054216    0.088962    0.478940    11.00000   -1.20000
H90B  2    0.100022    0.115833    0.487967    11.00000   -1.20000
AFIX   0
C91A  1    0.091845   -0.021769    0.501308    11.00000    0.15858    0.11446 =
         0.11689    0.01375    0.02918    0.02936
AFIX  23
H91A  2    0.098928   -0.040530    0.473926    11.00000   -1.20000
H91B  2    0.115148   -0.030008    0.524400    11.00000   -1.20000
AFIX   0
C92A  1    0.058112   -0.078892    0.510547    11.00000    0.17263    0.13081 =
         0.10681    0.00338    0.03201    0.01725
AFIX  23
H92A  2    0.066277   -0.141278    0.512209    11.00000   -1.20000
H92B  2    0.035164   -0.072825    0.486829    11.00000   -1.20000
AFIX   0
C93A  1    0.045944   -0.050229    0.554995    11.00000    0.05796    0.11240 =
         0.05039   -0.00355   -0.00861    0.02207
AFIX  23
H93C  2    0.021483   -0.080180    0.558676    11.00000   -1.20000
H93D  2    0.067039   -0.065028    0.579653    11.00000   -1.20000
AFIX   0
C94A  1    0.039785    0.049441    0.551547    11.00000    0.17862    0.15076 =
         0.15980    0.01242    0.05100    0.01547
AFIX  23
H94D  2    0.030121    0.069873    0.577243    11.00000   -1.20000
H94E  2    0.019006    0.061853    0.526223    11.00000   -1.20000
AFIX   0
C95A  1    0.077528    0.104735    0.547447    11.00000    0.19026    0.15870 =
         0.13317   -0.00087    0.03340   -0.00826
AFIX  23
H95A  2    0.101085    0.084892    0.567969    11.00000   -1.20000
H95B  2    0.073554    0.168426    0.551158    11.00000   -1.20000
AFIX   0
PART 2 -21.0
C116  1    0.129914    0.127303    0.567729   -21.00000    0.16756    0.18102 =
         0.12966   -0.00166   -0.00753    0.01089
AFIX  23
H11A  2    0.149991    0.171257    0.563935   -21.00000   -1.20000
H11B  2    0.103528    0.152489    0.557175   -21.00000   -1.20000
AFIX   0
C117  1    0.134749    0.099678    0.615602   -21.00000    0.23140    0.20558 =
         0.12689    0.00456   -0.00855    0.01015
AFIX  23
H11C  2    0.113359    0.057559    0.617261   -21.00000   -1.20000
H11D  2    0.129413    0.152665    0.631612   -21.00000   -1.20000
AFIX   0
CL17  8    0.136670    0.022539    0.538402   -21.00000    0.11996    0.16812 =
         0.10087    0.00374   -0.01456   -0.00204
CL18  8    0.181382    0.049552    0.646800   -21.00000    0.30235    0.36101 =
         0.27109    0.04229   -0.08261    0.05352
PART 3 41.0
C126  1   -0.105314    0.506133    0.341014    41.00000    0.11584    0.10356 =
         0.15172   -0.01312   -0.02890    0.01050
AFIX  23
H12D  2   -0.101177    0.557786    0.323481    41.00000   -1.20000
H12E  2   -0.080236    0.490318    0.360086    41.00000   -1.20000
AFIX   0
C127  1   -0.122780    0.427655    0.312616    41.00000    0.11481    0.10476 =
         0.15956   -0.01548   -0.02997    0.01226
AFIX  23
H12F  2   -0.101783    0.406799    0.297913    41.00000   -1.20000
H12G  2   -0.143680    0.452184    0.290044    41.00000   -1.20000
AFIX   0
CL27  8   -0.145356    0.526291    0.372265    41.00000    0.11764    0.09081 =
         0.15573   -0.01053   -0.02790    0.01067
CL28  8   -0.144140    0.326862    0.333627    41.00000    0.16106    0.10861 =
         0.13539   -0.02874   -0.01955   -0.00486
PART 0

PART 1 91.0
C106  1    0.777926    1.000549    1.201264    91.00000    0.19077    0.21223 =
         0.20139    0.05613    0.06337   -0.01528
AFIX  23
H10I  2    0.800284    0.966474    1.217343    91.00000   -1.20000
H10J  2    0.765738    1.034745    1.221779    91.00000   -1.20000
AFIX   0
C107  1    0.747439    0.939483    1.173260    91.00000    0.17734    0.19711 =
         0.23590    0.04957    0.04767   -0.00293
AFIX  23
H10K  2    0.749173    0.951647    1.143056    91.00000   -1.20000
H10L  2    0.721244    0.960172    1.176957    91.00000   -1.20000
AFIX   0
CL7   8    0.794139    1.074682    1.160099    91.00000    0.08373    0.15606 =
         0.11038    0.02810    0.00776    0.00066
CL8   8    0.747014    0.815843    1.178927    91.00000    0.20969    0.19592 =
         0.15586    0.05165    0.00194   -0.00541
PART 2 -91.0
C110  1    0.785973    0.918059    1.262873   -91.00000    0.21305    0.27788 =
         0.27896    0.02492    0.07526    0.01308
AFIX  23
H11E  2    0.795276    0.878305    1.287377   -91.00000   -1.20000
H11F  2    0.757033    0.922997    1.258575   -91.00000   -1.20000
AFIX   0
C111  1    0.798736    0.884161    1.221799   -91.00000    0.21241    0.27561 =
         0.27161    0.02369    0.07409    0.00742
AFIX  23
H11G  2    0.785904    0.826150    1.216207   -91.00000   -1.20000
H11H  2    0.827174    0.871975    1.230526   -91.00000   -1.20000
AFIX   0
CL11  8    0.809752    1.028995    1.272397   -91.00000    0.12773    0.26087 =
         0.17198    0.05262    0.03055    0.04800
CL12  8    0.793237    0.937592    1.167446   -91.00000    0.26517    0.30582 =
         0.29286    0.04502    0.09664    0.03624
PART 2 -91.0
C108  1    0.751058    0.652693    1.310554   -91.00000    0.13249    0.32710 =
         0.17326   -0.02561    0.02843   -0.02469
AFIX  23
H10M  2    0.767190    0.685825    1.334427   -91.00000   -1.20000
H10N  2    0.768287    0.615377    1.296549   -91.00000   -1.20000
AFIX   0
C109  1    0.725032    0.714461    1.277982   -91.00000    0.14741    0.32482 =
         0.17508   -0.03279    0.02232   -0.01784
AFIX  23
H10O  2    0.740905    0.767620    1.275637   -91.00000   -1.20000
H10P  2    0.702964    0.733233    1.291548   -91.00000   -1.20000
AFIX   0
CL9   8    0.711160    0.586180    1.329161   -91.00000    0.12590    0.25992 =
         0.15882   -0.07029    0.06678   -0.01706
CL10  8    0.702824    0.680481    1.221447   -91.00000    0.16273    0.37792 =
         0.20240   -0.09025   -0.01809    0.08416
PART 1 91.0
C104  1    0.756206    0.677832    1.334046    91.00000    0.14585    0.34010 =
         0.17034   -0.03658    0.00518    0.00972
AFIX  23
H10Q  2    0.775310    0.688424    1.360988    91.00000   -1.20000
H10R  2    0.769714    0.649525    1.312839    91.00000   -1.20000
AFIX   0
C105  1    0.735099    0.763785    1.316149    91.00000    0.16196    0.34758 =
         0.15028   -0.03799    0.02238    0.02591
AFIX  23
H10S  2    0.713638    0.773662    1.332143    91.00000   -1.20000
H10T  2    0.722460    0.751792    1.286025    91.00000   -1.20000
AFIX   0
CL5   8    0.712813    0.610604    1.343708    91.00000    0.11664    0.35186 =
         0.10354   -0.00171   -0.03485    0.00674
CL6   8    0.761995    0.871344    1.316189    91.00000    0.13173    0.34592 =
         0.13602   -0.04101   -0.00942    0.05683
PART 0
PART 1 51.0
C112  1   -0.091258    1.225137    0.975961    51.00000    0.44231    0.38576 =
         0.27775    0.11827    0.16233    0.13236
AFIX  23
H11I  2   -0.091563    1.280003    0.992611    51.00000   -1.20000
H11J  2   -0.116652    1.218319    0.955827    51.00000   -1.20000
AFIX   0
C113  1   -0.081579    1.144074    1.005604    51.00000    0.47188    0.40138 =
         0.29130    0.13289    0.18877    0.15372
AFIX  23
H11K  2   -0.102431    1.140674    1.022899    51.00000   -1.20000
H11L  2   -0.056925    1.158102    1.025851    51.00000   -1.20000
AFIX   0
CL13  8   -0.048568    1.221728    0.947371    51.00000    0.39827    0.28579 =
         0.19279    0.03886    0.09673    0.09083
CL14  8   -0.075518    1.029671    0.985364    51.00000    0.71332    0.41017 =
         0.26365    0.15598    0.25944    0.17365
PART 2 -51.0
C114  1   -0.186752    1.108026    0.865227   -51.00000    0.20219    0.25955 =
         0.38307    0.13908    0.17587   -0.01453
AFIX  23
H11M  2   -0.201728    1.163731    0.861643   -51.00000   -1.20000
H11N  2   -0.202350    1.062532    0.876659   -51.00000   -1.20000
AFIX   0
C115  1   -0.146071    1.120216    0.894397   -51.00000    0.21614    0.26061 =
         0.39230    0.14572    0.15531   -0.01373
AFIX  23
H11O  2   -0.131450    1.160737    0.878794   -51.00000   -1.20000
H11P  2   -0.132792    1.062590    0.894875   -51.00000   -1.20000
AFIX   0
CL15  8   -0.172843    1.071730    0.813020   -51.00000    0.17766    0.31037 =
         0.40012    0.11463    0.14944    0.02905
CL16  8   -0.136479    1.159541    0.951561   -51.00000    0.35160    0.22708 =
         0.37967    0.16626    0.13749   -0.00327
PART 0
PART 1 71.0
C118  1    0.001638    0.720122    0.940057    71.00000    0.26633    0.22536 =
         0.13974    0.00618    0.01786   -0.06399
AFIX  23
H11Q  2   -0.021516    0.695835    0.950030    71.00000   -1.20000
H11R  2    0.008627    0.777612    0.953990    71.00000   -1.20000
AFIX   0
C119  1   -0.005635    0.727535    0.890599    71.00000    0.26477    0.23376 =
         0.13997    0.00447    0.01522   -0.06837
AFIX  23
H11S  2    0.016714    0.696943    0.881782    71.00000   -1.20000
H11T  2   -0.002449    0.790560    0.884443    71.00000   -1.20000
AFIX   0
CL19  8    0.044562    0.641173    0.950299    71.00000    0.31475    0.31040 =
         0.12377   -0.01225    0.00060   -0.00126
CL20  8   -0.050560    0.690731    0.851590    71.00000    0.25834    0.15347 =
         0.13019    0.00735    0.02001   -0.04580
PART 2 81.0
C120  1    0.037895    0.916721    0.954741    81.00000    0.16138    0.18280 =
         0.17629    0.02237    0.00643   -0.13899
AFIX  23
H12H  2    0.060076    0.955721    0.966883    81.00000   -1.20000
H12I  2    0.020315    0.910003    0.975678    81.00000   -1.20000
AFIX   0
C121  1    0.052329    0.826928    0.941163    81.00000    0.15042    0.18349 =
         0.15949    0.01948   -0.01708   -0.13884
AFIX  23
H12J  2    0.076190    0.839548    0.929411    81.00000   -1.20000
H12K  2    0.032156    0.807024    0.916624    81.00000   -1.20000
AFIX   0
CL21  8    0.010460    0.958097    0.901135    81.00000    0.22124    0.22597 =
         0.19076    0.03138   -0.01275   -0.10967
CL22  8    0.064559    0.728438    0.976637    81.00000    0.27552    0.16115 =
         0.11312   -0.01016   -0.05733   -0.13185
PART -3 61.0
C122  1   -0.020919    0.543663    1.024986    61.00000    0.24320    0.49043 =
         0.31314    0.14737    0.01591    0.10257
AFIX  23
H12L  2   -0.015239    0.551669    1.056506    61.00000   -1.20000
H12M  2   -0.046571    0.571820    1.013890    61.00000   -1.20000
AFIX   0
C123  1   -0.025086    0.443389    1.015388    61.00000    0.24279    0.48958 =
         0.31567    0.14672    0.01574    0.10318
AFIX  23
H12N  2   -0.053329    0.429489    1.006297    61.00000   -1.20000
H12O  2   -0.015349    0.410967    1.042347    61.00000   -1.20000
AFIX   0
CL23  8    0.016589    0.601903    1.002843    61.00000    0.24617    0.50220 =
         0.30688    0.14952    0.01622    0.09967
CL24  8    0.000742    0.403298    0.974571    61.00000    0.24260    0.48932 =
         0.32203    0.14531    0.01745    0.10332
PART 0

ZN1   5    0.090172   -0.041459    0.338351    11.00000    0.09398    0.02915 =
         0.05465   -0.00061   -0.03984    0.00023
ZN2A  5    0.165738    0.723015    0.521226    10.56295    0.08787    0.02583 =
         0.06884   -0.00843   -0.01869    0.01279
ZN2B  5    0.181188    0.728839    0.531436    10.43705    0.09825    0.03272 =
         0.11553   -0.00772   -0.00737    0.00483
ZN3A  5    0.372348   -0.019069    0.690254    10.47619    0.04788    0.03512 =
         0.06329    0.01438   -0.03344   -0.00899
ZN3B  5    0.358554   -0.003148    0.711432    10.52281    0.05506    0.05919 =
         0.08270    0.01595   -0.03952   -0.01662
ZN4   5    0.083602    1.206372    0.843494    11.00000    0.10453    0.02409 =
         0.05873   -0.00367   -0.06150    0.00630
ZN5A  5    0.372348    1.185682    1.192237    10.82244    0.06920    0.04056 =
         0.06578   -0.01585   -0.04879    0.01340
ZN5B  5    0.358019    1.170302    1.214080    10.17756    0.06920    0.04056 =
         0.06578   -0.01585   -0.04879    0.01340
ZN6A  5    0.672397    0.944276    1.018893    10.78521    0.09679    0.02682 =
         0.06029    0.00778   -0.00836   -0.00839
ZN6B  5    0.690694    0.942804    1.039609    10.21479    0.10432    0.03575 =
         0.08582    0.00475   -0.00145   -0.01109
I1    6    0.033080   -0.082010    0.376111    11.00000    0.09972    0.05183 =
         0.07375    0.00786   -0.04425   -0.02879
I2A   6    0.124185   -0.158757    0.303952    10.47602    0.09953    0.02236 =
         0.07465    0.00344   -0.02076   -0.00326
I2B   6    0.135217   -0.140072    0.297902    10.52398    0.12627    0.03100 =
         0.09746   -0.00148   -0.00846    0.02043
I3A   6    0.124142    0.745134    0.445574    10.56295    0.09888    0.03709 =
         0.06303    0.00712   -0.01106    0.01900
I3B   6    0.146762    0.768859    0.454140    10.43705    0.14898    0.04360 =
         0.15652    0.01947    0.01913    0.02422
I4A   6    0.229341    0.815031    0.546269    10.56295    0.10118    0.03353 =
         0.09439   -0.02142    0.00638   -0.00424
I4B   6    0.247181    0.803821    0.570768    10.43705    0.11062    0.05564 =
         0.17476   -0.04069    0.03290   -0.01217
I5A   6    0.345533   -0.021589    0.760413    10.44032    0.07240    0.11765 =
         0.06733    0.03899   -0.00803   -0.01319
I5B   6    0.334073    0.030541    0.781193    10.55968    0.09064    0.17648 =
         0.09071    0.02321   -0.01441   -0.04719
I6A   6    0.392748   -0.157643    0.652276    10.49003    0.09873    0.03867 =
         0.10862   -0.00723   -0.04742    0.01658
I6B   6    0.374496   -0.158162    0.681544    10.40190    0.08497    0.03652 =
         0.10119    0.00613   -0.05380    0.00165
I6C   6    0.361361   -0.159080    0.701861    10.11795    0.06184    0.04088 =
         0.09077    0.01661   -0.06809   -0.01024
I7    6    0.024842    1.237408    0.880786    11.00000    0.10976    0.06811 =
         0.08743   -0.01532   -0.04676    0.03334
I8A   6    0.121578    1.318989    0.803395    10.83726    0.13495    0.03950 =
         0.07313    0.00663   -0.03118   -0.02082
I8B   6    0.111826    1.321144    0.815786    10.16274    0.09399    0.01870 =
         0.07866    0.01319   -0.05239   -0.00397
I9A   6    0.347471    1.179886    1.265177    10.70592    0.09437    0.09788 =
         0.09008   -0.04073   -0.03740    0.04077
I9B   6    0.330072    1.109613    1.292172    10.13214    0.07786    0.10408 =
         0.10710   -0.04486   -0.04527    0.02247
I9C   6    0.344169    1.211185    1.259413    10.20938    0.05497    0.08668 =
         0.08502   -0.04650   -0.02497    0.02451
I10A  6    0.391470    1.324703    1.154337    10.80667    0.14467    0.04469 =
         0.11363    0.00733   -0.07974   -0.02009
I10B  6    0.371323    1.329729    1.183232    10.13103    0.14467    0.04469 =
         0.11363    0.00733   -0.07974   -0.02009
I10C  6    0.358164    1.317185    1.210991    10.06230    0.14467    0.04469 =
         0.11363    0.00733   -0.07974   -0.02009
I11A  6    0.626729    0.922774    0.944419    10.75905    0.15153    0.04301 =
         0.07069   -0.00411   -0.03190   -0.01939
I11B  6    0.646429    0.906802    0.957046    10.21938    0.15263    0.04772 =
         0.09610   -0.00201   -0.01994   -0.01915
I11C  6    0.675182    0.877055    0.976148    10.04681    0.13689    0.01277 =
         0.07532   -0.00189   -0.00296   -0.03090
I12A  6    0.734718    0.852264    1.041947    10.61112    0.10584    0.03596 =
         0.07294    0.01655    0.00802    0.01443
I12B  6    0.744549    0.866849    1.061146    10.27785    0.13382    0.03766 =
         0.08661    0.01640    0.00519    0.01431
I12C  6    0.760680    0.880037    1.088789    10.05935    0.08030    0.01577 =
         0.07756    0.02733    0.02986    0.00889
HKLF    4

REM  shelxt_b.res in C2
REM R1 =  0.0818 for   19013 Fo > 4sig(Fo)  and  0.1099 for all   28286 data
REM   1986 parameters refined using   4835 restraints

END

WGHT      0.1516      3.2340

REM Highest difference peak  1.150,  deepest hole -1.371,  1-sigma level  0.161
Q1    1   0.7699  0.8970  1.1114  11.00000  0.05    1.12
Q2    1   0.0439 -0.0038  0.5434  11.00000  0.05    1.10
Q3    1   0.7224  0.7446  1.2018  11.00000  0.05    1.08
Q4    1   0.2601  0.7803  0.6007  11.00000  0.05    1.01
Q5    1   0.7829  0.9282  1.2980  11.00000  0.05    1.01
Q6    1   0.7179  0.8608  1.0649  11.00000  0.05    0.93
Q7    1   0.0961  1.3290  0.8412  11.00000  0.05    0.89
Q8    1   0.1987  0.7309  0.5616  11.00000  0.05    0.86
Q9    1   0.0526 -0.0875  0.4245  11.00000  0.05    0.85
Q10   1   0.7088  0.8489  0.9957  11.00000  0.05    0.84
Q11   1   0.7031  0.9437  1.0662  11.00000  0.05    0.83
Q12   1   0.7338  0.8955  1.0378  11.00000  0.05    0.82
Q13   1   0.7829  1.0960  1.1592  11.00000  0.05    0.79
Q14   1   0.0669  0.8520  0.9842  11.00000  0.05    0.78
Q15   1   0.0000  0.6825  0.5000  10.50000  0.05    0.78
Q16   1   0.0390  1.2172  0.9299  11.00000  0.05    0.76
Q17   1   0.0104 -0.0765  0.3317  11.00000  0.05    0.75
Q18   1  -0.1935  1.1379  0.8735  11.00000  0.05    0.74
Q19   1  -0.2239  1.2000  0.8328  11.00000  0.05    0.74
Q20   1   0.2040  0.8141  0.4971  11.00000  0.05    0.72
Q21   1   0.0294  0.1066  0.5091  11.00000  0.05    0.70
Q22   1   0.1008 -0.1643  0.3388  11.00000  0.05    0.69
Q23   1   0.8014  1.0222  1.2667  11.00000  0.05    0.69
Q24   1   0.2186  0.8031  0.5705  11.00000  0.05    0.69
Q25   1   0.7320  0.9087  1.1924  11.00000  0.05    0.68
Q26   1   0.1509 -0.1765  0.3515  11.00000  0.05    0.68
Q27   1   0.0000  0.4874  1.0000  10.50000  0.05    0.67
Q28   1   0.0801  0.6914  1.0205  11.00000  0.05    0.66
Q29   1  -0.0452  1.1680  0.9550  11.00000  0.05    0.66
Q30   1   0.7011  0.6403  1.2321  11.00000  0.05    0.65
Q31   1   0.4066  1.2373  1.1537  11.00000  0.05    0.65
Q32   1  -0.0064  1.2018  0.8991  11.00000  0.05    0.65
Q33   1   0.6036  0.9270  0.8976  11.00000  0.05    0.63
Q34   1   0.0000  0.6769  1.0000  10.50000  0.05    0.61
Q35   1   0.1066  0.7540  0.3987  11.00000  0.05    0.61
Q36   1   0.7200  0.5695  1.3414  11.00000  0.05    0.61
Q37   1   0.8212  1.1148  1.2799  11.00000  0.05    0.61
Q38   1   0.3807  1.4010  1.1682  11.00000  0.05    0.61
Q39   1   0.0985  0.7270  0.4051  11.00000  0.05    0.59
Q40   1   0.1502  1.2834  0.7920  11.00000  0.05    0.59
Q41   1   0.0215  0.6983  0.9714  11.00000  0.05    0.59
Q42   1   0.7734  0.9716  1.3379  11.00000  0.05    0.59
Q43   1   0.1528 -0.1153  0.2909  11.00000  0.05    0.59
Q44   1  -0.0364  0.5462  0.5461  11.00000  0.05    0.59
Q45   1   0.2002  0.0222  0.6263  11.00000  0.05    0.59
Q46   1   0.1461  1.3087  0.8527  11.00000  0.05    0.59
Q47   1  -0.1763  1.0592  0.7812  11.00000  0.05    0.59
Q48   1   0.0054  1.2315  0.8327  11.00000  0.05    0.58
Q49   1  -0.0526  1.2188  0.9345  11.00000  0.05    0.58
Q50   1   0.0433 -0.0060  0.3703  11.00000  0.05    0.58
Q51   1   0.0252  1.3253  0.8823  11.00000  0.05    0.57
Q52   1   0.3224  1.1970  1.2150  11.00000  0.05    0.57
Q53   1   0.0066 -0.0376  0.6035  11.00000  0.05    0.57
Q54   1   0.1209 -0.2244  0.3077  11.00000  0.05    0.57
Q55   1   0.3941  1.1928  1.1673  11.00000  0.05    0.57
Q56   1   0.0022 -0.0268  0.3908  11.00000  0.05    0.57
Q57   1   0.3230  0.0727  0.7983  11.00000  0.05    0.56
Q58   1   0.0093  1.3213  0.8891  11.00000  0.05    0.56
Q59   1   0.0103 -0.1569  0.3918  11.00000  0.05    0.56
Q60   1   0.1782  0.1230  0.6385  11.00000  0.05    0.56
Q61   1   0.1046  0.8205  0.4626  11.00000  0.05    0.55
Q62   1   0.3434  1.1399  1.2393  11.00000  0.05    0.55
Q63   1   0.3709  1.3043  1.1076  11.00000  0.05    0.55
Q64   1   0.0985  1.2032  0.8904  11.00000  0.05    0.55
Q65   1   0.0270 -0.1772  0.3794  11.00000  0.05    0.55
Q66   1   0.3691 -0.0704  0.6903  11.00000  0.05    0.55
Q67   1   0.1245  0.6831  0.4444  11.00000  0.05    0.54
Q68   1   0.3834 -0.2317  0.6692  11.00000  0.05    0.54
Q69   1   0.3345  1.2613  1.2708  11.00000  0.05    0.54
Q70   1   0.3384  1.1377  1.2719  11.00000  0.05    0.54
Q71   1  -0.0178  0.3553  0.5228  11.00000  0.05    0.54
Q72   1   0.1145 -0.0466  0.3840  11.00000  0.05    0.53
Q73   1  -0.0905  0.9436  0.9647  11.00000  0.05    0.53
Q74   1   0.6533  0.9557  1.0426  11.00000  0.05    0.53
Q75   1  -0.0392  0.7786  0.6283  11.00000  0.05    0.53
Q76   1   0.1130  1.4050  0.8122  11.00000  0.05    0.53
Q77   1   0.0267  1.1603  0.8780  11.00000  0.05    0.53
Q78   1   0.0925  0.2336  0.5407  11.00000  0.05    0.53
Q79   1   0.8293  0.8180  1.2811  11.00000  0.05    0.53
Q80   1   0.0660  1.1945  0.8628  11.00000  0.05    0.53
Q81   1   0.1036 -0.0541  0.3871  11.00000  0.05    0.52
Q82   1  -0.1593  1.0207  0.8681  11.00000  0.05    0.52
Q83   1   0.7702  0.7524  1.3081  11.00000  0.05    0.52
Q84   1   0.3903 -0.0810  0.6637  11.00000  0.05    0.52
Q85   1   0.3420  0.0232  0.7391  11.00000  0.05    0.52
Q86   1   0.7914  1.0706  1.2799  11.00000  0.05    0.51
Q87   1  -0.1711  1.0590  0.8656  11.00000  0.05    0.51
Q88   1  -0.0270  1.0629  0.9906  11.00000  0.05    0.51
Q89   1  -0.0265  0.6849  0.9247  11.00000  0.05    0.51
Q90   1   0.0601 -0.1817  0.3510  11.00000  0.05    0.51
Q91   1   0.0816 -0.1233  0.3421  11.00000  0.05    0.51
Q92   1   0.4105  1.3159  1.1413  11.00000  0.05    0.50
Q93   1   0.0191  0.8110  0.9733  11.00000  0.05    0.50
Q94   1   0.0431  0.9625  0.9670  11.00000  0.05    0.50
Q95   1  -0.0557  1.1571  0.9985  11.00000  0.05    0.50
Q96   1   0.3415 -0.0775  0.7598  11.00000  0.05    0.50
Q97   1   0.3603  1.3123  1.2592  11.00000  0.05    0.50
Q98   1  -0.0672  0.3867  0.3382  11.00000  0.05    0.50
Q99   1   0.3198 -0.0381  0.7124  11.00000  0.05    0.49
Q100  1   0.0773  0.4599  0.5240  11.00000  0.05    0.49
;
_shelx_res_checksum              73413
_shelx_fab_file
;
    1   17    0     -2.47      0.49
    3   17    0      1.23      0.86
    5   17    0      0.22     -2.38
    7   17    0      1.85      1.32
    9   17    0     -2.73     -0.79
   11   17    0      0.24      3.26
   13   17    0      2.28     -1.45
    2   16    0      0.04     -2.05
    4   16    0      0.33      0.38
    6   16    0      1.90      1.58
    8   16    0     -0.87     -1.13
   10   16    0     -1.56     -1.13
   12   16    0      0.51      2.73
   14   16    0      2.39     -1.18
   16   16    0      0.67     -0.84
   18   16    0      0.95     -0.68
    1   15    0     -3.21      0.19
    3   15    0      0.39      2.01
    5   15    0      3.34     -1.96
    7   15    0     -3.98      0.19
    9   15    0      3.95     -0.81
   11   15    0     -1.14     -2.09
   13   15    0     -0.01      3.13
   15   15    0      1.87     -0.19
   17   15    0      1.48      0.45
   19   15    0     -1.10     -0.41
   21   15    0     -1.48     -1.65
    0   14    0     -9.00     -2.09
    2   14    0      3.32      1.60
    4   14    0     -1.24     -0.60
    6   14    0      2.08     -1.00
    8   14    0      1.00     -4.27
   10   14    0      0.16      2.89
   12   14    0      1.59     -1.53
   14   14    0     -1.78      3.20
   16   14    0      1.24      0.35
   18   14    0     -1.85      2.21
   20   14    0      2.42     -0.41
   22   14    0     -2.69     -1.92
   24   14    0     -0.11      0.84
    1   13    0     -1.81      0.05
    3   13    0      1.60     -2.00
    5   13    0      1.74     -0.32
    7   13    0      1.01     -0.56
    9   13    0      1.58     -3.33
   11   13    0     -0.33      3.76
   13   13    0     -3.80      0.03
   15   13    0      2.55      1.53
   17   13    0     -2.33      0.68
   19   13    0     -1.51      1.52
   21   13    0      2.62      0.98
   23   13    0     -1.36     -2.14
   25   13    0     -1.18      0.12
   27   13    0     -2.28      0.36
    0   12    0      2.70     -4.08
    2   12    0     -2.81      1.31
    4   12    0      7.36     -0.42
    6   12    0     -2.42      1.35
    8   12    0      0.71     -0.88
   10   12    0      0.85      1.64
   12   12    0     -5.10     -3.46
   14   12    0      0.63      1.42
   16   12    0      0.18      2.83
   18   12    0     -0.67     -3.62
   20   12    0     -1.01      2.51
   22   12    0      1.62      0.46
   24   12    0     -1.72     -0.70
   26   12    0     -0.83     -2.66
   28   12    0      0.29      1.14
    1   11    0      0.91     -1.58
    3   11    0      1.61      3.64
    5   11    0     -0.07      1.63
    7   11    0     -1.53      2.49
    9   11    0     -0.69     -2.93
   11   11    0      2.04      0.85
   13   11    0     -2.49     -5.72
   15   11    0     -0.67      4.19
   17   11    0     -0.73     -4.65
   19   11    0      5.93      0.72
   21   11    0     -4.67     -0.08
   23   11    0      0.17      0.57
   25   11    0      1.37     -2.81
   27   11    0     -0.91      1.50
   29   11    0      0.37      2.27
   31   11    0     -2.32      2.51
    0   10    0     -7.24      3.56
    2   10    0      2.30      0.24
    4   10    0     -1.51      4.17
    6   10    0     -3.20     -3.10
    8   10    0      3.77      3.56
   10   10    0      0.89     -2.24
   12   10    0      2.04      0.01
   14   10    0     -3.22     -2.21
   16   10    0      2.22     -6.31
   18   10    0      3.77      4.67
   20   10    0     -0.29     -2.52
   22   10    0     -0.53     -1.37
   24   10    0      0.12      0.20
   26   10    0     -0.25      2.40
   28   10    0     -1.86     -0.69
   30   10    0     -2.43      1.47
   32   10    0     -0.48      0.04
    1    9    0     -8.47     -0.80
    3    9    0      1.48      2.15
    5    9    0      1.39     -0.66
    7    9    0     -0.31      0.14
    9    9    0      4.13      2.71
   11    9    0      1.23     -0.86
   13    9    0     -0.19     -1.60
   15    9    0      0.75     -0.13
   17    9    0      4.39     -1.43
   19    9    0     -3.23      0.44
   21    9    0      5.87     -1.26
   23    9    0     -2.99      1.11
   25    9    0     -1.74      0.84
   27    9    0     -3.98     -0.17
   29    9    0      0.70     -2.17
   31    9    0     -0.26     -1.65
   33    9    0     -0.62      2.47
    0    8    0     -8.38     -8.88
    2    8    0      1.54     -4.41
    4    8    0     -0.01      6.28
    6    8    0      0.66     -0.87
    8    8    0     -0.18     -1.45
   10    8    0      4.83      7.18
   12    8    0      2.52     -4.49
   14    8    0     -6.82      3.99
   16    8    0      2.28     -0.68
   18    8    0      2.48      0.00
   20    8    0      0.39      0.11
   22    8    0     -0.26      3.38
   24    8    0     -4.35     -2.08
   26    8    0     -1.74     -3.39
   28    8    0      0.16     -0.69
   30    8    0      1.22     -0.66
   32    8    0      3.03     -1.09
   34    8    0     -4.04      2.25
   36    8    0      1.90      3.07
    1    7    0      5.07     -9.95
    3    7    0      0.93      6.30
    5    7    0      1.52     -3.01
    7    7    0     -3.96     -1.86
    9    7    0      3.59     11.71
   11    7    0     -1.82     -1.26
   13    7    0     -4.43      0.33
   15    7    0     -0.49     -6.24
   17    7    0     -0.97      4.23
   19    7    0      2.47      6.49
   21    7    0     -6.14     -3.71
   23    7    0      0.45     -0.55
   25    7    0     -1.65     -4.38
   27    7    0      4.84      0.05
   29    7    0     -1.80     -0.09
   31    7    0      2.06      1.40
   33    7    0      3.01     -1.76
   35    7    0     -5.32      1.98
   37    7    0      2.07      0.95
    0    6    0      7.31     -7.53
    2    6    0      2.86      2.00
    4    6    0      6.22     -1.39
    6    6    0      3.09      5.12
    8    6    0     -8.57      0.19
   10    6    0     -5.48      8.09
   12    6    0     -2.96     -6.24
   14    6    0      3.60     -7.51
   16    6    0     -1.79      1.12
   18    6    0     -2.07      5.63
   20    6    0     -7.33     -3.37
   22    6    0      4.29      0.48
   24    6    0     -0.44     -5.73
   26    6    0      3.10      2.95
   28    6    0      1.64      1.71
   30    6    0      1.69     -0.69
   32    6    0      0.32      3.01
   34    6    0     -1.35     -2.21
   36    6    0     -1.33     -0.63
    1    5    0      2.38      2.27
    3    5    0     -1.47     -6.19
    5    5    0     13.64     22.78
    7    5    0    -12.85    -11.45
    9    5    0     -2.36     -0.38
   11    5    0     -1.74      2.07
   13    5    0     -1.79     -8.33
   15    5    0      6.32      0.06
   17    5    0     -5.33     -3.85
   19    5    0      1.43     -2.05
   21    5    0     -2.12      3.05
   23    5    0      0.68     -3.31
   25    5    0      3.94      0.16
   27    5    0     -1.01      2.78
   29    5    0      3.67      1.65
   31    5    0      0.18      5.54
   33    5    0     -4.23     -5.07
   35    5    0      1.26     -1.36
   37    5    0     -0.55      1.59
    0    4    0     -6.36     -5.85
    2    4    0      2.92      3.22
    4    4    0     -7.67     15.49
    6    4    0      0.94    -15.36
    8    4    0      3.92      5.22
   10    4    0      1.89     -3.24
   12    4    0     -6.84      7.07
   14    4    0      1.66    -11.02
   16    4    0      4.63      0.40
   18    4    0      5.64     -1.88
   20    4    0     -0.26     -3.01
   22    4    0     -4.99      3.91
   24    4    0      5.40     -3.09
   26    4    0     -1.49      1.51
   28    4    0      0.15      1.27
   30    4    0     -0.34      6.13
   32    4    0     -2.59     -4.27
   34    4    0      1.01     -0.59
   36    4    0      0.53     -0.48
   38    4    0     -0.52      4.51
    1    3    0     -6.73     -0.25
    3    3    0      4.83     -6.55
    5    3    0     -5.22     -3.38
    7    3    0     12.50     -4.00
    9    3    0    -14.02     18.10
   11    3    0     -1.42     -1.12
   13    3    0      2.74     -2.34
   15    3    0      2.57     -0.23
   17    3    0      4.14      1.73
   19    3    0      5.79     -0.41
   21    3    0      0.80     -5.58
   23    3    0     -3.73      5.07
   25    3    0      0.38     -1.70
   27    3    0      0.08     -1.75
   29    3    0     -2.22      0.65
   31    3    0     -3.71      1.14
   33    3    0      4.44     -2.60
   35    3    0     -2.44      4.19
   37    3    0      1.70      0.93
   39    3    0     -0.48      1.67
    0    2    0    -87.24   -122.94
    2    2    0     88.72     58.34
    4    2    0    -17.33    -36.19
    6    2    0      0.14     43.14
    8    2    0    -31.07    -23.35
   10    2    0    -11.41     15.23
   12    2    0      7.51      3.04
   14    2    0      3.89     10.28
   16    2    0     -1.13     -7.82
   18    2    0      2.03      2.22
   20    2    0      6.65      1.26
   22    2    0      1.52     -1.88
   24    2    0     -8.03      0.67
   26    2    0      2.64     -3.11
   28    2    0      0.51     -0.48
   30    2    0     -3.17     -5.59
   32    2    0     -0.81      6.37
   34    2    0      2.52     -2.42
   36    2    0     -2.43      5.08
   38    2    0      3.79      1.62
    3    1    0      0.60     67.64
    5    1    0    -41.08     29.35
    7    1    0    -23.78    -33.13
    9    1    0    -21.29      2.52
   11    1    0     -6.06     10.46
   13    1    0     -1.58     10.39
   15    1    0      0.84      0.95
   17    1    0      6.66     -6.88
   19    1    0     -1.17      1.62
   21    1    0      2.44      3.46
   23    1    0     -2.57     -1.27
   25    1    0      0.17     -2.55
   27    1    0      0.33     -1.63
   29    1    0      1.31     -2.37
   31    1    0     -1.98      3.09
   33    1    0     -0.84     -1.35
   35    1    0      1.33      3.24
   37    1    0      0.35      0.88
   39    1    0      2.27      0.04
    4    0    0     54.99      0.18
    6    0    0   -108.33      1.28
    8    0    0     30.69     -0.60
   10    0    0    -33.85     -0.76
   12    0    0    -10.96      0.88
   14    0    0      4.16     -0.84
   16    0    0      1.44      0.26
   18    0    0      6.92      0.13
   20    0    0     -0.60     -0.66
   22    0    0     -6.03      0.34
   24    0    0      3.20      0.20
   26    0    0      2.18     -1.15
   28    0    0     -0.93      1.17
   30    0    0      1.75      0.59
   32    0    0     -3.73      2.59
   34    0    0     -0.89      1.11
   36    0    0      5.17     -4.31
   38    0    0     -3.68     -0.23
   40    0    0      6.42     -0.71
    0   16    0     -4.16      4.42
  -13   17    1      1.10      0.56
  -11   17    1     -0.89      1.43
   -9   17    1     -1.99      0.88
   -7   17    1      2.14     -1.49
   -5   17    1      0.22      1.05
   -3   17    1     -0.83     -1.15
   -1   17    1     -1.67      2.34
    1   17    1     -1.60     -1.03
    3   17    1      1.08     -0.12
    5   17    1      2.59     -1.15
    7   17    1     -1.72     -0.03
    9   17    1     -0.35      2.46
   11   17    1      1.31      0.73
  -18   16    1      2.14     -0.50
  -16   16    1      0.61     -1.20
  -14   16    1      4.30      1.18
  -12   16    1     -3.12      2.61
  -10   16    1     -0.53     -4.26
   -8   16    1     -0.60      4.54
   -6   16    1      0.41     -1.50
   -4   16    1      1.38      1.28
   -2   16    1     -3.21      0.45
    0   16    1     -1.44     -0.21
    2   16    1     -0.08      0.79
    4   16    1      3.35     -3.17
    6   16    1     -1.30      3.79
    8   16    1      1.67     -3.71
   10   16    1     -3.75      1.87
   12   16    1      3.04      1.56
   14   16    1      0.17     -2.87
   16   16    1      1.29      0.26
   18   16    1     -1.08     -0.81
  -21   15    1     -1.29     -1.59
  -19   15    1      0.51     -0.09
  -17   15    1      2.60      0.29
  -15   15    1      2.39      1.42
  -13   15    1     -1.45      1.32
  -11   15    1      1.44     -1.62
   -9   15    1     -0.33     -1.47
   -7   15    1     -2.05      1.04
   -5   15    1      0.00      0.84
   -3   15    1      2.39      0.00
   -1   15    1     -7.72      2.31
    1   15    1      2.22     -2.33
    3   15    1      1.76      0.28
    5   15    1      1.59     -0.79
    7   15    1     -1.68     -1.55
    9   15    1      3.36      1.25
   11   15    1     -3.51     -1.55
   13   15    1      1.76      3.00
   15   15    1      0.35     -1.21
   17   15    1      0.69      2.12
   19   15    1     -1.21     -3.27
   21   15    1     -0.70      1.19
  -24   14    1     -2.71     -0.06
  -22   14    1      1.66     -1.81
  -20   14    1     -0.61      0.14
  -18   14    1      0.88      2.09
  -16   14    1      1.39      1.12
  -14   14    1     -1.92      1.15
  -12   14    1      3.22     -0.21
  -10   14    1     -0.28     -1.26
   -8   14    1     -0.01     -2.57
   -6   14    1      1.77     -1.08
   -4   14    1     -2.90      2.66
   -2   14    1     -0.46     -0.29
    0   14    1     -3.07     -0.78
    2   14    1      0.99     -1.28
    4   14    1      4.05      0.34
    6   14    1     -0.20     -3.31
    8   14    1     -0.74      0.75
   10   14    1      2.38      1.68
   12   14    1     -2.72      1.27
   14   14    1      0.42      0.70
   16   14    1     -1.00      2.24
   18   14    1     -0.50      1.31
   20   14    1      1.60     -2.65
   22   14    1     -2.77      0.36
   24   14    1      0.52     -0.94
  -27   13    1     -3.53     -0.51
  -25   13    1     -1.30      0.64
  -23   13    1      1.29     -2.52
  -21   13    1      2.40      3.13
  -19   13    1     -2.46     -0.12
  -17   13    1      1.02      1.04
  -15   13    1     -0.98      0.67
  -13   13    1     -1.77      0.94
  -11   13    1      1.30     -0.79
   -9   13    1      2.70     -2.59
   -7   13    1      0.54      1.26
   -5   13    1      1.10     -3.96
   -3   13    1      0.11      4.14
   -1   13    1     -3.60     -5.36
    1   13    1      1.99      3.88
    3   13    1      2.24     -5.60
    5   13    1     -0.07      2.49
    7   13    1      1.93     -2.04
    9   13    1     -2.32      0.51
   11   13    1     -0.39      4.54
   13   13    1     -3.00     -0.08
   15   13    1      3.06      1.17
   17   13    1     -4.76      0.58
   19   13    1      0.88      2.58
   21   13    1      1.10     -3.47
   23   13    1     -1.15      0.42
   25   13    1     -0.68     -1.26
   27   13    1      0.23      1.03
  -30   12    1      0.68      1.76
  -28   12    1     -0.71     -0.37
  -26   12    1     -2.98     -3.63
  -24   12    1      1.79      0.23
  -22   12    1     -0.24      3.66
  -20   12    1      2.27     -1.53
  -18   12    1     -2.68     -1.18
  -16   12    1      2.20      2.95
  -14   12    1     -3.73     -2.81
  -12   12    1     -1.53     -0.34
  -10   12    1      3.60      0.19
   -8   12    1     -1.58      0.84
   -6   12    1      2.26      0.13
   -4   12    1      4.19      0.81
   -2   12    1     -1.87     -1.37
    0   12    1     -0.92     -2.74
    2   12    1      3.94      1.63
    4   12    1      0.26     -0.25
    6   12    1     -0.42      0.42
    8   12    1     -1.92      0.27
   10   12    1     -0.67      0.57
   12   12    1     -5.05     -2.95
   14   12    1      4.12      5.57
   16   12    1     -1.79     -1.76
   18   12    1     -1.65     -1.01
   20   12    1      0.54      1.35
   22   12    1     -0.49     -0.35
   24   12    1      0.63     -1.78
   26   12    1     -1.18      0.25
   28   12    1      2.68      1.15
  -31   11    1     -1.25      2.14
  -29   11    1     -0.51      2.12
  -27   11    1      1.68     -2.07
  -25   11    1     -0.41     -2.12
  -23   11    1     -0.67      0.83
  -21   11    1     -0.66      1.20
  -19   11    1      5.59     -1.37
  -17   11    1     -1.18     -3.66
  -15   11    1     -4.30      3.64
  -13   11    1      3.36     -6.57
  -11   11    1     -2.51      4.70
   -9   11    1      2.71     -1.74
   -7   11    1     -2.68      1.61
   -5   11    1      0.88      5.70
   -3   11    1      1.76     -3.39
   -1   11    1      0.58      2.28
    1   11    1     -0.23     -3.90
    3   11    1      4.15      6.04
    5   11    1     -5.35     -0.09
    7   11    1      1.75     -1.42
    9   11    1     -2.86     -0.41
   11   11    1      2.31     -5.70
   13   11    1     -1.75      2.46
   15   11    1     -3.18     -0.48
   17   11    1      6.28     -1.55
   19   11    1     -3.25     -0.12
   21   11    1     -0.14      0.71
   23   11    1     -0.95     -0.69
   25   11    1      1.91      0.44
   27   11    1     -0.66      1.68
   29   11    1     -1.07      2.61
   31   11    1     -0.39      0.06
  -32   10    1     -1.84     -0.36
  -30   10    1     -1.17      1.50
  -28   10    1     -2.37      0.72
  -26   10    1      2.60     -1.18
  -24   10    1     -0.18      2.28
  -22   10    1     -0.68     -7.98
  -20   10    1      2.58      8.32
  -18   10    1      3.75     -6.42
  -16   10    1     -0.44      0.11
  -14   10    1     -0.19     -3.44
  -12   10    1     -0.61      2.50
  -10   10    1      3.43      1.56
   -8   10    1     -1.03      0.80
   -6   10    1     -3.58      0.86
   -4   10    1     -0.28      0.27
   -2   10    1     -2.57      3.32
    0   10    1     -1.62      0.35
    2   10    1      0.82      2.89
    4   10    1      1.56     -0.33
    6   10    1     -3.76     -0.37
    8   10    1      6.34     -3.40
   10   10    1     -0.54      2.15
   12   10    1     -0.22     -6.15
   14   10    1     -1.78     -0.23
   16   10    1      2.65     -4.04
   18   10    1      2.54      5.57
   20   10    1     -1.82     -4.51
   22   10    1     -0.65      1.88
   24   10    1     -0.32      1.95
   26   10    1     -1.45      1.20
   28   10    1     -0.75     -0.22
   30   10    1     -2.58      0.72
   32   10    1      2.96     -0.19
  -33    9    1      0.97     -0.78
  -31    9    1     -2.83     -1.19
  -29    9    1      0.57     -1.63
  -27    9    1     -4.54     -0.06
  -25    9    1     -0.90      1.43
  -23    9    1      3.97     -0.81
  -21    9    1      0.76     -1.12
  -19    9    1     -0.58      0.46
  -17    9    1      4.75     -0.70
  -15    9    1      1.00      1.82
  -13    9    1     -1.60     -1.22
  -11    9    1      5.46      0.27
   -9    9    1     -2.99      3.43
   -7    9    1      0.41     -1.92
   -5    9    1     -0.16      0.61
   -3    9    1     -2.88      0.59
   -1    9    1    -11.09     -1.89
    1    9    1     -0.13      1.02
    3    9    1      2.86      3.45
    5    9    1      4.29     -3.26
    7    9    1     -1.29      1.98
    9    9    1      7.20      0.77
   11    9    1     -4.48     -3.90
   13    9    1      0.92      0.19
   15    9    1      3.43     -3.97
   17    9    1     -1.90      3.09
   19    9    1      2.38     -2.20
   21    9    1      0.80      2.45
   23    9    1     -4.31      0.65
   25    9    1     -3.37      0.86
   27    9    1      0.69     -1.00
   29    9    1      0.77     -2.16
   31    9    1     -0.10     -0.10
   33    9    1      0.89      4.66
  -36    8    1     -0.65      6.37
  -34    8    1     -1.65     -3.60
  -32    8    1      2.40      1.18
  -30    8    1     -0.85     -1.41
  -28    8    1     -1.20     -3.77
  -26    8    1     -3.57     -1.14
  -24    8    1     -0.21     -0.26
  -22    8    1     -1.27      4.27
  -20    8    1      4.02     -2.31
  -18    8    1      1.09      0.65
  -16    8    1     -1.09      4.09
  -14    8    1     -3.06     -0.95
  -12    8    1      4.45      3.82
  -10    8    1      5.34     -1.24
   -8    8    1     -3.43      0.01
   -6    8    1     -0.49     -1.74
   -4    8    1      1.47      4.98
   -2    8    1     -4.18    -11.36
    0    8    1     -4.47     -5.03
    2    8    1      2.70      4.33
    4    8    1      2.88      3.92
    6    8    1     -2.81     -0.79
    8    8    1      5.15      2.91
   10    8    1      0.25     -0.63
   12    8    1     -1.11      0.80
   14    8    1     -3.00     -2.77
   16    8    1      1.75      3.36
   18    8    1      3.68     -3.39
   20    8    1     -3.20      5.19
   22    8    1     -1.43     -1.88
   24    8    1     -3.41     -0.99
   26    8    1     -0.98     -3.95
   28    8    1      3.80      2.43
   30    8    1      2.39     -1.01
   32    8    1     -1.23     -0.93
   34    8    1     -1.58      5.67
  -37    7    1     -1.21      1.98
  -35    7    1     -1.64     -2.43
  -33    7    1      3.42      2.18
  -31    7    1     -0.62     -1.40
  -29    7    1     -1.00     -0.92
  -27    7    1      3.69     -1.79
  -25    7    1     -3.80     -3.48
  -23    7    1     -1.48     -0.59
  -21    7    1     -3.48      1.94
  -19    7    1      2.65      5.24
  -17    7    1      0.74      0.99
  -15    7    1     -6.12     -5.64
  -13    7    1      0.11      1.60
  -11    7    1      1.39      6.88
   -9    7    1      1.10      2.99
   -7    7    1      4.86     -2.91
   -5    7    1     -6.21     -4.62
   -3    7    1     11.12      0.88
   -1    7    1     -0.87    -12.10
    1    7    1      4.85     -0.25
    3    7    1     -2.71      8.95
    5    7    1     -1.07     -3.42
    7    7    1     -2.81      3.67
    9    7    1     -0.78      4.94
   11    7    1      0.73     -0.39
   13    7    1     -6.51     -6.59
   15    7    1      2.90      1.80
   17    7    1      1.07      5.38
   19    7    1     -3.93      0.13
   21    7    1     -0.69     -1.77
   23    7    1     -0.76     -5.02
   25    7    1      2.56      0.61
   27    7    1      2.77     -0.19
   29    7    1     -1.37      1.88
   31    7    1      4.32      0.49
   33    7    1     -2.58     -1.48
   35    7    1     -2.80      2.69
  -38    6    1      0.37      1.91
  -36    6    1     -0.63     -3.42
  -34    6    1     -0.83      1.76
  -32    6    1      2.16      1.88
  -30    6    1      1.29     -2.52
  -28    6    1      1.29      4.29
  -26    6    1      2.34     -4.55
  -24    6    1     -2.10     -1.41
  -22    6    1      0.16     -2.42
  -20    6    1     -6.43      2.52
  -18    6    1     -3.17      3.25
  -16    6    1      6.71     -5.05
  -14    6    1     -6.85     -2.65
  -12    6    1      1.72     -4.01
  -10    6    1     -6.45     13.66
   -8    6    1     -6.57      0.12
   -6    6    1     20.84     -1.80
   -4    6    1     -4.62     -2.10
   -2    6    1      9.67     -3.63
    0    6    1      5.79     -4.40
    2    6    1     -7.66      8.72
    4    6    1      9.97      2.20
    6    6    1     -9.15     -0.95
    8    6    1     -9.55      3.92
   10    6    1      2.17     -2.16
   12    6    1     -5.61     -6.74
   14    6    1      9.07     -2.85
   16    6    1     -7.14      6.53
   18    6    1     -2.93      1.07
   20    6    1      1.11     -3.38
   22    6    1      0.99     -1.66
   24    6    1      4.37     -2.71
   26    6    1      1.00      5.75
   28    6    1      0.28     -1.27
   30    6    1      1.89      2.29
   32    6    1     -1.76     -0.16
   34    6    1     -2.94     -1.62
   36    6    1      1.11      0.17
  -37    5    1     -0.74     -0.57
  -35    5    1      0.91     -2.74
  -33    5    1     -3.42      1.49
  -31    5    1      4.52      2.45
  -29    5    1      1.26      3.22
  -27    5    1      1.10      1.22
  -25    5    1      1.60     -6.73
  -23    5    1     -1.24      6.17
  -21    5    1     -1.92     -7.82
  -19    5    1     -1.44      0.28
  -17    5    1      1.68     -2.98
  -15    5    1     -2.13     -3.75
  -13    5    1      4.30      0.69
  -11    5    1     -9.85      1.75
   -9    5    1      2.31     -2.11
   -7    5    1     -8.53      2.00
   -5    5    1     16.54     12.04
   -3    5    1      5.05     -7.74
   -1    5    1     -5.66     -0.93
    1    5    1      2.07      4.13
    3    5    1      1.24      8.67
    5    5    1     -4.54      4.97
    7    5    1      1.22     -9.92
    9    5    1    -10.90     -2.27
   11    5    1      5.51     -3.70
   13    5    1      1.48     -2.24
   15    5    1     -0.01     -3.42
   17    5    1     -1.06      3.57
   19    5    1     -0.64     -3.55
   21    5    1      1.27      5.82
   23    5    1      1.99     -7.13
   25    5    1      2.41      4.67
   27    5    1     -1.08      2.16
   29    5    1      2.72      2.81
   31    5    1     -4.90      0.75
   33    5    1     -0.55     -4.79
   35    5    1     -0.54      0.07
   37    5    1      1.11      2.51
  -38    4    1     -0.75     -0.51
  -36    4    1      0.04      3.43
  -34    4    1      1.33     -7.27
  -32    4    1     -3.92      5.85
  -30    4    1      3.99      2.96
  -28    4    1     -0.99      0.62
  -26    4    1      0.38     -0.54
  -24    4    1      1.92     -0.20
  -22    4    1     -3.95     -2.75
  -20    4    1      5.22     -1.35
  -18    4    1      4.95     -6.58
  -16    4    1     -0.12      2.68
  -14    4    1     -3.05     -5.75
  -12    4    1     -4.90      5.67
  -10    4    1      2.95     10.59
   -8    4    1      7.60    -22.12
   -6    4    1    -14.67     12.13
   -4    4    1     10.94      2.51
   -2    4    1      0.23      1.97
    0    4    1     -9.22      0.75
    2    4    1     -1.98     -1.64
    4    4    1     -6.44     20.64
    6    4    1      3.69    -26.61
    8    4    1     10.33     14.57
   10    4    1     -8.26     -8.03
   12    4    1      0.86     -1.50
   14    4    1      3.94     -3.68
   16    4    1      6.31     -1.88
   18    4    1      1.25      3.67
   20    4    1     -6.43     -1.24
   22    4    1      4.27      0.99
   24    4    1      0.04     -0.84
   26    4    1     -0.44      0.59
   28    4    1     -0.62      4.05
   30    4    1     -4.49      2.52
   32    4    1      1.26     -6.26
   34    4    1      0.96      1.61
   36    4    1     -0.59      2.00
   38    4    1     -0.34      1.91
  -39    3    1     -0.49      1.63
  -37    3    1      1.10      3.02
  -35    3    1     -2.89     -1.03
  -33    3    1      3.07     -1.81
  -31    3    1     -5.47      3.59
  -29    3    1      1.17     -0.15
  -27    3    1     -1.01     -4.04
  -25    3    1      0.44      4.51
  -23    3    1     -2.60     -3.61
  -21    3    1      6.23     -2.49
  -19    3    1      9.74      0.61
  -17    3    1     -6.76      0.80
  -15    3    1      8.58      0.40
  -13    3    1    -10.17     -2.06
  -11    3    1      0.41     12.59
   -9    3    1    -15.34      1.36
   -7    3    1     26.07     -7.41
   -5    3    1    -16.28     -9.28
   -3    3    1     26.26     -0.76
   -1    3    1    -32.10     12.49
    1    3    1     18.48    -18.69
    3    3    1    -28.38      4.97
    5    3    1     20.68     -1.18
    7    3    1    -10.89      8.45
    9    3    1      3.82      8.70
   11    3    1     -4.98     -5.14
   13    3    1     12.52     -5.71
   15    3    1     -1.35      3.31
   17    3    1      5.85      4.20
   19    3    1      1.60     -7.90
   21    3    1     -4.68      2.37
   23    3    1      0.79      2.82
   25    3    1     -1.35     -3.36
   27    3    1      0.74     -1.30
   29    3    1     -6.96      1.91
   31    3    1      4.42     -0.04
   33    3    1     -1.31      0.06
   35    3    1      3.13      4.28
   37    3    1     -2.59      0.79
   39    3    1      0.04     -2.55
  -40    2    1      1.76      2.42
  -38    2    1      3.86      2.57
  -36    2    1     -3.76      0.80
  -34    2    1      1.69     -0.99
  -32    2    1     -4.94      1.49
  -30    2    1     -1.90     -4.73
  -28    2    1      0.85     -2.12
  -26    2    1      0.07      0.32
  -24    2    1     -4.18     -0.99
  -22    2    1      7.67      0.28
  -20    2    1      3.17      3.77
  -18    2    1      1.87     -2.86
  -16    2    1     -5.10      0.59
  -14    2    1      5.54     11.28
  -12    2    1     -4.73      5.47
  -10    2    1    -21.07     -3.71
   -8    2    1    -17.09     -7.31
   -6    2    1     15.24     10.61
   -4    2    1     44.39      8.55
   -2    2    1      3.29    -28.94
    0    2    1    -16.67    -35.78
    2    2    1     30.01     12.50
    4    2    1    -20.67     20.95
    6    2    1    -26.05      0.57
    8    2    1    -16.42      7.43
   10    2    1     10.59      3.17
   12    2    1      7.34      4.51
   14    2    1      5.35      0.96
   16    2    1     -3.97     -6.62
   18    2    1      6.91      3.07
   20    2    1      3.28     -0.58
   22    2    1     -7.12     -1.17
   24    2    1     -0.01     -1.34
   26    2    1      0.33     -1.93
   28    2    1      1.45     -3.39
   30    2    1     -3.55      1.70
   32    2    1      1.67      2.67
   34    2    1      0.54      3.02
   36    2    1      2.24      1.64
   38    2    1     -0.80     -0.92
  -39    1    1      0.44      7.28
  -37    1    1      2.83     -1.10
  -35    1    1      0.98      0.94
  -33    1    1     -8.94     -0.23
  -31    1    1      2.18     -5.85
  -29    1    1     -2.42     -0.97
  -27    1    1      4.48     -0.31
  -25    1    1     -4.36     -4.17
  -23    1    1      2.45      6.94
  -21    1    1      0.83      0.49
  -19    1    1      0.80     -2.14
  -17    1    1      3.73     -1.85
  -15    1    1     -6.23      6.77
  -13    1    1     -5.80     11.67
  -11    1    1    -22.02     10.23
   -9    1    1      3.81    -43.97
   -7    1    1    -45.70     37.92
   -5    1    1     45.81    -37.89
   -3    1    1    -11.60    149.54
    1    1    1    -49.73    160.44
    3    1    1     -1.74    -44.39
    5    1    1    -84.56     56.18
    7    1    1     -0.37    -45.09
    9    1    1    -12.66     18.62
   11    1    1      8.02     13.91
   13    1    1      5.67     -3.65
   15    1    1      4.73     -2.17
   17    1    1      2.83     -5.22
   19    1    1     -0.37      4.60
   21    1    1     -0.12      2.01
   23    1    1     -1.75     -6.17
   25    1    1      2.74     -0.47
   27    1    1     -0.31     -0.60
   29    1    1      2.76     -0.39
   31    1    1     -5.11      0.92
   33    1    1      5.24      3.67
   35    1    1     -2.08     -2.27
   37    1    1      2.76      4.79
   39    1    1      1.52     -5.82
  -40    0    1      2.06     -0.44
  -38    0    1      1.82      4.18
  -36    0    1     -1.64     -2.23
  -34    0    1      1.76      1.52
  -32    0    1     -7.90     -6.14
  -30    0    1      3.64      1.95
  -28    0    1      0.42     -0.36
  -26    0    1      1.84      0.55
  -24    0    1     -2.88      0.60
  -22    0    1     -1.54     -0.32
  -20    0    1      1.39      0.15
  -18    0    1      5.94      0.50
  -16    0    1     -2.60     -0.17
  -14    0    1    -11.41      0.13
  -12    0    1    -17.86      0.43
  -10    0    1    -17.76     -0.60
   -8    0    1     15.01      0.98
   -6    0    1    -32.95     -1.82
   -4    0    1    -38.30      0.21
    4    0    1    -95.26      2.13
    6    0    1      7.86     -1.08
    8    0    1    -29.36      0.11
   10    0    1      0.50     -0.34
   12    0    1      5.31     -0.03
   14    0    1      4.65      0.47
   16    0    1     10.95     -0.45
   18    0    1     -4.64     -0.04
   20    0    1      0.27      0.19
   22    0    1     -1.85     -0.38
   24    0    1      3.45      0.34
   26    0    1      3.29      0.52
   28    0    1     -0.43     -1.22
   30    0    1     -3.56      4.16
   32    0    1      4.63     -1.92
   34    0    1     -2.51      0.98
   36    0    1      2.97     -5.24
   38    0    1      1.68      1.02
  -13   17    2     -0.67      2.29
  -11   17    2     -2.58     -0.33
   -9   17    2      1.51      1.62
   -7   17    2     -1.04     -1.14
   -5   17    2      1.73      0.10
   -3   17    2     -1.80      0.77
   -1   17    2     -1.90     -1.07
    1   17    2      0.54      1.37
    3   17    2      1.56     -3.14
    5   17    2      1.28      2.36
    7   17    2     -1.11     -1.45
    9   17    2     -0.24      4.22
   11   17    2      2.15     -1.72
  -18   16    2      2.04     -0.58
  -16   16    2      1.85      0.24
  -14   16    2      1.80      2.29
  -12   16    2     -3.74     -0.55
  -10   16    2     -1.62     -0.81
   -8   16    2      1.06      2.83
   -6   16    2     -1.07      0.33
   -4   16    2      1.49     -1.71
   -2   16    2     -3.04      1.98
    0   16    2     -0.05     -2.53
    2   16    2      1.91     -0.55
    4   16    2      1.81      0.38
    6   16    2     -0.77      0.13
    8   16    2     -0.29     -0.61
   10   16    2     -1.94      2.27
   12   16    2      1.94     -1.43
   14   16    2     -0.21     -1.18
   16   16    2      2.10     -0.03
  -21   15    2     -1.54     -0.84
  -19   15    2      4.10      0.16
  -17   15    2      1.12      0.09
  -15   15    2      1.99      3.74
  -13   15    2     -2.59     -1.54
  -11   15    2      1.87     -1.47
   -9   15    2     -3.50      1.09
   -7   15    2     -1.57     -0.96
   -5   15    2      2.18      3.38
   -3   15    2     -2.00     -2.02
   -1   15    2     -0.96      0.50
    1   15    2     -0.09     -2.03
    3   15    2      6.46     -0.72
    5   15    2     -4.50     -0.83
    7   15    2      2.51      2.35
    9   15    2     -1.09     -2.19
   11   15    2     -2.39      2.71
   13   15    2      1.07     -0.93
   15   15    2      0.97      1.32
   17   15    2     -0.04     -0.18
   19   15    2     -0.44     -2.32
   21   15    2      0.19      1.11
  -24   14    2     -1.24     -1.99
  -22   14    2      1.88     -0.70
  -20   14    2      0.02      0.04
  -18   14    2      1.21      1.70
  -16   14    2      0.83      1.35
  -14   14    2     -1.18      0.14
  -12   14    2      1.68     -0.75
  -10   14    2      0.06     -1.70
   -8   14    2     -0.93     -1.63
   -6   14    2     -1.46      0.45
   -4   14    2      1.42      3.37
   -2   14    2     -5.00     -2.00
    0   14    2      4.10     -1.62
    2   14    2      0.13     -1.52
    4   14    2      2.95      1.12
    6   14    2     -0.98     -3.11
    8   14    2     -2.77      5.86
   10   14    2      2.91     -1.74
   12   14    2     -4.26      3.15
   14   14    2      1.38     -1.77
   16   14    2     -1.92      3.88
   18   14    2      2.85     -1.60
   20   14    2     -1.81     -2.31
   22   14    2      0.47      0.45
   24   14    2     -0.17     -0.75
  -27   13    2     -2.81      1.28
  -25   13    2      1.22     -2.28
  -23   13    2      3.39      1.73
  -21   13    2      0.38     -0.89
  -19   13    2     -1.36      0.68
  -17   13    2      0.75      0.87
  -15   13    2     -2.50     -1.40
  -13   13    2      0.04      2.99
  -11   13    2      2.93     -5.57
   -9   13    2      0.41      2.83
   -7   13    2      1.04     -1.61
   -5   13    2     -0.66     -1.06
   -3   13    2     -0.83      2.66
   -1   13    2     -2.12     -3.14
    1   13    2      4.12     -0.82
    3   13    2      0.39     -0.11
    5   13    2     -0.91     -0.11
    7   13    2     -0.90      0.66
    9   13    2     -0.77      3.62
   11   13    2     -3.65      1.92
   13   13    2      3.67     -0.33
   15   13    2     -2.85      0.04
   17   13    2     -1.93      1.85
   19   13    2      2.49     -1.51
   21   13    2     -1.00     -1.77
   23   13    2      1.75     -1.04
   25   13    2     -1.11      1.23
   27   13    2      2.15     -1.28
  -30   12    2      0.53      0.61
  -28   12    2     -2.07     -3.48
  -26   12    2     -1.08     -0.43
  -24   12    2      3.30      1.38
  -22   12    2      1.47      2.92
  -20   12    2      0.44     -3.64
  -18   12    2     -1.40     -0.13
  -16   12    2     -0.94      2.22
  -14   12    2     -3.14     -5.14
  -12   12    2      2.81      3.53
  -10   12    2      1.17     -0.67
   -8   12    2     -1.40      0.47
   -6   12    2      4.52      1.65
   -4   12    2     -1.28     -0.86
   -2   12    2      0.57     -2.32
    0   12    2     -2.99     -0.20
    2   12    2      6.51     -0.11
    4   12    2     -4.49      1.53
    6   12    2     -0.64     -0.85
    8   12    2     -1.04      2.13
   10   12    2     -3.67     -1.12
   12   12    2      1.58      0.12
   14   12    2      1.72      4.74
   16   12    2     -2.30     -4.46
   18   12    2     -1.53      1.10
   20   12    2      1.98     -0.73
   22   12    2     -0.67     -0.23
   24   12    2      1.66     -0.58
   26   12    2      0.11      0.53
   28   12    2      1.86      1.68
  -31   11    2      1.37      0.58
  -29   11    2     -0.99      1.75
  -27   11    2      1.75     -6.21
  -25   11    2      1.30      2.76
  -23   11    2     -4.40     -0.38
  -21   11    2      8.97      3.35
  -19   11    2     -3.02     -6.56
  -17   11    2      0.44      2.48
  -15   11    2     -3.90     -3.08
  -13   11    2      2.07      1.74
  -11   11    2      0.29      2.54
   -9   11    2     -1.05     -1.45
   -7   11    2     -0.41      3.41
   -5   11    2     -0.30      1.10
   -3   11    2      1.62     -1.05
   -1   11    2     -0.22     -2.76
    1   11    2      1.51      3.19
    3   11    2      0.33     -0.87
    5   11    2     -3.19      3.32
    7   11    2     -1.92     -6.56
    9   11    2      2.61      2.02
   11   11    2     -1.25     -5.67
   13   11    2     -0.78      5.84
   15   11    2      0.20     -2.26
   17   11    2      1.92     -0.93
   19   11    2     -1.49      1.38
   21   11    2     -1.67     -0.95
   23   11    2      3.05      1.61
   25   11    2     -1.52      0.31
   27   11    2      1.81      1.99
   29   11    2     -2.30      1.19
   31   11    2      0.58     -2.34
  -32   10    2     -0.70      1.81
  -30   10    2     -1.17     -0.73
  -28   10    2      0.36      0.97
  -26   10    2      2.67     -1.51
  -24   10    2     -0.68     -1.92
  -22   10    2      0.54      0.65
  -20   10    2      2.74      3.01
  -18   10    2      4.74     -4.03
  -16   10    2     -4.59     -1.55
  -14   10    2      2.85      2.28
  -12   10    2     -4.10      0.70
  -10   10    2      3.05      3.92
   -8   10    2     -2.44     -1.41
   -6   10    2     -5.65     -1.25
   -4   10    2      3.49      1.82
   -2   10    2     -6.11      1.77
    0   10    2      3.99     -0.80
    2   10    2      1.80      4.65
    4   10    2     -1.53     -5.91
    6   10    2      1.12      1.03
    8   10    2      2.34     -4.73
   10   10    2      0.01      1.11
   12   10    2     -1.96     -2.62
   14   10    2     -0.50     -4.99
   16   10    2      4.29      8.01
   18   10    2     -2.37     -4.32
   20   10    2      0.44      2.99
   22   10    2     -1.82      0.45
   24   10    2     -0.24      2.90
   26   10    2      0.33     -0.75
   28   10    2     -1.71     -0.34
   30   10    2      0.35      0.96
   32   10    2      2.56     -0.80
  -35    9    2     -1.93      0.70
  -33    9    2      2.47     -1.13
  -31    9    2     -3.29     -0.51
  -29    9    2     -1.46     -1.90
  -27    9    2      0.02      1.07
  -25    9    2     -0.60      0.55
  -23    9    2      6.90     -1.78
  -21    9    2     -4.50      1.66
  -19    9    2      4.34     -0.37
  -17    9    2      4.00      2.47
  -15    9    2     -2.45      1.79
  -13    9    2      3.15     -2.13
  -11    9    2     -3.61      0.68
   -9    9    2     -0.30      2.17
   -7    9    2     -3.41     -3.65
   -5    9    2      3.59      1.16
   -3    9    2    -10.78     -0.85
   -1    9    2     -1.89     -0.45
    1    9    2      2.50      3.06
    3    9    2      6.52      0.60
    5    9    2     -0.02     -3.35
    7    9    2      3.87      0.97
    9    9    2     -3.13     -0.76
   11    9    2      1.10     -4.01
   13    9    2     -1.58     -0.70
   15    9    2      4.13      0.13
   17    9    2     -3.22      1.59
   19    9    2      2.98      1.18
   21    9    2     -2.98      1.92
   23    9    2     -3.44      0.77
   25    9    2     -1.46      0.27
   27    9    2      4.96     -2.03
   29    9    2     -1.62     -1.33
   31    9    2      0.85      2.65
   33    9    2      0.18      2.21
  -36    8    2     -2.78      0.94
  -34    8    2      2.55     -0.29
  -32    8    2     -1.86     -2.58
  -30    8    2     -0.52      0.86
  -28    8    2     -2.03     -5.95
  -26    8    2     -1.77      1.31
  -24    8    2      1.43      3.65
  -22    8    2      0.48     -0.01
  -20    8    2      3.53     -0.15
  -18    8    2      1.55      2.33
  -16    8    2     -4.81      5.59
  -14    8    2      2.65     -2.42
  -12    8    2      4.88      2.83
  -10    8    2     -0.91     -5.35
   -8    8    2     -1.48     -2.63
   -6    8    2     -3.17      5.43
   -4    8    2      3.45     -5.70
   -2    8    2     -8.22     -5.64
    0    8    2      0.33     -0.51
    2    8    2      5.70      8.75
    4    8    2     -0.40      0.07
    6    8    2      0.24     -2.25
    8    8    2      1.05      4.33
   10    8    2      0.85     -6.68
   12    8    2     -4.71      4.41
   14    8    2      2.86     -3.48
   16    8    2      0.30      1.99
   18    8    2      1.09      0.42
   20    8    2     -2.77      3.48
   22    8    2     -3.33     -3.56
   24    8    2      0.05     -0.04
   26    8    2      1.49     -1.97
   28    8    2      4.66      3.36
   30    8    2      0.87     -2.75
   32    8    2     -4.25      2.05
   34    8    2      1.06      3.10
  -37    7    2     -4.20      0.37
  -35    7    2      3.69     -2.22
  -33    7    2     -0.75      2.32
  -31    7    2     -2.28     -3.06
  -29    7    2      2.37     -0.77
  -27    7    2     -1.02     -4.09
  -25    7    2     -1.67      1.32
  -23    7    2     -3.87     -1.76
  -21    7    2      2.42      7.56
  -19    7    2      2.35      0.78
  -17    7    2     -3.50     -0.74
  -15    7    2     -0.75     -1.55
  -13    7    2     -3.74      1.93
  -11    7    2     11.23      6.54
   -9    7    2     -2.92     -2.60
   -7    7    2      4.42     -9.39
   -5    7    2     -4.59      4.32
   -3    7    2      9.08     -8.38
   -1    7    2     -4.54     -4.61
    1    7    2      1.20     10.27
    3    7    2     -1.36      4.52
    5    7    2     -4.77     -4.76
    7    7    2     -0.11      5.76
    9    7    2      1.87     -3.36
   11    7    2     -5.97      1.85
   13    7    2      4.34     -6.65
   15    7    2     -2.72      7.08
   17    7    2      3.31      1.76
   19    7    2     -5.97     -3.35
   21    7    2      2.24     -1.50
   23    7    2     -0.06     -2.79
   25    7    2      4.37      1.09
   27    7    2     -0.88      3.06
   29    7    2      1.88      0.11
   31    7    2      0.87     -1.22
   33    7    2     -3.93      1.31
   35    7    2     -0.21     -0.27
  -38    6    2      0.15     -0.04
  -36    6    2      1.02     -3.10
  -34    6    2     -0.45      4.17
  -32    6    2      0.88     -2.12
  -30    6    2      1.54     -0.26
  -28    6    2      1.42      1.07
  -26    6    2     -2.37     -5.84
  -24    6    2      2.29      0.80
  -22    6    2     -7.83     -1.39
  -20    6    2      0.16      5.06
  -18    6    2      0.34     -1.05
  -16    6    2      1.12     -2.66
  -14    6    2     -2.61     -4.44
  -12    6    2     -0.87      9.40
  -10    6    2     -2.29      0.75
   -8    6    2      5.35      7.42
   -6    6    2     13.74    -16.59
   -4    6    2     -3.38      4.50
   -2    6    2      3.03     -6.09
    0    6    2      1.02      3.36
    2    6    2     -9.81     12.66
    4    6    2      5.86     -1.21
    6    6    2    -10.44     -6.26
    8    6    2     -1.50      3.72
   10    6    2     -0.83     -5.69
   12    6    2      5.21     -4.34
   14    6    2     -2.32      5.14
   16    6    2     -1.16      5.69
   18    6    2     -3.41     -6.95
   20    6    2      5.16      0.83
   22    6    2      0.97     -4.65
   24    6    2      2.62      3.05
   26    6    2      0.28      4.56
   28    6    2     -1.41     -2.57
   30    6    2      1.32      3.55
   32    6    2     -3.24     -2.91
   34    6    2     -0.73     -0.49
   36    6    2      1.11      1.30
  -37    5    2      3.89      0.15
  -35    5    2     -4.21     -3.57
  -33    5    2      3.17      5.89
  -31    5    2      2.80     -1.04
  -29    5    2     -0.70      2.08
  -27    5    2      2.65     -2.79
  -25    5    2     -1.71     -2.99
  -23    5    2     -1.89      0.87
  -21    5    2     -0.43     -4.33
  -19    5    2     -2.43     -2.97
  -17    5    2      4.21      3.54
  -15    5    2     -7.18     -4.63
  -13    5    2      5.83      5.44
  -11    5    2     -4.31      4.24
   -9    5    2     -6.87    -12.55
   -7    5    2     12.97     22.16
   -5    5    2      5.59    -13.93
   -3    5    2      3.31     -1.22
   -1    5    2     -4.87      5.66
    1    5    2    -11.36      1.12
    3    5    2     10.06     16.46
    5    5    2    -12.81    -11.78
    7    5    2      8.32     -8.43
    9    5    2     -8.36      0.25
   11    5    2      6.14     -5.26
   13    5    2      3.69      2.92
   15    5    2     -6.31     -0.71
   17    5    2      5.23      1.84
   19    5    2     -2.61      1.54
   21    5    2      3.45     -4.84
   23    5    2      1.94      1.61
   25    5    2     -1.84      2.23
   27    5    2      0.91      2.30
   29    5    2     -2.73      3.74
   31    5    2     -2.19     -5.09
   33    5    2     -1.27     -1.36
   35    5    2      3.19      2.25
   37    5    2     -1.08      0.54
  -38    4    2     -0.43     -1.22
  -36    4    2      1.02      0.81
  -34    4    2     -2.71     -2.44
  -32    4    2      4.28      5.61
  -30    4    2     -0.27      0.79
  -28    4    2      0.09     -1.89
  -26    4    2      2.71     -1.64
  -24    4    2     -5.54      0.19
  -22    4    2      5.73     -4.80
  -20    4    2      3.06     -4.56
  -18    4    2     -0.51      4.15
  -16    4    2     -2.49     -6.80
  -14    4    2     -7.54     11.34
  -12    4    2      3.43     -1.07
  -10    4    2      4.46      5.16
   -8    4    2      0.23    -21.79
   -6    4    2     -9.26     14.85
   -4    4    2     18.23      7.08
   -2    4    2     -5.43     -6.85
    0    4    2    -17.11      4.19
    2    4    2     -0.13     10.07
    4    4    2     -4.54     -7.20
    6    4    2     14.41     -0.88
    8    4    2     -0.98     -7.27
   10    4    2     -0.88      3.75
   12    4    2     -1.76     -8.47
   14    4    2      9.91      2.32
   16    4    2      1.81      3.94
   18    4    2     -5.66     -1.13
   20    4    2     -0.54      2.57
   22    4    2      4.61     -5.67
   24    4    2     -2.20      3.87
   26    4    2     -2.09     -0.93
   28    4    2     -2.20      7.15
   30    4    2     -3.15     -5.40
   32    4    2      2.64     -0.03
   34    4    2      1.01     -0.37
   36    4    2     -0.90      4.59
   38    4    2     -0.49     -1.72
  -39    3    2      1.48     -0.28
  -37    3    2     -5.49      2.87
  -35    3    2      3.56     -4.39
  -33    3    2     -3.76      1.59
  -31    3    2      1.41      3.39
  -29    3    2      0.08     -2.98
  -27    3    2      1.04     -1.93
  -25    3    2     -2.54      1.97
  -23    3    2      4.07     -4.60
  -21    3    2      6.65      1.10
  -19    3    2      4.42     -1.34
  -17    3    2    -11.39      4.97
  -15    3    2      4.68     -3.09
  -13    3    2     -7.95      4.96
  -11    3    2     -8.08      7.86
   -9    3    2     12.91     -6.78
   -7    3    2      5.80    -18.49
   -5    3    2      8.12      6.43
   -3    3    2     -1.45     11.38
   -1    3    2    -15.62     -1.04
    1    3    2     -4.67    -16.03
    3    3    2    -16.19     15.02
    5    3    2     17.87     -9.32
    7    3    2     -5.91     23.59
    9    3    2      7.13    -15.84
   11    3    2     -0.29      0.83
   13    3    2     10.40     -4.91
   15    3    2     -1.75      9.84
   17    3    2      1.66     -4.22
   19    3    2     -0.95     -3.95
   21    3    2     -3.57      4.46
   23    3    2      1.87     -2.16
   25    3    2     -1.33     -1.39
   27    3    2     -3.10     -0.81
   29    3    2     -3.22      2.91
   31    3    2      4.24     -0.26
   33    3    2      0.71      2.95
   35    3    2     -0.08      0.11
   37    3    2     -2.05      0.79
   39    3    2      0.09     -4.85
  -40    2    2      2.87      3.59
  -38    2    2     -2.95     -0.04
  -36    2    2     -0.96     -4.63
  -34    2    2     -1.13      3.71
  -32    2    2     -4.15     -4.56
  -30    2    2     -0.08      0.46
  -28    2    2      4.71     -3.31
  -26    2    2     -5.91      2.86
  -24    2    2      7.28     -3.07
  -22    2    2      2.55      3.68
  -20    2    2      3.25      3.96
  -18    2    2     -6.20     -7.22
  -16    2    2     -1.28     11.56
  -14    2    2     -0.14      1.55
  -12    2    2     -9.58      7.18
  -10    2    2    -18.30    -27.54
   -8    2    2     17.84     22.27
   -6    2    2     18.72    -23.78
   -4    2    2     65.37     49.49
   -2    2    2    -83.35    -87.78
    0    2    2     53.61     45.67
    2    2    2    -46.61    -25.82
    4    2    2     -6.29     42.22
    6    2    2    -21.62    -12.90
    8    2    2     10.24     10.15
   10    2    2     15.48     -0.37
   12    2    2      8.30     -1.19
   14    2    2     -4.11     -2.85
   16    2    2     -0.38     -0.65
   18    2    2      8.98      0.13
   20    2    2     -5.77      0.08
   22    2    2     -4.25     -1.57
   24    2    2      3.03     -2.86
   26    2    2      0.36      0.11
   28    2    2     -0.52     -3.96
   30    2    2     -2.98      8.05
   32    2    2      4.55     -1.92
   34    2    2     -1.45      5.64
   36    2    2      2.72     -3.24
   38    2    2     -2.61     -3.45
  -39    1    2      3.11      2.70
  -37    1    2     -2.63     -2.38
  -35    1    2      0.59     -2.00
  -33    1    2     -9.73      0.08
  -31    1    2      4.04     -5.01
  -29    1    2      1.08     -0.04
  -27    1    2     -0.01      0.30
  -25    1    2      0.34      1.20
  -23    1    2      3.18      4.46
  -21    1    2     -2.01     -1.34
  -19    1    2      2.63     -0.44
  -17    1    2     -3.72     -1.72
  -15    1    2     -8.59     14.14
  -13    1    2     -8.93      3.57
  -11    1    2     -7.91    -11.02
   -9    1    2      3.88    -26.58
   -7    1    2      5.56     18.44
   -5    1    2     26.44     53.34
   -3    1    2     57.67    -48.13
   -1    1    2     34.60    -82.46
    1    1    2    -48.93     73.53
    3    1    2    -71.07     28.94
    5    1    2    -15.82    -35.52
    9    1    2     20.45      7.34
   11    1    2     10.15      0.54
   13    1    2      4.26     -1.84
   15    1    2      4.47    -10.91
   17    1    2     -2.10      8.69
   19    1    2      0.53     -1.13
   21    1    2     -1.00     -1.88
   23    1    2      1.58     -2.17
   25    1    2      1.87     -3.35
   27    1    2      1.35      3.84
   29    1    2     -2.34     -0.08
   31    1    2      1.76     -0.87
   33    1    2      0.72      4.25
   35    1    2      1.43     -0.99
   37    1    2      0.00     -2.10
   39    1    2      0.50     -2.12
  -40    0    2     -3.40      0.13
  -38    0    2      5.15      2.14
  -36    0    2     -2.82     -1.83
  -34    0    2     -6.62     -2.50
  -32    0    2      2.02     -1.07
  -30    0    2     -1.20     -0.14
  -28    0    2      3.62      2.51
  -26    0    2      0.81     -0.45
  -24    0    2     -5.37      0.34
  -22    0    2      3.14      0.35
  -20    0    2      2.35     -0.35
  -18    0    2      0.24      0.50
  -16    0    2    -10.52      0.36
  -14    0    2    -10.21     -0.70
  -12    0    2    -24.50      0.65
  -10    0    2     39.44     -0.50
   -8    0    2    -37.76     -0.26
   -6    0    2     71.01     -0.56
   -4    0    2   -119.51     -0.14
   -2    0    2    341.31      0.18
    2    0    2     -6.62      0.16
    4    0    2   -118.97      1.66
    6    0    2     49.49     -1.29
    8    0    2    -12.86     -0.36
   10    0    2      7.13      0.78
   12    0    2     23.83     -0.78
   14    0    2     -1.82      0.63
   16    0    2      4.93     -0.31
   18    0    2     -6.39     -0.56
   20    0    2      0.95      0.56
   22    0    2      3.65     -0.15
   24    0    2      2.91      0.01
   26    0    2      1.15      0.52
   28    0    2     -2.30     -0.20
   30    0    2      1.02      1.08
   32    0    2      1.30      0.46
   34    0    2      2.87     -4.49
   36    0    2     -3.18      0.47
   38    0    2      4.94     -0.06
    7    1    2     -6.18     15.23
  -13   17    3     -1.96      0.72
  -11   17    3     -0.72      2.06
   -9   17    3      0.40     -1.29
   -7   17    3      0.05      1.04
   -5   17    3      0.98     -1.82
   -3   17    3     -1.72      0.65
   -1   17    3     -0.59     -0.66
    1   17    3      0.79     -0.08
    3   17    3      2.77     -0.03
    5   17    3     -1.42     -0.04
    7   17    3      0.44      1.99
    9   17    3      0.34      0.77
   11   17    3     -0.67     -1.82
  -18   16    3     -0.35      1.51
  -16   16    3      4.32      0.10
  -14   16    3     -4.24      2.29
  -12   16    3     -1.79     -2.52
  -10   16    3     -1.09      2.35
   -8   16    3     -0.03      0.49
   -6   16    3      2.11     -1.18
   -4   16    3     -1.63     -0.13
   -2   16    3      0.86     -2.62
    0   16    3     -1.47      1.80
    2   16    3      4.71     -3.33
    4   16    3     -3.36      3.75
    6   16    3      3.19     -1.34
    8   16    3     -5.07      0.57
   10   16    3      2.09      1.99
   12   16    3     -0.73     -3.37
   14   16    3      2.10      0.76
   16   16    3     -0.13     -0.29
  -21   15    3      0.75     -1.11
  -19   15    3      3.80      1.44
  -17   15    3      0.60      0.38
  -15   15    3     -0.64      4.21
  -13   15    3     -1.93     -3.82
  -11   15    3      0.26     -0.11
   -9   15    3     -3.81      1.12
   -7   15    3      0.11     -0.45
   -5   15    3      3.89      0.46
   -3   15    3     -2.59     -0.49
   -1   15    3      0.80     -2.83
    1   15    3      2.00      0.31
    3   15    3      1.57     -0.29
    5   15    3     -3.55      0.02
    7   15    3      1.79      3.78
    9   15    3     -3.26     -3.50
   11   15    3     -0.27      3.02
   13   15    3      0.48     -1.95
   15   15    3      2.59      2.62
   17   15    3     -0.49     -3.40
   19   15    3      0.32      0.96
   21   15    3     -0.18     -0.17
  -24   14    3      2.00     -0.82
  -22   14    3     -0.72     -2.18
  -20   14    3      1.87      2.56
  -18   14    3      0.72      0.04
  -16   14    3     -1.66      2.48
  -14   14    3      1.21     -0.42
  -12   14    3     -1.30     -1.86
  -10   14    3      0.94      0.47
   -8   14    3     -1.82     -3.19
   -6   14    3     -0.60      4.11
   -4   14    3      2.17     -0.38
   -2   14    3     -2.41     -1.08
    0   14    3      2.75     -4.14
    2   14    3      1.89      2.60
    4   14    3     -1.49     -1.22
    6   14    3     -2.75      2.49
    8   14    3      1.00      2.52
   10   14    3     -1.95     -0.12
   12   14    3      0.13     -1.83
   14   14    3     -0.38      2.19
   16   14    3      1.08      0.92
   18   14    3      2.26     -3.08
   20   14    3     -2.02      0.28
   22   14    3      1.05     -1.31
   24   14    3      0.65      0.74
  -27   13    3      0.10      0.65
  -25   13    3      3.19     -1.99
  -23   13    3      2.48      0.86
  -21   13    3     -1.72     -1.50
  -19   13    3     -0.52      0.29
  -17   13    3     -1.11      1.79
  -15   13    3     -2.31     -0.95
  -13   13    3      2.29      0.45
  -11   13    3      1.56     -1.44
   -9   13    3     -0.65      1.37
   -7   13    3      1.29     -1.22
   -5   13    3     -1.40      1.62
   -3   13    3     -1.37     -1.48
   -1   13    3      1.02     -0.15
    1   13    3      2.77     -3.21
    3   13    3     -2.13      2.90
    5   13    3     -0.71      0.50
    7   13    3     -2.37      1.16
    9   13    3      0.98      4.92
   11   13    3     -2.13     -2.56
   13   13    3      4.05     -0.51
   15   13    3     -4.37      0.94
   17   13    3      0.67     -0.06
   19   13    3      2.55     -2.76
   21   13    3     -0.77     -0.19
   23   13    3      1.97     -0.55
   25   13    3     -0.40      0.97
  -30   12    3      0.85     -0.10
  -28   12    3     -3.21     -4.02
  -26   12    3      4.24      2.10
  -24   12    3      0.85      2.93
  -22   12    3      3.72     -2.95
  -20   12    3     -4.26     -1.07
  -18   12    3     -0.70      0.15
  -16   12    3     -2.84     -0.35
  -14   12    3     -1.00     -0.57
  -12   12    3      5.59      1.82
  -10   12    3     -4.39      0.75
   -8   12    3      2.73     -0.19
   -6   12    3      1.45      1.27
   -4   12    3     -1.84     -0.88
   -2   12    3     -1.13     -3.85
    0   12    3      1.93      2.44
    2   12    3     -0.16     -0.71
    4   12    3     -0.71      1.44
    6   12    3     -3.94      0.64
    8   12    3      2.70      1.65
   10   12    3     -3.70     -2.44
   12   12    3      5.20      4.26
   14   12    3     -1.65     -2.00
   16   12    3     -3.29     -0.75
   18   12    3      2.85     -1.43
   20   12    3     -1.37      0.13
   22   12    3      3.63     -0.20
   24   12    3     -1.82      0.71
   26   12    3      3.25     -0.45
   28   12    3     -1.73      1.59
  -31   11    3      0.80      1.34
  -29   11    3      1.02     -2.20
  -27   11    3      0.55     -2.85
  -25   11    3     -0.09      3.46
  -23   11    3      1.36      1.73
  -21   11    3      3.67     -1.30
  -19   11    3     -1.83     -4.85
  -17   11    3     -5.71      2.96
  -15   11    3      2.76     -3.18
  -13   11    3     -2.67      6.30
  -11   11    3      2.08     -1.36
   -9   11    3     -1.10     -1.59
   -7   11    3     -3.47      4.16
   -5   11    3      4.02     -3.37
   -3   11    3     -2.11      1.28
   -1   11    3      1.48     -3.97
    1   11    3      2.97      5.00
    3   11    3     -4.50     -1.28
    5   11    3      0.30     -0.57
    7   11    3     -1.72     -1.70
    9   11    3      3.56     -1.95
   11   11    3     -0.07      1.96
   13   11    3     -3.95      1.71
   15   11    3      5.19     -1.42
   17   11    3     -4.38      0.02
   19   11    3      2.33      0.34
   21   11    3     -0.88     -0.21
   23   11    3      1.82      1.54
   25   11    3      0.14      0.20
   27   11    3     -0.37      1.32
   29   11    3     -0.55     -0.87
   31   11    3     -0.02     -1.88
  -32   10    3      1.39      3.05
  -30   10    3     -2.86     -1.57
  -28   10    3      4.66     -1.41
  -26   10    3     -1.32      2.40
  -24   10    3      0.54     -5.85
  -22   10    3      1.05     10.59
  -20   10    3      3.64     -7.43
  -18   10    3     -0.06      1.87
  -16   10    3     -1.98     -2.24
  -14   10    3     -2.48      2.76
  -12   10    3     -2.50      2.83
  -10   10    3      3.10     -1.34
   -8   10    3     -6.41     -1.02
   -6   10    3      1.50     -4.06
   -4   10    3     -1.76      5.47
   -2   10    3      0.81     -2.59
    0   10    3      2.26      3.83
    2   10    3      3.93     -1.24
    4   10    3     -5.42     -3.05
    6   10    3      4.46     -3.82
    8   10    3     -0.68      3.48
   10   10    3     -0.53     -4.32
   12   10    3     -1.37      0.87
   14   10    3      1.41     -0.46
   16   10    3      1.29      4.39
   18   10    3     -2.18     -0.44
   20   10    3      0.60     -0.23
   22   10    3     -0.57      4.02
   24   10    3      0.10     -1.63
   26   10    3      1.36     -0.42
   28   10    3     -2.66      0.55
   30   10    3      2.70     -0.96
   32   10    3     -0.58      1.10
  -35    9    3      2.13     -0.31
  -33    9    3     -2.30     -0.05
  -31    9    3      1.23     -1.06
  -29    9    3     -3.89     -0.85
  -27    9    3      2.54      1.40
  -25    9    3      2.97     -0.34
  -23    9    3      0.09      1.03
  -21    9    3     -0.16      0.65
  -19    9    3      4.09      2.54
  -17    9    3      1.62      1.61
  -15    9    3     -2.91      0.33
  -13    9    3      0.34     -4.19
  -11    9    3     -6.35      0.90
   -9    9    3      0.38      0.43
   -7    9    3      1.46     -3.94
   -5    9    3     -1.71      2.11
   -3    9    3     -6.63     -1.11
   -1    9    3      2.32      1.65
    1    9    3      5.58      2.79
    3    9    3      4.09     -3.24
    5    9    3     -2.16     -2.54
    7    9    3      2.32      1.59
    9    9    3     -6.50     -3.51
   11    9    3      3.74      0.54
   13    9    3      1.29     -3.30
   15    9    3     -2.37      7.54
   17    9    3      2.44     -3.65
   19    9    3     -1.61      6.28
   21    9    3     -2.40     -1.27
   23    9    3     -0.88      0.90
   25    9    3      2.11     -0.65
   27    9    3      3.41     -2.71
   29    9    3     -2.63      0.62
   31    9    3     -0.32      2.58
   33    9    3      0.73     -0.66
  -36    8    3     -1.13     -3.43
  -34    8    3      2.39      2.53
  -32    8    3     -3.41     -2.97
  -30    8    3      0.00     -1.50
  -28    8    3     -1.63     -2.39
  -26    8    3      1.25      2.68
  -24    8    3      0.53      4.04
  -22    8    3      3.40     -0.78
  -20    8    3      0.89     -0.37
  -18    8    3      1.21      8.53
  -16    8    3     -5.77     -3.38
  -14    8    3      5.93      4.07
  -12    8    3      1.80    -11.03
  -10    8    3     -4.57      1.60
   -8    8    3     -1.23     -3.53
   -6    8    3      1.31      9.23
   -4    8    3     -2.87    -11.82
   -2    8    3     -3.88      2.46
    0    8    3      3.44      2.68
    2    8    3      5.74      5.49
    4    8    3     -2.95     -3.70
    6    8    3      0.96     -0.54
    8    8    3     -1.94     -3.16
   10    8    3      0.68      3.46
   12    8    3     -1.52     -4.60
   14    8    3      1.79      5.75
   16    8    3      1.27     -3.86
   18    8    3     -2.43      5.72
   20    8    3     -1.38     -0.66
   22    8    3     -1.39     -1.38
   24    8    3      0.73     -1.59
   26    8    3      5.46      2.70
   28    8    3      0.66     -1.72
   30    8    3     -1.66     -0.37
   32    8    3     -3.24      1.39
   34    8    3      1.34      0.95
  -37    7    3     -1.43     -2.85
  -35    7    3      2.16      2.23
  -33    7    3     -2.36     -1.60
  -31    7    3     -2.20     -1.36
  -29    7    3      4.15     -3.45
  -27    7    3     -2.74     -0.14
  -25    7    3     -1.44      0.48
  -23    7    3     -0.74      4.09
  -21    7    3      4.74      3.60
  -19    7    3     -0.35      1.23
  -17    7    3     -4.05     -2.50
  -15    7    3     -1.33      0.48
  -13    7    3      4.56      1.98
  -11    7    3      3.80     -0.34
   -9    7    3      5.29     -4.16
   -7    7    3    -12.30     -6.52
   -5    7    3     10.48      6.63
   -3    7    3     -6.01     -8.09
   -1    7    3     -0.60      0.80
    1    7    3      0.34     17.88
    3    7    3     -1.11     -9.70
    5    7    3     -2.32      0.50
    7    7    3      1.34     -1.78
    9    7    3      1.53      1.27
   11    7    3     -5.33     -2.21
   13    7    3      5.39      1.41
   15    7    3     -0.66      3.52
   17    7    3     -3.15     -2.45
   19    7    3      0.68     -0.56
   21    7    3      0.19     -3.35
   23    7    3      0.96      2.57
   25    7    3      4.74     -0.13
   27    7    3     -4.09      3.60
   29    7    3      4.63     -2.27
   31    7    3     -3.44     -1.00
   33    7    3     -2.20      0.92
   35    7    3      1.71      0.05
  -38    6    3      1.92     -3.67
  -36    6    3     -0.80      2.41
  -34    6    3      0.21     -0.02
  -32    6    3     -0.87     -2.33
  -30    6    3      2.25      1.00
  -28    6    3      0.62     -3.80
  -26    6    3     -2.22     -1.05
  -24    6    3      0.00     -0.01
  -22    6    3     -4.79      3.56
  -20    6    3      1.64      2.54
  -18    6    3      2.45     -2.72
  -16    6    3     -4.02      1.00
  -14    6    3      1.54     -6.20
  -12    6    3      1.89     13.09
  -10    6    3     -4.72     -3.34
   -8    6    3     19.92     -2.88
   -6    6    3    -10.15     -8.36
   -4    6    3      4.17      2.23
   -2    6    3     -2.60     -1.99
    0    6    3     -9.11     13.36
    2    6    3      2.76      5.25
    4    6    3     -1.11     -6.53
    6    6    3     -2.84     -6.64
    8    6    3      3.01      3.56
   10    6    3     -2.62     -6.17
   12    6    3      7.30      3.20
   14    6    3     -7.48      6.39
   16    6    3      1.93     -4.03
   18    6    3      0.32     -3.58
   20    6    3      1.60     -2.01
   22    6    3      2.86      0.58
   24    6    3     -1.02      4.58
   26    6    3     -1.11      0.72
   28    6    3      0.49      0.62
   30    6    3     -0.96     -1.45
   32    6    3     -2.20      0.57
   34    6    3      2.92     -2.81
   36    6    3     -1.42      3.35
  -39    5    3     -0.85      0.38
  -37    5    3      3.51     -1.92
  -35    5    3     -3.57      2.71
  -33    5    3      4.73     -1.63
  -31    5    3      0.17      2.65
  -29    5    3     -0.09     -3.23
  -27    5    3      0.94     -3.56
  -25    5    3     -2.09      3.57
  -23    5    3     -1.55     -6.48
  -21    5    3     -1.28      1.64
  -19    5    3      2.36      0.67
  -17    5    3     -6.34      0.43
  -15    5    3      5.73      2.19
  -13    5    3     -3.63      2.72
  -11    5    3      6.16     -4.20
   -9    5    3    -11.26     -0.78
   -7    5    3     19.91      9.58
   -5    5    3      0.55    -13.43
   -3    5    3     -8.00      0.19
   -1    5    3     -3.86     14.38
    1    5    3     -9.80     -0.80
    3    5    3      3.49     11.08
    5    5    3      6.65    -19.69
    7    5    3     -6.26      0.06
    9    5    3      6.38     -4.43
   11    5    3      0.31      6.30
   13    5    3     -0.06     -4.05
   15    5    3     -1.84      5.99
   17    5    3      3.38     -4.25
   19    5    3     -0.69      0.98
   21    5    3      1.07     -6.58
   23    5    3      1.52      6.12
   25    5    3     -5.54      2.37
   27    5    3      3.09      1.42
   29    5    3     -5.99      1.66
   31    5    3      2.02     -5.84
   33    5    3      0.21      1.67
   35    5    3      2.52      1.99
   37    5    3      0.43     -1.43
  -38    4    3      0.71      4.25
  -36    4    3      0.06     -6.56
  -34    4    3     -0.43      7.10
  -32    4    3      5.82     -1.26
  -30    4    3     -1.90     -1.31
  -28    4    3     -0.03     -1.83
  -26    4    3     -0.95     -0.38
  -24    4    3     -0.55     -2.14
  -22    4    3      3.97     -2.15
  -20    4    3      1.26     -4.03
  -18    4    3     -6.29      9.62
  -16    4    3     -3.99     -6.73
  -14    4    3     -0.04     11.56
  -12    4    3      5.61      1.40
  -10    4    3     10.06    -18.71
   -8    4    3    -17.37      4.16
   -6    4    3     14.48      6.54
   -4    4    3      8.14      7.14
   -2    4    3    -18.84     -3.03
    0    4    3    -11.93     -3.98
    2    4    3      0.75     21.84
    4    4    3      0.96    -28.30
    6    4    3     21.33     15.52
    8    4    3    -12.64    -17.00
   10    4    3      5.25      8.50
   12    4    3      1.33     -5.64
   14    4    3      6.84      4.32
   16    4    3     -3.41      4.81
   18    4    3     -5.61     -5.34
   20    4    3      5.22     -0.58
   22    4    3     -0.45     -2.26
   24    4    3     -3.03      2.94
   26    4    3     -2.86      3.92
   28    4    3     -3.84      1.68
   30    4    3      2.83     -4.18
   32    4    3      1.22     -0.09
   34    4    3      0.48      2.78
   36    4    3      0.40      0.31
   38    4    3     -0.53     -2.14
  -39    3    3     -0.80     -0.08
  -37    3    3     -3.78     -0.86
  -35    3    3      2.62     -2.74
  -33    3    3     -0.03      5.07
  -31    3    3      1.14     -0.68
  -29    3    3      2.21     -4.87
  -27    3    3     -2.26      2.61
  -25    3    3     -1.19     -4.35
  -23    3    3      6.53      2.74
  -21    3    3      6.40     -2.12
  -19    3    3    -12.45      3.20
  -17    3    3      1.50      1.63
  -15    3    3     -8.07     -0.53
  -13    3    3      5.95      5.03
  -11    3    3     -6.76      0.18
   -9    3    3     24.91    -14.09
   -7    3    3     -3.96     -9.21
   -5    3    3      9.51     22.40
   -3    3    3    -17.84     14.16
   -1    3    3     -8.30    -28.58
    1    3    3    -22.86     10.28
    3    3    3      8.87     -5.14
    5    3    3     10.40     11.42
    7    3    3      5.87     -2.96
    9    3    3      1.32     -2.03
   11    3    3      6.40    -11.03
   13    3    3      2.00     13.81
   15    3    3     -1.01      1.87
   17    3    3     -1.37    -11.01
   19    3    3     -2.02      5.54
   21    3    3      1.08     -1.79
   23    3    3     -2.01     -0.93
   25    3    3     -0.43     -0.56
   27    3    3     -7.24      1.89
   29    3    3      4.96      2.42
   31    3    3     -0.37     -0.41
   33    3    3      3.98      2.19
   35    3    3     -4.17     -1.77
   37    3    3     -0.50     -1.51
  -40    2    3      1.19      0.35
  -38    2    3     -6.40     -3.35
  -36    2    3      2.31     -2.54
  -34    2    3     -2.48      2.63
  -32    2    3     -1.40     -1.78
  -30    2    3      3.26     -1.76
  -28    2    3      1.80      1.42
  -26    2    3     -1.60     -1.61
  -24    2    3      5.96      0.71
  -22    2    3     -0.18      4.59
  -20    2    3      1.04      0.46
  -18    2    3    -13.94     -4.86
  -16    2    3      8.31     12.33
  -14    2    3     -5.87     -2.78
  -12    2    3     -6.60     -7.11
  -10    2    3      0.95    -10.26
   -8    2    3     29.73      7.46
   -6    2    3     30.93     14.71
   -4    2    3    -13.40     -2.77
   -2    2    3    -41.71    -27.00
    0    2    3      9.57      5.23
    2    2    3    -30.81     11.52
    4    2    3     -4.76      0.23
    6    2    3      4.82     11.65
    8    2    3     28.61     -5.49
   10    2    3      0.20     -1.69
   12    2    3      7.42      1.67
   14    2    3    -13.22     -4.72
   16    2    3     11.52      2.65
   18    2    3     -2.15      0.14
   20    2    3     -4.86     -2.88
   22    2    3      0.75      0.52
   24    2    3     -0.79     -3.20
   26    2    3      3.67      0.30
   28    2    3     -6.15      2.31
   30    2    3      2.78      2.62
   32    2    3      1.58      2.36
   34    2    3      1.55     -2.03
   36    2    3     -3.89     -2.28
   38    2    3      1.22     -3.88
  -39    1    3      0.60     -4.76
  -37    1    3     -0.48     -1.29
  -35    1    3     -7.09      0.78
  -33    1    3      0.88     -3.66
  -31    1    3      0.50     -0.13
  -29    1    3      5.65      1.00
  -27    1    3     -3.41     -1.17
  -25    1    3      5.40      6.63
  -23    1    3     -1.51     -2.17
  -21    1    3     -1.89      0.80
  -19    1    3      0.33     -3.30
  -17    1    3     -8.09      7.60
  -15    1    3     -2.72      2.60
  -13    1    3     -8.52      5.04
  -11    1    3     16.62    -36.47
   -9    1    3     -2.54     20.52
   -7    1    3     41.28     -7.88
   -5    1    3    -13.87     98.74
   -3    1    3     66.31   -178.48
   -1    1    3    -69.40    100.79
    1    1    3    -29.27    -24.59
    3    1    3    -54.54     36.05
    5    1    3     24.07    -35.50
    7    1    3     17.40     19.76
   11    1    3     11.54    -14.47
   13    1    3     -6.13     -1.62
   15    1    3      2.40     -0.81
   17    1    3     -2.13      7.97
   19    1    3      0.18     -5.21
   21    1    3      0.26     -1.92
   23    1    3      3.19     -0.97
   25    1    3     -1.22     -1.13
   27    1    3      1.99      4.88
   29    1    3     -5.10     -2.95
   31    1    3      7.30      2.98
   33    1    3     -4.05     -1.16
   35    1    3      2.54      1.66
   37    1    3     -2.06     -5.86
   39    1    3     -0.89      0.06
  -40    0    3      0.92      1.71
  -38    0    3     -1.27     -1.75
  -36    0    3     -1.11      0.40
  -34    0    3     -8.79     -4.04
  -32    0    3      6.38      1.75
  -30    0    3      1.59      1.03
  -28    0    3      1.74      1.30
  -26    0    3     -1.29      0.01
  -24    0    3     -0.18      0.03
  -22    0    3      1.30     -0.29
  -20    0    3     -0.46      0.35
  -18    0    3     -1.54      0.19
  -16    0    3    -14.94     -0.41
  -14    0    3     -4.68      0.24
  -12    0    3      3.82     -0.62
  -10    0    3     29.03      0.19
   -8    0    3      7.94     -0.61
   -6    0    3    -24.40     -0.20
   -4    0    3     60.66      0.21
   -2    0    3     76.10      0.54
    0    0    3   -129.38     -0.19
    2    0    3    -86.39      1.69
    4    0    3     44.78     -0.64
    6    0    3     -4.74     -0.50
    8    0    3     23.86      0.06
   10    0    3     16.11     -0.16
   12    0    3      4.13      0.06
   14    0    3      4.65     -0.22
   16    0    3    -13.69     -0.31
   18    0    3      6.32      0.04
   20    0    3     -0.07      0.06
   22    0    3      2.80      0.11
   24    0    3      5.60      0.39
   26    0    3     -6.84     -0.89
   28    0    3      0.57      1.20
   30    0    3      4.85     -0.56
   32    0    3     -2.27     -0.24
   34    0    3      1.62     -3.02
   36    0    3     -1.65      1.43
   38    0    3      0.05      1.55
    9    1    3     16.25      9.71
  -13   17    4     -1.15     -0.11
  -11   17    4      0.40      1.93
   -9   17    4     -0.49     -1.56
   -7   17    4      1.65     -0.81
   -5   17    4      0.54      0.03
   -3   17    4     -2.29     -1.93
   -1   17    4      1.51      2.81
    1   17    4      0.65     -2.43
    3   17    4      0.79      3.06
    5   17    4     -0.09     -2.53
    7   17    4     -1.02      3.83
    9   17    4      1.53     -1.77
   11   17    4     -2.70     -1.68
  -18   16    4      0.16      1.54
  -16   16    4      1.55      1.04
  -14   16    4     -5.35     -0.85
  -12   16    4     -0.66     -0.30
  -10   16    4      0.86      0.74
   -8   16    4      0.30     -0.26
   -6   16    4      2.34     -2.10
   -4   16    4     -0.53     -0.78
   -2   16    4     -0.74     -0.19
    0   16    4      1.35      0.08
    2   16    4      0.42      1.15
    4   16    4     -1.59      0.32
    6   16    4      0.87      0.90
    8   16    4     -3.28      0.05
   10   16    4      1.44      0.09
   12   16    4      0.45     -1.65
   14   16    4      2.52      0.20
   16   16    4     -1.79     -0.12
  -21   15    4      5.82      0.42
  -19   15    4     -2.09      0.22
  -17   15    4      2.85      3.95
  -15   15    4     -4.44     -1.18
  -13   15    4      0.14     -1.70
  -11   15    4     -0.11     -0.66
   -9   15    4     -3.87      0.34
   -7   15    4      5.70     -0.18
   -5   15    4     -0.38     -1.43
   -3   15    4      1.77     -0.10
   -1   15    4     -4.17     -1.58
    1   15    4      5.78      1.33
    3   15    4     -5.62     -0.55
    5   15    4      0.49      3.87
    7   15    4     -0.29     -2.09
    9   15    4     -2.38      1.36
   11   15    4      0.28     -2.00
   13   15    4      3.39      1.64
   15   15    4      1.06     -0.32
   17   15    4      0.46     -2.15
   19   15    4     -0.62      1.58
  -24   14    4      0.28     -0.49
  -22   14    4      0.45     -0.74
  -20   14    4      0.45      2.42
  -18   14    4      1.03      1.19
  -16   14    4     -3.25      2.11
  -14   14    4      1.75     -1.88
  -12   14    4     -0.44      0.09
  -10   14    4     -0.63     -1.66
   -8   14    4      0.19     -1.15
   -6   14    4      1.46      3.40
   -4   14    4     -0.07     -1.37
   -2   14    4      0.23     -2.75
    0   14    4     -0.03     -0.99
    2   14    4      0.00      2.60
    4   14    4     -1.71     -0.38
    6   14    4     -3.84      4.12
    8   14    4      4.45     -0.97
   10   14    4     -3.94     -1.24
   12   14    4      2.48     -1.97
   14   14    4      0.78      3.38
   16   14    4      1.73     -1.10
   18   14    4      0.51     -2.44
   20   14    4     -1.45      1.52
   22   14    4      0.97     -1.20
   24   14    4      0.01      0.45
  -27   13    4      3.19     -1.88
  -25   13    4      1.96      0.38
  -23   13    4     -0.53     -2.41
  -21   13    4     -2.16      0.77
  -19   13    4     -0.77      1.62
  -17   13    4     -1.94      0.63
  -15   13    4     -0.53      2.19
  -13   13    4      3.21     -3.94
  -11   13    4     -0.81      4.72
   -9   13    4      1.11     -3.13
   -7   13    4     -0.11      0.68
   -5   13    4     -0.29      1.73
   -3   13    4     -2.52     -3.60
   -1   13    4      3.81     -0.19
    1   13    4     -1.11     -0.09
    3   13    4     -1.70      1.35
    5   13    4     -1.20      2.46
    7   13    4      0.78      1.11
    9   13    4     -1.03      0.91
   11   13    4      3.49     -3.23
   13   13    4     -1.95     -0.26
   15   13    4     -1.05      1.76
   17   13    4      2.31     -2.75
   19   13    4     -0.90     -0.19
   21   13    4      2.80     -0.74
   23   13    4     -1.54      1.67
   25   13    4      0.90     -1.63
  -30   12    4     -0.68     -1.77
  -28   12    4     -0.37     -0.67
  -26   12    4      4.08      2.57
  -24   12    4      0.92      0.12
  -22   12    4     -1.33     -3.85
  -20   12    4     -3.61      0.34
  -18   12    4     -3.30      2.01
  -16   12    4     -0.48     -2.01
  -14   12    4      2.03      3.11
  -12   12    4      1.91      0.37
  -10   12    4     -3.20     -1.05
   -8   12    4      2.80      2.90
   -6   12    4      0.01     -2.68
   -4   12    4     -1.59      0.41
   -2   12    4     -0.89     -3.55
    0   12    4      3.84      2.86
    2   12    4     -2.11      0.65
    4   12    4     -1.13      0.39
    6   12    4      1.02      1.94
    8   12    4     -0.73     -0.28
   10   12    4      2.38     -1.54
   12   12    4      0.34      2.81
   14   12    4     -3.03     -2.96
   16   12    4     -0.17     -1.15
   18   12    4      1.80     -0.22
   20   12    4      0.26     -0.99
   22   12    4      1.31      2.07
   24   12    4     -0.08     -0.81
   26   12    4      0.72     -0.06
   28   12    4     -1.90      0.88
  -31   11    4     -1.59      2.32
  -29   11    4      2.29     -5.68
  -27   11    4     -0.05      4.43
  -25   11    4     -2.26      0.05
  -23   11    4      6.99      2.87
  -21   11    4     -5.98     -6.50
  -19   11    4     -0.20      0.76
  -17   11    4     -6.08     -0.68
  -15   11    4      3.03      2.39
  -13   11    4     -0.95      3.65
  -11   11    4      0.56     -5.46
   -9   11    4     -1.37      2.59
   -7   11    4     -1.43     -1.47
   -5   11    4      2.54      1.17
   -3   11    4     -0.12     -3.18
   -1   11    4      1.88      3.36
    1   11    4      1.73     -0.57
    3   11    4     -3.67      3.21
    5   11    4     -0.26     -5.52
    7   11    4      3.37      3.55
    9   11    4      0.22     -3.05
   11   11    4     -1.29      3.86
   13   11    4     -0.80     -0.93
   15   11    4     -0.82     -1.63
   17   11    4      1.78      1.80
   19   11    4     -1.70     -2.88
   21   11    4      3.97      2.54
   23   11    4     -2.66     -0.70
   25   11    4      2.56      1.16
   27   11    4     -2.36     -0.01
   29   11    4     -0.28     -2.09
  -32   10    4     -0.18      0.54
  -30   10    4     -1.05     -0.19
  -28   10    4      2.88     -1.00
  -26   10    4     -2.34      0.89
  -24   10    4      1.29      1.87
  -22   10    4      0.65      2.00
  -20   10    4      3.45     -3.23
  -18   10    4     -5.36     -2.33
  -16   10    4      0.82      2.56
  -14   10    4     -6.86     -0.67
  -12   10    4      1.83      2.60
  -10   10    4      2.73     -3.48
   -8   10    4     -6.94     -4.67
   -6   10    4      6.46      2.83
   -4   10    4     -4.57      1.26
   -2   10    4      4.83      0.89
    0   10    4      2.14      3.67
    2   10    4     -0.45     -4.42
    4   10    4     -2.53     -1.66
    6   10    4      2.58     -1.19
    8   10    4     -1.20      3.46
   10   10    4     -0.09     -2.08
   12   10    4     -1.68     -2.56
   14   10    4      4.11      8.40
   16   10    4     -4.49     -5.06
   18   10    4      2.99      4.66
   20   10    4     -0.68     -2.15
   22   10    4      0.62      1.88
   24   10    4      1.04     -1.43
   26   10    4     -1.37     -1.02
   28   10    4     -0.53      1.07
   30   10    4      0.57     -1.13
   32   10    4     -0.62      0.34
  -35    9    4      3.61     -0.53
  -33    9    4     -3.45      1.61
  -31    9    4      0.12     -2.57
  -29    9    4     -0.59      1.64
  -27    9    4      0.16      0.58
  -25    9    4      5.37      0.70
  -23    9    4     -4.61      2.28
  -21    9    4      3.66     -0.08
  -19    9    4      2.94      2.29
  -17    9    4     -3.79      1.12
  -15    9    4      1.15     -4.88
  -13    9    4     -8.59     -4.09
  -11    9    4      2.00      3.90
   -9    9    4     -1.17     -4.49
   -7    9    4      7.52      1.60
   -5    9    4     -9.54      0.16
   -3    9    4      2.90      0.64
   -1    9    4      0.52      2.48
    1    9    4      6.84     -0.03
    3    9    4     -1.33     -4.76
    5    9    4     -1.31     -0.23
    7    9    4     -4.71      1.70
    9    9    4      2.19     -2.83
   11    9    4      0.25      0.81
   13    9    4      3.40      2.37
   15    9    4     -3.74      2.76
   17    9    4      1.88      0.54
   19    9    4     -0.03      2.40
   21    9    4     -2.81     -0.38
   23    9    4      2.18     -1.01
   25    9    4      3.59     -1.47
   27    9    4     -2.85     -1.83
   29    9    4     -0.11      1.32
   31    9    4     -3.08      0.81
   33    9    4      3.39     -1.45
  -36    8    4      1.53      0.45
  -34    8    4     -1.11     -1.31
  -32    8    4     -1.15      1.05
  -30    8    4     -1.45     -5.41
  -28    8    4      1.39      2.42
  -26    8    4      0.78      4.32
  -24    8    4      1.70      1.48
  -22    8    4      2.59     -0.81
  -20    8    4      0.17      3.28
  -18    8    4     -2.83      3.89
  -16    8    4     -1.71     -2.83
  -14    8    4      4.50     -3.92
  -12    8    4     -1.66     -7.97
  -10    8    4     -3.67      1.27
   -8    8    4     -0.06      8.24
   -6    8    4      3.74     -3.33
   -4    8    4     -6.92     -2.38
   -2    8    4      0.04     -0.33
    0    8    4      8.55      6.54
    2    8    4     -2.20     -3.12
    4    8    4      0.73     -3.23
    6    8    4     -4.64     -0.31
    8    8    4      1.83     -3.17
   10    8    4     -1.06      7.34
   12    8    4      3.00     -4.93
   14    8    4     -2.06      4.76
   16    8    4      2.71     -0.64
   18    8    4     -3.62      3.94
   20    8    4     -0.28     -1.77
   22    8    4      0.62      0.35
   24    8    4      1.72     -3.19
   26    8    4      3.88      3.46
   28    8    4     -1.89     -4.20
   30    8    4     -3.52      0.30
   32    8    4     -0.49      2.02
   34    8    4      1.57     -1.24
  -37    7    4      1.63     -1.04
  -35    7    4     -1.77      2.18
  -33    7    4     -2.03     -1.88
  -31    7    4      1.15     -3.08
  -29    7    4      2.53     -1.83
  -27    7    4     -2.11      2.38
  -25    7    4     -0.76      1.44
  -23    7    4      2.24      6.37
  -21    7    4      3.95     -1.00
  -19    7    4     -6.03      2.59
  -17    7    4      0.26     -5.28
  -15    7    4     -5.05      2.02
  -13    7    4     14.09     -1.84
  -11    7    4     -4.90     -0.60
   -9    7    4      2.17     -6.68
   -7    7    4    -10.85      7.78
   -5    7    4     10.04     -3.34
   -3    7    4    -10.06     -2.13
   -1    7    4      4.02      7.64
    1    7    4      2.07      6.39
    3    7    4     -0.71    -11.19
    5    7    4     -0.32     -1.32
    7    7    4      3.82     -0.45
    9    7    4     -7.18      4.27
   11    7    4      5.68     -3.26
   13    7    4     -3.07      5.11
   15    7    4      2.60     -2.81
   17    7    4     -4.03     -0.02
   19    7    4      1.21     -0.39
   21    7    4      0.55     -0.19
   23    7    4      1.55      0.80
   25    7    4      1.31      1.92
   27    7    4     -0.65     -1.11
   29    7    4      0.35     -1.38
   31    7    4     -1.30     -0.10
   33    7    4     -2.26     -0.68
   35    7    4      3.12      2.19
  -38    6    4      1.34     -3.82
  -36    6    4     -1.06      4.79
  -34    6    4     -2.61     -3.89
  -32    6    4      2.49     -0.42
  -30    6    4      1.61     -1.14
  -28    6    4     -0.65     -2.30
  -26    6    4      0.93      1.16
  -24    6    4     -5.12      2.19
  -22    6    4      2.14      4.70
  -20    6    4     -0.15     -2.06
  -18    6    4     -0.92      0.81
  -16    6    4     -1.62     -6.07
  -14    6    4      3.58      4.49
  -12    6    4     -0.75     -0.76
  -10    6    4      3.37      6.43
   -8    6    4      6.31    -17.44
   -6    6    4     -9.97      9.61
   -4    6    4     -1.10     -3.14
   -2    6    4      2.35      3.75
    0    6    4    -14.37     15.86
    2    6    4     17.39     -5.32
    4    6    4     -6.01    -12.01
    6    6    4      5.43      2.34
    8    6    4     -3.94     -2.05
   10    6    4      3.40      0.58
   12    6    4     -3.47      3.70
   14    6    4     -0.37      2.84
   16    6    4     -0.21    -11.20
   18    6    4      1.72      4.19
   20    6    4     -0.14     -3.47
   22    6    4      0.67      3.80
   24    6    4     -0.25      5.53
   26    6    4     -2.21     -4.51
   28    6    4      2.89      3.68
   30    6    4     -3.10     -3.88
   32    6    4      2.15      0.70
   34    6    4      0.62      0.20
   36    6    4     -0.37     -0.81
  -39    5    4      4.59      0.42
  -37    5    4     -4.43     -1.51
  -35    5    4      4.30      2.71
  -33    5    4     -0.52     -3.88
  -31    5    4      0.33      1.46
  -29    5    4      1.07     -2.97
  -27    5    4     -1.21      0.27
  -25    5    4     -1.59      0.79
  -23    5    4     -0.85     -1.37
  -21    5    4     -1.33     -0.49
  -19    5    4      1.45      5.10
  -17    5    4     -6.77     -2.99
  -15    5    4     10.65      1.57
  -13    5    4     -1.31      1.59
  -11    5    4     -3.42    -14.45
   -9    5    4      4.50     19.43
   -7    5    4      3.80    -13.56
   -5    5    4      0.77     -0.09
   -3    5    4    -11.19      8.62
   -1    5    4     -9.66      4.05
    1    5    4      6.98      9.51
    3    5    4     -2.29     -7.47
    5    5    4     17.33    -12.22
    7    5    4    -12.93      2.22
    9    5    4      9.61     -0.79
   11    5    4     -2.51      3.76
   13    5    4     -5.46     -1.56
   15    5    4      6.95     -0.26
   17    5    4     -4.50     -2.10
   19    5    4      2.74     -4.92
   21    5    4     -1.24      2.77
   23    5    4     -1.82      4.73
   25    5    4     -1.14      2.69
   27    5    4     -1.22      1.68
   29    5    4      0.40     -4.17
   31    5    4     -0.42     -0.89
   33    5    4      5.15      2.05
   35    5    4     -2.42     -0.90
   37    5    4      2.89     -1.15
  -38    4    4      2.26      2.08
  -36    4    4     -2.73     -1.81
  -34    4    4      7.51      2.68
  -32    4    4     -2.07     -0.99
  -30    4    4      0.44     -4.83
  -28    4    4     -2.59      2.77
  -26    4    4     -2.44     -0.12
  -24    4    4      5.11     -1.77
  -22    4    4     -0.81     -3.66
  -20    4    4     -3.12      7.26
  -18    4    4     -4.07     -3.64
  -16    4    4     -1.30      8.15
  -14    4    4      7.43     -4.47
  -12    4    4     10.48      1.56
  -10    4    4     -5.00    -20.75
   -8    4    4     -9.80     14.63
   -6    4    4     17.74     12.95
   -4    4    4     -3.45     -8.61
   -2    4    4    -31.47      4.23
    0    4    4      8.59      0.09
    2    4    4     -9.52      3.40
    4    4    4     26.22     -8.62
    6    4    4     -4.35     -3.40
    8    4    4      5.88      2.39
   10    4    4     -9.47     -2.53
   12    4    4     15.28      2.68
   14    4    4     -5.71      2.59
   16    4    4     -5.74     -1.86
   18    4    4      1.88     -3.99
   20    4    4      2.11     -3.72
   22    4    4     -2.78      6.45
   24    4    4     -4.11      0.54
   26    4    4     -1.80      7.53
   28    4    4     -0.83     -5.99
   30    4    4      4.65      0.23
   32    4    4      0.54     -1.27
   34    4    4     -0.51      2.65
   36    4    4      1.76     -1.47
   38    4    4     -1.66     -2.87
  -39    3    4     -4.60      2.53
  -37    3    4      3.19     -5.28
  -35    3    4     -0.62      3.49
  -33    3    4      4.05      2.71
  -31    3    4     -0.05     -3.92
  -29    3    4     -0.51     -2.35
  -27    3    4     -4.24      1.71
  -25    3    4      2.72      0.13
  -23    3    4      4.59      0.79
  -21    3    4      1.38     -0.93
  -19    3    4    -17.24      6.20
  -17    3    4     10.04     -4.30
  -15    3    4     -4.47      3.67
  -13    3    4      6.81      0.98
  -11    3    4     10.10     -4.13
   -9    3    4      6.53    -15.81
   -7    3    4     -1.10     14.97
   -5    3    4     -5.75     24.69
   -3    3    4    -18.91    -13.36
   -1    3    4    -10.71    -22.68
    1    3    4    -18.30     13.97
    3    3    4     28.60    -12.41
    5    3    4      4.96     23.97
    7    3    4     10.77    -22.82
    9    3    4     -5.87     11.27
   11    3    4     10.87     -7.74
   13    3    4     -6.16     16.25
   15    3    4     -1.24    -10.78
   17    3    4      0.02     -3.51
   19    3    4     -3.12      2.28
   21    3    4      3.14      0.52
   23    3    4     -5.58     -0.20
   25    3    4     -1.71      0.81
   27    3    4     -3.18      3.90
   29    3    4      6.04     -0.64
   31    3    4      0.65      0.10
   33    3    4     -0.09     -2.20
   35    3    4     -2.31      1.07
   37    3    4      0.12     -4.93
  -40    2    4     -3.30     -1.99
  -38    2    4     -1.50     -4.83
  -36    2    4      1.96      2.94
  -34    2    4     -1.47      0.33
  -32    2    4      0.81     -0.67
  -30    2    4      5.22     -1.01
  -28    2    4     -4.62      1.23
  -26    2    4      5.05     -2.35
  -24    2    4     -2.30      4.35
  -22    2    4      2.92      3.84
  -20    2    4     -9.45     -5.53
  -18    2    4     -1.28      5.89
  -16    2    4      3.00      0.04
  -14    2    4      4.55      2.16
  -12    2    4     -8.73    -17.03
  -10    2    4     22.55     11.33
   -8    2    4     17.16      0.90
   -6    2    4     12.57     29.55
   -4    2    4    -64.16    -31.56
   -2    2    4     10.96     -0.71
    0    2    4    -27.36    -16.87
    2    2    4      2.89     13.38
    4    2    4      9.59      5.37
    6    2    4     23.20      1.32
    8    2    4     12.21      3.94
   10    2    4      0.29     -8.97
   12    2    4    -12.64      8.13
   14    2    4      3.32     -4.26
   16    2    4      7.02      0.56
   18    2    4     -8.71      0.41
   20    2    4      0.42     -2.22
   22    2    4     -0.02     -0.87
   24    2    4     -1.90      1.16
   26    2    4      2.35     -1.73
   28    2    4     -5.89      7.56
   30    2    4      6.48     -4.45
   32    2    4     -1.19      4.25
   34    2    4      0.33     -6.34
   36    2    4     -4.39     -1.43
   38    2    4      1.73     -0.85
  -39    1    4     -2.89     -4.17
  -37    1    4      0.79     -0.04
  -35    1    4     -6.21      2.46
  -33    1    4      4.25     -4.01
  -31    1    4      4.11      1.27
  -29    1    4     -0.04      1.75
  -27    1    4      1.05      0.86
  -25    1    4      2.18      1.87
  -23    1    4     -4.85     -0.49
  -21    1    4     -1.19      0.74
  -19    1    4     -1.97     -5.06
  -17    1    4     -5.51     13.95
  -15    1    4      2.43     -5.79
  -13    1    4      2.49     -5.27
  -11    1    4     15.04    -15.83
   -9    1    4     11.26     14.95
   -7    1    4      5.83     40.77
   -5    1    4     -3.92    -17.69
   -3    1    4     -8.25    -64.23
   -1    1    4    -43.63     41.63
    1    1    4    -31.29     15.19
    3    1    4     20.71    -33.72
    5    1    4     18.45     21.65
    7    1    4     27.19      9.51
    9    1    4      2.93     -8.90
   11    1    4     -4.41     -1.65
   13    1    4     -2.80     -8.50
   15    1    4     -1.94     16.28
   17    1    4      0.32     -7.45
   19    1    4      0.80     -0.73
   21    1    4     -0.61     -0.39
   23    1    4      1.88     -4.71
   25    1    4     -1.56      8.32
   27    1    4     -2.32     -3.46
   29    1    4      2.73      0.62
   31    1    4      0.09      1.27
   33    1    4      0.29     -0.66
   35    1    4     -3.82     -2.56
   37    1    4      0.67     -0.94
   39    1    4     -1.27     -1.11
  -40    0    4      2.77      0.23
  -38    0    4     -3.42     -0.52
  -36    0    4     -5.75     -1.45
  -34    0    4      3.00     -0.37
  -32    0    4      2.34      0.89
  -30    0    4      4.82      2.52
  -28    0    4     -0.20     -0.54
  -26    0    4     -3.29      0.07
  -24    0    4      2.89     -0.26
  -22    0    4     -2.88     -0.32
  -20    0    4     -0.31      0.17
  -18    0    4     -8.93      0.29
  -16    0    4      1.18     -0.94
  -14    0    4    -10.35      0.45
  -12    0    4     37.57     -0.51
  -10    0    4     -5.29     -0.02
   -8    0    4     29.33     -0.21
   -6    0    4    -84.31      0.14
   -4    0    4    141.64      0.47
   -2    0    4   -119.10      0.32
    0    0    4    -27.62      0.54
    2    0    4    -34.09      0.12
    4    0    4     65.70     -0.27
    6    0    4      8.20     -0.96
    8    0    4      0.77      0.55
   10    0    4     24.33     -0.62
   12    0    4    -13.33     -0.19
   14    0    4     -4.26      0.26
   16    0    4     -6.70     -0.65
   18    0    4     10.03      0.66
   20    0    4     -3.72     -0.07
   22    0    4      4.77      0.07
   24    0    4     -0.86     -0.02
   26    0    4     -6.63     -0.20
   28    0    4      4.45     -0.20
   30    0    4      2.18      1.47
   32    0    4     -1.73     -3.25
   34    0    4     -2.93      1.48
   36    0    4     -0.19      0.39
   38    0    4     -0.05      1.55
  -11   17    5     -0.79     -1.58
   -9   17    5      1.19     -0.43
   -7   17    5      1.97     -1.01
   -5   17    5     -1.47     -0.73
   -3   17    5      0.05      1.20
   -1   17    5     -0.15      0.56
    1   17    5      2.02      0.58
    3   17    5     -2.26     -0.28
    5   17    5      1.84      0.22
    7   17    5     -1.46      1.28
    9   17    5      0.24     -1.30
  -18   16    5      3.28     -1.42
  -16   16    5     -4.61      1.64
  -14   16    5     -0.59     -2.15
  -12   16    5     -0.42     -0.57
  -10   16    5      2.38      1.48
   -8   16    5      1.42     -3.29
   -6   16    5      0.09      1.62
   -4   16    5      0.76     -3.77
   -2   16    5     -2.86      5.91
    0   16    5      3.05     -3.63
    2   16    5     -4.09      3.78
    4   16    5      2.99     -1.04
    6   16    5     -3.64      0.18
    8   16    5      1.41      1.22
   10   16    5     -0.63     -1.73
   12   16    5      2.82     -0.67
   14   16    5      0.54      0.41
   16   16    5     -0.79     -1.05
  -21   15    5      3.28      1.57
  -19   15    5     -1.92     -0.11
  -17   15    5      0.08      4.23
  -15   15    5     -2.78     -4.97
  -13   15    5      1.79     -0.14
  -11   15    5     -1.21     -0.73
   -9   15    5      0.08     -0.43
   -7   15    5      4.55     -0.60
   -5   15    5     -0.26      0.11
   -3   15    5     -2.70     -0.72
   -1   15    5     -0.55      1.53
    1   15    5     -0.05      0.42
    3   15    5     -2.58     -0.27
    5   15    5      0.05      4.17
    7   15    5      0.99     -4.46
    9   15    5     -2.52      2.04
   11   15    5      3.08     -2.03
   13   15    5      3.48      1.43
   15   15    5      0.17     -0.83
   17   15    5     -0.70     -0.57
   19   15    5     -0.64      2.11
  -24   14    5     -1.52     -2.10
  -22   14    5      1.51      3.47
  -20   14    5      0.13     -0.68
  -18   14    5     -1.01      4.20
  -16   14    5     -0.45     -0.89
  -14   14    5     -0.29     -2.06
  -12   14    5      2.83      1.43
  -10   14    5     -2.78     -5.11
   -8   14    5      2.98      2.98
   -6   14    5      0.63     -0.09
   -4   14    5     -1.75      0.16
   -2   14    5     -1.03     -4.49
    0   14    5     -0.03      3.86
    2   14    5     -1.91     -0.43
    4   14    5     -1.14      2.06
    6   14    5      0.68      1.48
    8   14    5      0.86     -2.04
   10   14    5      0.25     -3.67
   12   14    5      1.60      2.76
   14   14    5      1.66      1.06
   16   14    5      0.95     -1.70
   18   14    5     -1.97      0.99
   20   14    5     -0.10     -0.64
   22   14    5      0.27      0.52
  -27   13    5      3.17     -0.90
  -25   13    5     -1.24     -1.10
  -23   13    5     -2.51     -0.38
  -21   13    5     -0.58      1.28
  -19   13    5     -1.47      3.81
  -17   13    5     -0.61     -0.26
  -15   13    5      1.33      0.64
  -13   13    5      2.18     -1.28
  -11   13    5     -1.23      1.58
   -9   13    5      2.90     -1.87
   -7   13    5     -2.03     -0.09
   -5   13    5      0.07      0.38
   -3   13    5     -2.04     -2.98
   -1   13    5      3.26     -0.07
    1   13    5     -2.13      1.24
    3   13    5     -0.75      2.50
    5   13    5      0.28     -0.77
    7   13    5      1.36      3.22
    9   13    5      0.18     -5.28
   11   13    5      1.20     -0.27
   13   13    5     -1.20      1.71
   15   13    5     -1.56     -1.60
   17   13    5      3.76      0.45
   19   13    5     -3.47     -1.12
   21   13    5      3.50      1.83
   23   13    5     -2.29     -0.76
   25   13    5     -0.19     -0.30
  -30   12    5     -1.71     -2.78
  -28   12    5      2.31      3.14
  -26   12    5      0.52      0.71
  -24   12    5     -0.24     -3.56
  -22   12    5     -4.53      0.32
  -20   12    5     -3.02      0.78
  -18   12    5     -1.42      2.46
  -16   12    5      1.07     -1.08
  -14   12    5      4.75      2.30
  -12   12    5     -3.57     -0.91
  -10   12    5      1.57     -0.08
   -8   12    5      0.81      0.77
   -6   12    5     -0.13     -0.43
   -4   12    5     -0.96     -4.00
   -2   12    5      1.54      2.60
    0   12    5      1.73     -0.14
    2   12    5      0.38      2.45
    4   12    5     -2.81     -0.48
    6   12    5      4.53      1.40
    8   12    5     -2.56     -2.20
   10   12    5      1.75      0.31
   12   12    5     -2.31     -1.13
   14   12    5     -3.22     -0.21
   16   12    5      4.34     -2.29
   18   12    5     -2.48      0.18
   20   12    5      3.37      1.28
   22   12    5     -2.65      0.52
   24   12    5      2.57     -0.50
   26   12    5     -2.41     -0.06
   28   12    5     -0.58      0.76
  -31   11    5     -1.24     -0.35
  -29   11    5      0.61     -2.24
  -27   11    5     -1.43      4.93
  -25   11    5      1.05     -0.68
  -23   11    5      0.34     -1.43
  -21   11    5     -4.15     -3.92
  -19   11    5     -4.90      1.45
  -17   11    5      1.90     -0.32
  -15   11    5     -0.65      4.05
  -13   11    5      2.62     -1.19
  -11   11    5     -0.12     -4.98
   -9   11    5     -3.61      4.20
   -7   11    5      4.50     -2.48
   -5   11    5     -1.86      2.60
   -3   11    5      4.06     -1.99
   -1   11    5      1.44      4.47
    1   11    5     -0.78     -0.13
    3   11    5     -1.49     -0.57
    5   11    5      1.01     -1.02
    7   11    5      2.18      0.27
    9   11    5     -0.70      0.57
   11   11    5     -4.61     -0.63
   13   11    5      2.31     -0.91
   15   11    5     -2.71     -0.05
   17   11    5      3.52     -0.65
   19   11    5      0.43     -1.21
   21   11    5     -0.49      1.48
   23   11    5      0.42      0.48
   25   11    5     -0.71      0.06
   27   11    5     -1.16     -0.49
   29   11    5     -0.01     -1.18
  -34   10    5      2.50      2.86
  -32   10    5     -4.37     -1.39
  -30   10    5      3.07      0.13
  -28   10    5     -3.14      2.21
  -26   10    5      1.15     -2.49
  -24   10    5     -0.19      7.01
  -22   10    5      1.14     -7.39
  -20   10    5     -0.81      1.25
  -18   10    5     -2.94     -3.81
  -16   10    5     -2.17      2.24
  -14   10    5     -3.61      0.13
  -12   10    5      7.04     -0.91
  -10   10    5     -4.10     -3.18
   -8   10    5      3.24     -3.08
   -6   10    5     -1.20      7.20
   -4   10    5      1.96     -1.54
   -2   10    5      1.11      5.72
    0   10    5      3.13     -0.74
    2   10    5     -4.88     -3.79
    4   10    5      1.29     -1.77
    6   10    5      0.26      4.20
    8   10    5     -1.34     -1.57
   10   10    5      0.56     -0.84
   12   10    5      0.21      0.70
   14   10    5      0.66      2.57
   16   10    5     -1.95     -0.15
   18   10    5      3.24     -2.27
   20   10    5      0.35      3.31
   22   10    5     -0.70     -3.74
   24   10    5      0.62      1.00
   26   10    5     -3.25     -0.27
   28   10    5      1.22     -1.22
   30   10    5     -1.51      1.75
  -35    9    5     -0.33     -0.01
  -33    9    5     -1.03      0.97
  -31    9    5     -2.96     -0.95
  -29    9    5      1.31      1.53
  -27    9    5      1.28      1.13
  -25    9    5      1.08      1.64
  -23    9    5     -1.17     -0.39
  -21    9    5      2.23      1.57
  -19    9    5      0.54     -1.63
  -17    9    5     -3.35      0.79
  -15    9    5     -1.30     -9.22
  -13    9    5     -5.94      0.50
  -11    9    5      4.95      4.46
   -9    9    5      4.05     -5.15
   -7    9    5      0.41      4.84
   -5    9    5     -5.04     -0.54
   -3    9    5      1.32      1.28
   -1    9    5      2.93      1.65
    1    9    5      1.28     -2.15
    3    9    5     -1.83     -4.74
    5    9    5     -3.39      4.49
    7    9    5     -3.29     -2.06
    9    9    5      6.66      1.81
   11    9    5      0.65     -2.16
   13    9    5     -1.16      9.32
   15    9    5      1.24     -6.66
   17    9    5     -1.42      7.08
   19    9    5      1.52     -3.38
   21    9    5     -1.14      0.35
   23    9    5      1.57     -1.89
   25    9    5      0.86     -2.43
   27    9    5     -3.58      0.05
   29    9    5     -1.70      0.33
   31    9    5      1.15      0.32
   33    9    5      1.30     -1.20
  -36    8    5      1.75      1.38
  -34    8    5     -2.48     -0.89
  -32    8    5     -1.38     -1.13
  -30    8    5      0.38     -2.08
  -28    8    5      1.11      3.62
  -26    8    5      1.22      4.50
  -24    8    5      1.87     -0.14
  -22    8    5      0.12     -1.98
  -20    8    5      0.05      7.13
  -18    8    5     -6.72     -5.11
  -16    8    5      4.65      1.33
  -14    8    5      1.02    -13.79
  -12    8    5     -3.45      4.25
  -10    8    5     -0.12      2.30
   -8    8    5      2.54     10.35
   -6    8    5     -0.80    -10.63
   -4    8    5     -4.25      3.11
   -2    8    5      2.96     -2.57
    0    8    5      6.10      3.82
    2    8    5     -3.54     -5.29
    4    8    5     -2.58     -1.70
    6    8    5     -2.27     -0.98
    8    8    5      2.74      6.27
   10    8    5      1.01     -2.21
   12    8    5      1.29      5.21
   14    8    5     -1.01     -3.12
   16    8    5      1.21      4.44
   18    8    5     -2.63      1.15
   20    8    5      0.30     -2.49
   22    8    5      0.31     -1.05
   24    8    5      3.23     -1.61
   26    8    5     -1.10     -0.88
   28    8    5     -1.20     -0.69
   30    8    5     -3.33     -1.29
   32    8    5      1.91      3.87
   34    8    5      1.25     -2.52
  -37    7    5      1.26      1.59
  -35    7    5     -2.83      0.95
  -33    7    5     -0.66     -2.86
  -31    7    5      3.61     -3.57
  -29    7    5      0.69      2.12
  -27    7    5     -2.29      1.98
  -25    7    5      0.48      5.00
  -23    7    5      4.11      1.26
  -21    7    5     -3.99      0.42
  -19    7    5     -2.49     -1.65
  -17    7    5     -4.24     -3.34
  -15    7    5      6.27     -0.42
  -13    7    5      4.08     -0.20
  -11    7    5      0.95     -1.82
   -9    7    5    -13.41      1.36
   -7    7    5      8.93      7.08
   -5    7    5     -5.09     -6.00
   -3    7    5      0.03     -3.64
   -1    7    5      4.75     15.43
    1    7    5      3.95    -13.93
    3    7    5     -2.49     -0.62
    5    7    5      1.89     -5.28
    7    7    5     -1.89      7.52
    9    7    5     -5.25      1.05
   11    7    5      5.52     -0.43
   13    7    5     -2.09      1.65
   15    7    5     -1.07     -2.44
   17    7    5      0.89      2.63
   19    7    5     -1.90     -1.32
   21    7    5      0.02      1.32
   23    7    5      4.88     -2.14
   25    7    5     -3.70      1.76
   27    7    5      3.39     -2.41
   29    7    5     -2.44      0.36
   31    7    5     -0.83     -0.75
   33    7    5      0.84      1.80
   35    7    5      0.02     -0.81
  -38    6    5     -1.93      2.12
  -36    6    5     -0.55     -0.95
  -34    6    5     -2.92     -1.08
  -32    6    5      5.97     -2.03
  -30    6    5      0.12     -0.31
  -28    6    5     -0.39     -0.22
  -26    6    5     -1.14      3.21
  -24    6    5     -2.80      2.72
  -22    6    5      0.94      1.65
  -20    6    5     -1.58     -3.64
  -18    6    5     -1.68      0.22
  -16    6    5      0.32     -7.86
  -14    6    5      6.36      8.77
  -12    6    5     -7.55     -2.83
  -10    6    5     12.63      1.91
   -8    6    5    -14.19     -6.55
   -6    6    5      2.95      8.04
   -4    6    5     -2.03     -2.84
   -2    6    5     -1.31      7.97
    0    6    5      2.89      6.35
    2    6    5     10.66    -10.33
    4    6    5     -0.30     -9.82
    6    6    5     -1.72      7.48
    8    6    5     -4.81     -4.40
   10    6    5      1.44      3.57
   12    6    5     -5.20      3.07
   14    6    5      3.13     -7.26
   16    6    5     -1.06     -0.20
   18    6    5      0.33      0.04
   20    6    5     -0.14      2.34
   22    6    5      0.19      2.50
   24    6    5      0.32      1.95
   26    6    5      0.49     -2.01
   28    6    5      0.14     -0.45
   30    6    5     -0.71      0.93
   32    6    5      3.13     -2.98
   34    6    5     -2.95      4.00
   36    6    5      1.70     -4.59
  -39    5    5      3.68     -1.44
  -37    5    5     -4.24      3.20
  -35    5    5      4.04     -5.42
  -33    5    5     -0.73      2.95
  -31    5    5     -0.20     -3.71
  -29    5    5      1.47      2.33
  -27    5    5     -1.80      1.66
  -25    5    5     -1.21     -2.10
  -23    5    5     -2.23      1.19
  -21    5    5      2.30      0.06
  -19    5    5     -6.42     -0.11
  -17    5    5      7.24     -0.96
  -15    5    5      1.44     -0.86
  -13    5    5      4.70     -6.04
  -11    5    5    -12.57      2.01
   -9    5    5     10.77      9.15
   -7    5    5     -2.74     -7.38
   -5    5    5     -6.75      0.19
   -3    5    5     -2.02     17.20
   -1    5    5     -7.83     -9.95
    1    5    5     11.60     16.94
    3    5    5     10.23    -23.17
    5    5    5     -2.92      4.23
    7    5    5      1.61     -7.08
    9    5    5     -3.62     10.03
   11    5    5     -0.58     -9.01
   13    5    5     -4.62      4.61
   15    5    5      6.61     -5.55
   17    5    5     -5.95     -0.50
   19    5    5      2.27     -2.06
   21    5    5      0.37      7.55
   23    5    5     -4.74      3.93
   25    5    5      4.36      0.45
   27    5    5     -4.02     -0.04
   29    5    5      3.83     -5.76
   31    5    5      0.52      3.02
   33    5    5      1.00      0.16
   35    5    5      0.57     -2.66
   37    5    5     -1.49      1.02
  -38    4    5     -1.68     -4.50
  -36    4    5      2.97      5.80
  -34    4    5      3.63     -3.68
  -32    4    5     -2.89     -1.50
  -30    4    5     -2.58      0.06
  -28    4    5     -1.86      3.40
  -26    4    5      2.14     -0.26
  -24    4    5      1.11     -1.95
  -22    4    5      0.12     -3.22
  -20    4    5     -5.63      9.21
  -18    4    5      0.93     -7.75
  -16    4    5      6.03      6.70
  -14    4    5      7.14     -4.79
  -12    4    5      8.42    -10.75
  -10    4    5    -22.23      3.35
   -8    4    5      7.49     10.67
   -6    4    5      9.38      9.89
   -4    4    5    -22.99    -10.54
   -2    4    5     -8.93     -3.70
    0    4    5      4.12     16.81
    2    4    5      5.19    -20.55
    4    4    5     23.33     12.95
    6    4    5    -12.39    -16.12
    8    4    5      7.25     13.11
   10    4    5     -3.96     -8.28
   12    4    5      5.85      3.65
   14    4    5     -6.82      0.99
   16    4    5     -4.76     -7.94
   18    4    5      4.69      0.80
   20    4    5      0.45      1.01
   22    4    5     -5.78      7.88
   24    4    5     -1.18      2.74
   26    4    5     -1.07      0.72
   28    4    5      4.62     -5.97
   30    4    5      1.01      0.07
   32    4    5     -0.27      0.44
   34    4    5      1.13     -0.58
   36    4    5     -0.55     -0.69
  -39    3    5     -2.36      0.50
  -37    3    5      3.11     -2.68
  -35    3    5      2.44      5.80
  -33    3    5     -0.96     -1.63
  -31    3    5      2.03     -3.89
  -29    3    5     -7.36      2.05
  -27    3    5      0.45      0.89
  -25    3    5      3.28      3.91
  -23    3    5      5.79     -4.32
  -21    3    5    -10.89      4.07
  -19    3    5      1.02      1.24
  -17    3    5      2.42     -1.44
  -15    3    5     11.24     -1.87
  -13    3    5     -0.91      5.82
  -11    3    5     11.81    -13.08
   -9    3    5     -6.53      0.15
   -7    3    5    -11.64     24.61
   -5    3    5     -1.76      6.97
   -3    3    5    -24.11    -38.25
   -1    3    5     -3.79      5.68
    1    3    5     -0.32     -4.10
    3    3    5     33.73     12.84
    5    3    5     -0.36     -3.46
    7    3    5      5.64      4.19
    9    3    5     -4.38     -9.06
   11    3    5      5.07     17.75
   13    3    5     -6.49     -7.57
   15    3    5     -3.03     -9.34
   17    3    5      1.89      4.51
   19    3    5     -1.53     -0.95
   21    3    5     -1.93      4.05
   23    3    5     -2.84      1.27
   25    3    5     -4.35     -0.02
   27    3    5      6.18      3.42
   29    3    5      0.70     -4.64
   31    3    5      2.68     -0.20
   33    3    5     -4.03     -2.74
   35    3    5     -0.01      1.51
   37    3    5      1.32     -4.05
  -40    2    5     -5.11     -1.88
  -38    2    5      4.95     -2.31
  -36    2    5     -0.83      4.40
  -34    2    5     -0.43     -0.44
  -32    2    5      2.33     -1.54
  -30    2    5      0.75      1.68
  -28    2    5     -3.26     -0.98
  -26    2    5      1.01      0.91
  -24    2    5      0.57      5.06
  -22    2    5     -0.39      1.17
  -20    2    5    -11.01     -5.59
  -18    2    5     12.13      9.94
  -16    2    5     -0.13     -5.93
  -14    2    5      5.37      0.75
  -12    2    5     -0.85     -6.72
  -10    2    5     16.38     11.10
   -8    2    5      4.25      9.30
   -6    2    5    -29.54      8.37
   -4    2    5    -30.37    -29.05
   -2    2    5      6.21    -13.76
    0    2    5     -5.04     -7.05
    2    2    5     15.28     11.27
    4    2    5     18.47     15.29
    6    2    5     24.46     -0.90
    8    2    5    -17.22     -0.58
   10    2    5      3.23      3.47
   12    2    5    -16.23     -2.02
   14    2    5     15.48     -0.82
   16    2    5     -6.45      0.18
   18    2    5     -3.05     -2.98
   20    2    5     -0.73      3.79
   22    2    5     -2.97     -3.69
   24    2    5      3.57      3.24
   26    2    5     -5.94      0.44
   28    2    5      4.99      2.02
   30    2    5      0.34     -2.41
   32    2    5      1.54     -2.30
   34    2    5     -6.29     -1.37
   36    2    5      2.64     -2.81
   38    2    5     -0.64      2.43
  -39    1    5      0.31     -0.80
  -37    1    5     -2.92      3.27
  -35    1    5      1.56     -2.38
  -33    1    5      2.52      0.36
  -31    1    5      3.85      1.18
  -29    1    5     -3.30      0.03
  -27    1    5      2.34      4.02
  -25    1    5     -2.92     -3.54
  -23    1    5     -4.25      4.13
  -21    1    5     -0.96     -3.52
  -19    1    5     -1.62      5.03
  -17    1    5      2.10      0.06
  -15    1    5      1.94      5.27
  -13    1    5     10.46    -21.02
  -11    1    5      4.08     13.67
   -9    1    5      8.23      6.35
   -7    1    5    -22.68     42.57
   -5    1    5     -5.11    -75.13
   -3    1    5    -26.26     12.84
    1    1    5      5.45      1.40
    3    1    5     32.26     -5.64
    5    1    5     18.77     16.40
    7    1    5     -2.99     15.59
    9    1    5      0.80    -22.87
   11    1    5    -16.93      1.64
   13    1    5      5.65      7.36
   15    1    5     -2.62      4.00
   17    1    5      1.02     -9.54
   19    1    5     -1.80      4.91
   21    1    5      1.03     -4.23
   23    1    5     -3.20      0.08
   25    1    5      2.00      7.01
   27    1    5     -4.94     -6.09
   29    1    5      8.37      2.55
   31    1    5     -6.03     -0.91
   33    1    5      1.30     -0.90
   35    1    5     -4.34     -2.24
   37    1    5      1.83     -0.35
  -40    0    5     -1.38     -0.59
  -38    0    5     -1.83      0.15
  -36    0    5     -3.92     -0.96
  -34    0    5      7.68      0.03
  -32    0    5      2.59      2.39
  -30    0    5     -0.13      0.20
  -28    0    5     -1.38     -0.45
  -26    0    5     -0.49     -0.11
  -24    0    5     -3.90     -0.93
  -22    0    5     -0.94      0.34
  -20    0    5     -1.10      0.15
  -18    0    5     -8.39     -0.65
  -16    0    5      8.98      0.25
  -14    0    5     -0.10     -0.22
  -12    0    5     22.64     -0.17
  -10    0    5      2.50      0.43
   -8    0    5    -30.75     -0.50
   -6    0    5     -9.57      0.79
   -4    0    5     33.23      0.60
   -2    0    5    -56.87     -0.50
    0    0    5    -25.36      0.84
    2    0    5     73.19     -1.22
    4    0    5      2.35     -0.12
    6    0    5      3.41     -0.02
    8    0    5      4.35     -0.62
   10    0    5     -6.08      0.10
   12    0    5     -1.86      0.01
   14    0    5    -17.40     -0.13
   16    0    5     14.60      0.60
   18    0    5     -2.80     -0.05
   20    0    5     -1.90      0.08
   22    0    5      5.24      0.24
   24    0    5    -10.01     -0.62
   26    0    5      3.34      0.28
   28    0    5      2.22      0.53
   30    0    5      0.10     -0.29
   32    0    5     -2.81     -0.70
   34    0    5     -3.01      0.59
   36    0    5      0.19      1.41
   38    0    5      2.58     -0.51
   -1    1    5     -5.29      0.32
  -11   17    6      0.65     -2.25
   -9   17    6      0.85     -0.40
   -7   17    6      1.66      0.87
   -5   17    6     -3.39     -1.67
   -3   17    6      2.16      3.92
   -1   17    6     -1.34     -1.88
    1   17    6      0.71      2.12
    3   17    6     -0.71     -2.66
    5   17    6      0.38      2.50
    7   17    6      0.13     -0.61
    9   17    6     -0.90     -1.05
  -18   16    6      1.43     -0.78
  -16   16    6     -3.86     -1.30
  -14   16    6      1.56     -0.45
  -12   16    6      1.53     -0.92
  -10   16    6      1.72      1.06
   -8   16    6     -0.32     -1.12
   -6   16    6      0.66     -0.36
   -4   16    6     -2.70      2.17
   -2   16    6      0.45      1.19
    0   16    6     -0.66      0.55
    2   16    6     -1.76     -1.26
    4   16    6      2.63      2.41
    6   16    6     -2.76     -2.45
    8   16    6      1.72      2.63
   10   16    6      0.66     -3.05
   12   16    6      1.73     -0.13
   14   16    6      0.08      0.16
  -21   15    6     -3.89     -0.48
  -19   15    6      2.86      3.01
  -17   15    6     -3.88     -1.83
  -15   15    6      1.52     -2.00
  -13   15    6      2.79     -2.14
  -11   15    6     -4.04      1.95
   -9   15    6      5.10     -2.29
   -7   15    6     -1.77      1.46
   -5   15    6      1.66      0.32
   -3   15    6     -8.25      1.22
   -1   15    6      5.15      0.82
    1   15    6     -4.99     -0.63
    3   15    6      1.85      1.49
    5   15    6      0.97     -0.17
    7   15    6      0.14     -0.83
    9   15    6     -1.06     -1.30
   11   15    6      5.49      0.46
   13   15    6      0.22      0.54
   15   15    6     -0.03     -0.62
   17   15    6     -2.07      1.32
   19   15    6     -0.01      1.01
  -24   14    6      1.03     -0.35
  -22   14    6     -0.18      2.30
  -20   14    6      1.29      0.48
  -18   14    6     -2.28      2.38
  -16   14    6      1.40     -2.52
  -14   14    6      0.95     -0.42
  -12   14    6      0.68     -1.65
  -10   14    6     -0.36     -3.18
   -8   14    6      1.08      3.30
   -6   14    6     -0.88     -0.26
   -4   14    6     -3.03     -0.96
   -2   14    6     -1.16     -1.04
    0   14    6     -0.12      2.31
    2   14    6      0.60      0.11
    4   14    6     -2.10      1.00
    6   14    6      5.31      0.81
    8   14    6     -3.09     -4.98
   10   14    6      3.01      0.77
   12   14    6      2.00      1.90
   14   14    6     -1.77      1.90
   16   14    6      1.83     -2.63
   18   14    6     -4.63      3.52
   20   14    6      2.70     -2.52
   22   14    6     -2.01      0.44
  -27   13    6     -0.23     -0.42
  -25   13    6     -2.95     -1.01
  -23   13    6     -1.11      0.98
  -21   13    6      0.52      3.38
  -19   13    6     -0.29      1.42
  -17   13    6     -0.02      0.78
  -15   13    6      2.95     -3.43
  -13   13    6     -0.57      2.68
  -11   13    6      1.46     -3.28
   -9   13    6      0.53     -0.08
   -7   13    6     -1.10      0.10
   -5   13    6     -2.76     -2.13
   -3   13    6      1.79      0.02
   -1   13    6      0.04      0.12
    1   13    6      0.31      1.12
    3   13    6     -0.63      2.45
    5   13    6      1.34     -1.78
    7   13    6      0.37      0.33
    9   13    6      0.15     -3.80
   11   13    6     -0.82      1.27
   13   13    6     -0.89      2.02
   15   13    6      1.16     -2.03
   17   13    6     -2.14      1.97
   19   13    6      2.29     -0.51
   21   13    6     -2.10      1.29
   23   13    6      1.15     -1.83
   25   13    6     -1.61      0.69
  -30   12    6     -1.19     -0.75
  -28   12    6      1.40      3.81
  -26   12    6     -1.32     -2.83
  -24   12    6     -2.96     -1.82
  -22   12    6     -1.92      2.42
  -20   12    6     -2.67      1.82
  -18   12    6      2.49      0.63
  -16   12    6      2.48     -0.53
  -14   12    6      2.54      0.53
  -12   12    6     -3.43     -1.84
  -10   12    6      2.63      2.19
   -8   12    6      0.63     -2.30
   -6   12    6     -0.61      1.24
   -4   12    6      0.24     -4.48
   -2   12    6      2.56      4.70
    0   12    6      1.49     -0.07
    2   12    6     -1.80      0.52
    4   12    6      1.36     -0.13
    6   12    6     -1.23     -0.27
    8   12    6      0.36     -2.43
   10   12    6     -3.85     -0.58
   12   12    6     -0.87      0.91
   14   12    6      0.98     -2.60
   16   12    6      1.13      2.24
   18   12    6     -0.20     -2.96
   20   12    6     -0.53      5.46
   22   12    6      0.80     -2.86
   24   12    6     -0.52      0.46
   26   12    6     -0.68      0.78
  -31   11    6      0.90     -2.69
  -29   11    6     -2.35      3.31
  -27   11    6     -1.08      0.31
  -25   11    6      2.72     -0.76
  -23   11    6     -5.51     -3.28
  -21   11    6     -0.46     -0.70
  -19   11    6     -3.79      0.68
  -17   11    6      5.18      1.35
  -15   11    6     -0.13      1.97
  -13   11    6      3.18     -4.44
  -11   11    6     -2.80      1.08
   -9   11    6      0.72      0.22
   -7   11    6      1.66      3.11
   -5   11    6      1.72     -1.47
   -3   11    6      1.83      3.54
   -1   11    6      2.24      0.53
    1   11    6     -3.34      1.13
    3   11    6      0.13     -4.67
    5   11    6      1.24      2.44
    7   11    6     -1.35     -1.59
    9   11    6     -2.55     -1.33
   11   11    6     -1.55     -0.44
   13   11    6     -0.55     -1.30
   15   11    6      3.29      2.20
   17   11    6     -0.41     -3.52
   19   11    6      2.36      2.05
   21   11    6     -3.64     -0.04
   23   11    6      1.77      1.76
   25   11    6     -1.70     -0.98
   27   11    6     -0.68     -0.83
   29   11    6      1.77      1.12
  -34   10    6     -0.81      2.35
  -32   10    6     -3.02     -0.93
  -30   10    6      1.22      0.83
  -28   10    6     -2.92      1.18
  -26   10    6      2.19     -0.04
  -24   10    6     -0.79     -0.28
  -22   10    6      0.97     -3.62
  -20   10    6     -3.31     -2.73
  -18   10    6      1.69      0.96
  -16   10    6     -4.90     -1.40
  -14   10    6      3.35      2.92
  -12   10    6      5.47     -2.92
  -10   10    6     -5.62     -2.08
   -8   10    6      6.42      3.56
   -6   10    6     -4.11      3.83
   -4   10    6      2.61      1.86
   -2   10    6      0.63      3.80
    0   10    6     -0.34     -3.19
    2   10    6     -3.34     -4.52
    4   10    6      2.13      1.84
    6   10    6     -1.79      1.96
    8   10    6      0.86     -2.40
   10   10    6     -0.56     -2.59
   12   10    6      3.31      5.79
   14   10    6     -4.73     -4.58
   16   10    6      4.13      3.58
   18   10    6      0.65     -3.48
   20   10    6     -0.30      1.34
   22   10    6     -1.06     -1.11
   24   10    6     -1.86     -0.33
   26   10    6     -1.07      0.19
   28   10    6      0.17     -0.15
   30   10    6     -0.02      0.12
  -35    9    6     -2.11      2.67
  -33    9    6     -2.46     -1.31
  -31    9    6     -0.50      1.76
  -29    9    6     -1.05      0.33
  -27    9    6      4.73      1.62
  -25    9    6     -2.74      0.23
  -23    9    6      1.48     -1.99
  -21    9    6      1.21      0.39
  -19    9    6     -2.04     -1.12
  -17    9    6      0.56     -4.26
  -15    9    6     -5.36     -5.74
  -13    9    6      1.89      6.44
  -11    9    6      4.46     -0.74
   -9    9    6      4.87      1.93
   -7    9    6     -6.54      1.13
   -5    9    6      0.54      0.62
   -3    9    6     -3.15      0.99
   -1    9    6      4.00     -0.33
    1    9    6     -1.15     -3.27
    3    9    6     -2.79     -0.84
    5    9    6     -2.67      3.92
    7    9    6      3.61     -2.36
    9    9    6      3.99      1.70
   11    9    6      2.05      2.11
   13    9    6     -3.63      2.77
   15    9    6      1.07     -3.49
   17    9    6      1.04      2.92
   19    9    6     -2.22     -1.96
   21    9    6      1.82     -2.05
   23    9    6     -0.96     -1.33
   25    9    6     -2.21     -1.54
   27    9    6     -0.25      0.19
   29    9    6     -3.31      0.81
   31    9    6      5.90     -0.22
  -36    8    6      0.74      0.37
  -34    8    6     -3.34      0.15
  -32    8    6     -1.18     -2.45
  -30    8    6      1.89      0.91
  -28    8    6      0.16      5.16
  -26    8    6      1.65      1.61
  -24    8    6      0.92     -2.62
  -22    8    6     -1.66      2.48
  -20    8    6     -1.08     -0.23
  -18    8    6     -4.66     -1.27
  -16    8    6      7.54     -6.83
  -14    8    6     -1.63     -4.99
  -12    8    6     -3.20      5.89
  -10    8    6      3.15      9.47
   -8    8    6      2.07     -3.38
   -6    8    6     -4.71     -3.95
   -4    8    6     -1.25     -2.87
   -2    8    6      6.07      1.89
    0    8    6     -2.25     -2.76
    2    8    6      0.97     -0.21
    4    8    6     -7.92     -1.56
    6    8    6      5.23      2.78
    8    8    6      1.13      7.52
   10    8    6      3.18     -4.63
   12    8    6     -3.25      6.02
   14    8    6      4.06     -3.31
   16    8    6     -4.61      3.17
   18    8    6      0.78     -0.76
   20    8    6     -1.47     -2.38
   22    8    6      1.46     -4.13
   24    8    6      1.27      0.78
   26    8    6     -1.32     -1.24
   28    8    6     -1.38     -0.64
   30    8    6     -1.05      2.49
   32    8    6      3.38      0.20
   34    8    6     -1.41     -0.35
  -37    7    6     -0.10      0.91
  -35    7    6     -1.95      1.30
  -33    7    6      1.28     -6.80
  -31    7    6      3.24      1.93
  -29    7    6     -1.95      1.85
  -27    7    6     -1.07      3.73
  -25    7    6      0.25      3.31
  -23    7    6      2.31     -1.44
  -21    7    6     -8.29      1.12
  -19    7    6      1.19     -5.79
  -17    7    6     -3.27      0.75
  -15    7    6     12.41     -2.05
  -13    7    6     -3.55      2.71
  -11    7    6     -1.60     -1.24
   -9    7    6     -8.41      7.58
   -7    7    6     11.11     -2.90
   -5    7    6     -7.89     -6.65
   -3    7    6      6.41      0.96
   -1    7    6      4.44      5.71
    1    7    6      1.66    -11.22
    3    7    6     -3.81     -1.03
    5    7    6      0.76      3.78
    7    7    6     -7.69      6.22
    9    7    6      3.23     -1.54
   11    7    6     -0.41      2.17
   13    7    6      1.31     -2.96
   15    7    6     -0.80      3.80
   17    7    6     -1.60     -1.45
   19    7    6     -0.70      0.43
   21    7    6      0.54     -2.83
   23    7    6      4.38     -0.25
   25    7    6     -2.42     -0.54
   27    7    6      1.17      1.53
   29    7    6     -0.40     -0.77
   31    7    6     -2.14      0.01
   33    7    6      2.96      2.34
   35    7    6     -2.22     -3.15
  -38    6    6     -0.65      4.37
  -36    6    6     -4.22     -3.64
  -34    6    6      4.90     -0.74
  -32    6    6      2.11     -1.26
  -30    6    6      0.45      0.61
  -28    6    6     -1.70      1.62
  -26    6    6     -3.39      2.59
  -24    6    6     -0.12      3.10
  -22    6    6     -2.88     -5.69
  -20    6    6     -1.18      1.98
  -18    6    6      0.35     -7.52
  -16    6    6      4.19      3.70
  -14    6    6     -0.84      1.17
  -12    6    6      1.07      6.37
  -10    6    6     -1.00     -8.07
   -8    6    6     -4.86      8.46
   -6    6    6     -0.02     -2.22
   -4    6    6      9.68     -3.36
   -2    6    6    -11.11     10.22
    0    6    6     22.32     -3.70
    2    6    6     -6.14    -11.72
    4    6    6      3.31      2.89
    6    6    6    -12.66     -0.31
    8    6    6      0.29      1.36
   10    6    6     -3.26     -0.24
   12    6    6      0.39      2.43
   14    6    6      2.28     -8.44
   16    6    6     -1.26      7.93
   18    6    6      0.01     -3.14
   20    6    6     -0.02      2.38
   22    6    6      2.53      3.89
   24    6    6     -0.30     -3.71
   26    6    6      1.65      2.43
   28    6    6     -2.79     -1.89
   30    6    6      3.38      0.31
   32    6    6     -1.60      0.69
   34    6    6     -0.79     -1.71
   36    6    6      0.24      0.27
  -39    5    6     -4.33      0.28
  -37    5    6      4.09      0.32
  -35    5    6     -1.89     -3.91
  -33    5    6      2.03      2.27
  -31    5    6     -0.37     -0.69
  -29    5    6      0.73      2.45
  -27    5    6     -2.14      0.00
  -25    5    6     -0.89     -0.99
  -23    5    6     -2.79     -2.82
  -21    5    6      1.78      1.74
  -19    5    6     -3.40     -2.92
  -17    5    6      9.13     -1.59
  -15    5    6      0.35      2.50
  -13    5    6     -4.26    -10.63
  -11    5    6     -3.57     21.63
   -9    5    6      1.16     -8.98
   -7    5    6      1.52      3.17
   -5    5    6     -7.05      3.28
   -3    5    6      1.79      1.37
   -1    5    6      4.09      3.40
    1    5    6      6.35     -1.65
    3    5    6     11.49    -10.90
    5    5    6    -14.01     -0.03
    7    5    6      4.16     -0.93
    9    5    6     -5.72      0.35
   11    5    6     -5.06     -2.38
   13    5    6      5.95     -1.61
   15    5    6     -4.42      0.92
   17    5    6      2.47     -1.08
   19    5    6     -0.33      3.50
   21    5    6      0.56      7.69
   23    5    6     -0.90      0.57
   25    5    6      1.08     -0.73
   27    5    6     -0.42     -4.64
   29    5    6      1.24     -0.45
   31    5    6      1.92      2.40
   33    5    6     -3.01     -2.60
   35    5    6      2.82     -0.44
  -38    4    6     -2.88     -0.96
  -36    4    6      7.22      1.64
  -34    4    6     -3.71     -0.59
  -32    4    6     -0.89     -4.38
  -30    4    6     -4.21      7.71
  -28    4    6      2.55     -0.61
  -26    4    6      3.31     -0.21
  -24    4    6     -1.02     -7.05
  -22    4    6     -1.29      5.36
  -20    4    6     -0.42     -3.20
  -18    4    6      3.44      2.86
  -16    4    6      6.29     -5.71
  -14    4    6      7.86      2.07
  -12    4    6    -12.35     -9.17
  -10    4    6    -12.43     13.13
   -8    4    6      8.53     13.44
   -6    4    6      2.95    -12.14
   -4    4    6    -28.23      0.48
   -2    4    6     18.33     -4.81
    0    4    6     -8.95     12.42
    2    4    6     27.09    -12.73
    4    4    6     -7.02      3.08
    6    4    6      7.87     -2.02
    8    4    6    -12.92      0.75
   10    4    6     13.11     -2.81
   12    4    6    -11.57     -0.76
   14    4    6     -3.15      0.18
   16    4    6      2.16     -5.58
   18    4    6      1.82      5.10
   20    4    6     -0.72      7.69
   22    4    6     -4.44      2.55
   24    4    6     -0.36      2.87
   26    4    6      3.29     -7.94
   28    4    6      2.28     -2.03
   30    4    6     -0.57     -0.09
   32    4    6     -1.61      0.06
   34    4    6      3.34      0.28
   36    4    6     -3.73     -1.45
  -39    3    6      1.73     -4.87
  -37    3    6      0.68      5.68
  -35    3    6      1.28      0.98
  -33    3    6     -1.11     -2.09
  -31    3    6     -2.95     -1.70
  -29    3    6     -3.66      4.51
  -27    3    6      3.26      2.80
  -25    3    6      5.11     -2.40
  -23    3    6      2.48     -1.80
  -21    3    6    -11.03      4.65
  -19    3    6     11.15     -2.94
  -17    3    6      2.31     -0.28
  -15    3    6      7.55     -1.69
  -13    3    6     -1.11      3.72
  -11    3    6     -3.77    -10.14
   -9    3    6    -12.44     11.31
   -7    3    6     -5.61     19.13
   -5    3    6     -8.10    -26.52
   -3    3    6     -3.89    -18.38
   -1    3    6    -11.52      9.44
    1    3    6     34.02      1.68
    3    3    6      7.02     16.64
    5    3    6      5.94    -13.93
    7    3    6     -9.06     15.70
    9    3    6      6.12    -10.62
   11    3    6     -6.27     11.80
   13    3    6     -4.83    -14.87
   15    3    6      1.37     -1.41
   17    3    6     -2.42      4.56
   19    3    6      2.73      5.36
   21    3    6     -7.31      0.68
   23    3    6      0.49      0.57
   25    3    6     -0.86      0.49
   27    3    6      8.03     -3.58
   29    3    6     -2.72     -2.69
   31    3    6      0.65     -3.23
   33    3    6     -2.46      3.64
   35    3    6      0.11     -3.17
   37    3    6      2.18      1.49
  -40    2    6     -0.88     -2.69
  -38    2    6      4.55      2.67
  -36    2    6     -3.28      1.72
  -34    2    6      0.38     -0.79
  -32    2    6      1.86      0.81
  -30    2    6     -4.08      0.56
  -28    2    6      1.15      1.16
  -26    2    6     -2.51      1.39
  -24    2    6      6.28      5.21
  -22    2    6     -7.15     -3.70
  -20    2    6      1.93      1.88
  -18    2    6      6.96      1.58
  -16    2    6      8.70     -1.46
  -14    2    6     -9.83     -3.93
  -12    2    6      8.94      3.54
  -10    2    6     -1.18      6.77
   -8    2    6    -12.18      2.14
   -6    2    6    -29.20     -2.27
   -4    2    6      2.22    -36.08
   -2    2    6      7.92     -5.83
    0    2    6      7.14      0.97
    2    2    6     25.07     29.09
    4    2    6      8.49      0.25
    6    2    6      2.32     11.24
    8    2    6    -15.95    -11.36
   10    2    6     -9.90     10.85
   12    2    6      9.58    -10.16
   14    2    6      0.46     -0.76
   16    2    6     -7.24      2.32
   18    2    6      0.90     -1.10
   20    2    6     -3.56      1.68
   22    2    6     -1.88      0.53
   24    2    6      5.32     -2.20
   26    2    6     -6.28      4.88
   28    2    6      9.12     -6.87
   30    2    6     -3.17      1.24
   32    2    6     -0.95     -4.90
   34    2    6     -3.47      1.90
   36    2    6      3.35     -0.89
   38    2    6      0.88      2.28
  -39    1    6      2.75      2.58
  -37    1    6     -2.80      1.28
  -35    1    6      2.93     -3.05
  -33    1    6      2.31      2.04
  -31    1    6     -2.15      2.07
  -29    1    6     -1.36      0.08
  -27    1    6      0.31      0.18
  -25    1    6     -5.34      2.50
  -23    1    6     -0.95     -0.47
  -21    1    6      0.18     -0.64
  -19    1    6      1.09      7.18
  -17    1    6      6.40     -6.35
  -15    1    6     -0.39      3.92
  -13    1    6      6.90    -10.60
  -11    1    6     -2.77      9.10
   -9    1    6     -5.52     16.75
   -7    1    6    -26.05     -4.72
   -5    1    6     -0.90    -42.86
   -3    1    6     -0.16      2.83
    1    1    6     22.88    -18.76
    3    1    6     12.71     28.89
    5    1    6     -1.87     15.73
    7    1    6    -13.80    -12.85
    9    1    6     -9.71     -3.28
   11    1    6     -1.36     -4.43
   13    1    6      2.85     16.84
   15    1    6     -0.37    -13.25
   17    1    6     -1.41      1.46
   19    1    6     -3.32      2.07
   21    1    6      0.86     -5.67
   23    1    6     -1.19      7.74
   25    1    6     -0.33     -4.43
   27    1    6      2.65      1.45
   29    1    6      1.20     -2.72
   31    1    6     -1.79      1.13
   33    1    6     -4.11     -3.36
   35    1    6      2.71      1.55
   37    1    6      0.37     -1.27
  -40    0    6     -1.33      0.73
  -38    0    6     -3.39     -0.99
  -36    0    6      6.40      0.27
  -34    0    6      0.23      0.20
  -32    0    6      2.92      1.81
  -30    0    6     -3.59     -0.69
  -28    0    6     -3.87     -0.73
  -26    0    6      1.70     -0.26
  -24    0    6     -7.59     -0.31
  -22    0    6      1.73     -0.25
  -20    0    6     -3.06      0.94
  -18    0    6      5.54     -1.35
  -16    0    6     -3.07      0.87
  -14    0    6     15.29      0.04
  -12    0    6     -1.93     -0.40
  -10    0    6     -0.01      0.56
   -8    0    6    -45.66      0.09
   -6    0    6     23.03      0.20
   -4    0    6     -1.01      0.45
   -2    0    6    -11.56     -0.43
    0    0    6     31.93     -1.46
    2    0    6     32.93      1.08
    4    0    6     -6.40     -1.49
    6    0    6    -32.70      1.16
    8    0    6     19.50     -0.73
   10    0    6    -15.40     -0.19
   12    0    6     -7.10      1.33
   14    0    6      1.39     -0.86
   16    0    6     11.32      1.21
   18    0    6    -13.96     -0.35
   20    0    6      7.79     -0.24
   22    0    6     -4.02      0.23
   24    0    6     -4.01     -0.13
   26    0    6      5.59     -0.33
   28    0    6      1.43      1.82
   30    0    6     -2.71     -2.27
   32    0    6     -1.52      1.45
   34    0    6     -2.75     -0.31
   36    0    6      5.15      0.48
   38    0    6      0.02     -0.53
   -1    1    6     17.28     13.13
  -11   17    7      1.08     -0.56
   -9   17    7      0.84      1.40
   -7   17    7     -1.90     -1.17
   -5   17    7     -0.14      2.25
   -3   17    7     -0.28      0.05
   -1   17    7      0.95      0.27
    1   17    7     -2.56     -0.50
    3   17    7      3.08     -0.75
    5   17    7     -2.14      1.74
    7   17    7      1.94     -0.79
    9   17    7     -2.03     -1.07
  -18   16    7     -2.63      0.81
  -16   16    7      1.53     -2.19
  -14   16    7      0.21     -0.76
  -12   16    7      2.89      2.88
  -10   16    7     -1.53     -2.17
   -8   16    7     -1.20      3.20
   -6   16    7      0.36     -3.23
   -4   16    7     -3.16      6.97
   -2   16    7      2.21     -4.35
    0   16    7     -2.77      2.50
    2   16    7      2.11     -2.27
    4   16    7      0.02      1.60
    6   16    7      0.28     -0.74
    8   16    7      0.26      0.82
   10   16    7      1.20     -3.57
   12   16    7      0.94      1.57
   14   16    7     -0.76     -1.00
  -21   15    7     -2.91     -1.00
  -19   15    7      1.58      2.79
  -17   15    7     -1.14     -4.46
  -15   15    7      3.21     -0.19
  -13   15    7     -0.58     -0.66
  -11   15    7     -1.98      1.34
   -9   15    7      1.56     -1.07
   -7   15    7     -0.69      2.56
   -5   15    7     -3.79      0.31
   -3   15    7     -1.61      2.03
   -1   15    7      1.40     -1.26
    1   15    7     -0.06     -1.55
    3   15    7      0.34      3.33
    5   15    7      4.51     -3.40
    9   15    7      3.92     -2.25
   11   15    7      1.88      0.36
   13   15    7     -0.21      2.43
   15   15    7     -2.43     -2.04
   17   15    7     -0.05      3.41
   19   15    7     -0.76     -2.62
  -24   14    7      1.14      2.06
  -22   14    7      0.85     -1.30
  -20   14    7     -0.61      2.77
  -18   14    7      0.53     -1.06
  -16   14    7     -0.11     -2.30
  -14   14    7      3.17      0.82
  -12   14    7     -3.55     -5.09
  -10   14    7      2.28      1.69
   -8   14    7     -2.45      1.42
   -6   14    7     -1.40      1.44
   -4   14    7     -3.13     -2.68
   -2   14    7      1.39      2.78
    0   14    7      0.04     -1.76
    2   14    7      2.39      1.62
    4   14    7     -0.56      0.62
    6   14    7      2.88     -1.54
    8   14    7     -1.78     -3.20
   10   14    7      2.83      3.10
   12   14    7     -0.48      1.65
   14   14    7     -1.11      0.14
   16   14    7     -1.34      0.97
   18   14    7     -0.77     -0.53
   20   14    7      0.78     -0.83
   22   14    7     -0.58     -0.99
  -27   13    7     -3.58     -2.22
  -25   13    7     -1.16      1.61
  -23   13    7      1.48      0.06
  -21   13    7      0.72      4.03
  -19   13    7      0.89     -0.62
  -17   13    7     -0.16     -1.60
  -15   13    7      2.16     -1.67
  -13   13    7     -1.20      0.12
  -11   13    7      2.42     -2.10
   -9   13    7     -2.36     -0.53
   -7   13    7     -0.13      0.52
   -5   13    7     -3.75     -1.20
   -3   13    7      3.93      0.69
   -1   13    7     -0.16      0.29
    1   13    7      0.53      1.76
    3   13    7      0.02     -1.17
    5   13    7     -0.05      1.48
    7   13    7      0.21     -4.59
    9   13    7     -2.52      1.72
   11   13    7      2.45      1.81
   13   13    7     -3.74     -1.05
   15   13    7      4.32      3.01
   17   13    7     -6.13     -1.82
   19   13    7      5.68      2.73
   21   13    7     -3.56     -3.26
   23   13    7      1.54      0.96
   25   13    7      0.06     -0.69
  -30   12    7     -1.36      2.94
  -28   12    7      0.64      0.21
  -26   12    7     -2.98     -3.54
  -24   12    7      0.14      1.60
  -22   12    7     -1.82      1.81
  -20   12    7      2.25      1.92
  -18   12    7      1.41     -1.94
  -16   12    7      4.03     -0.16
  -14   12    7     -1.88     -1.17
  -12   12    7     -0.78      0.65
  -10   12    7      2.06     -0.35
   -8   12    7     -0.06      0.76
   -6   12    7      0.07     -3.11
   -4   12    7     -0.03      2.15
   -2   12    7      3.46      0.57
    0   12    7      0.02      1.73
    2   12    7     -3.55     -2.79
    4   12    7      2.06      0.64
    6   12    7     -3.71     -1.03
    8   12    7     -2.10     -2.98
   10   12    7     -1.02      1.34
   12   12    7     -0.08      0.87
   14   12    7      4.33     -0.12
   16   12    7     -3.17     -0.35
   18   12    7      1.61      2.43
   20   12    7     -2.01     -0.32
   22   12    7      2.88      0.32
   24   12    7     -1.76     -1.30
   26   12    7      0.59      2.04
  -31   11    7      0.11     -0.94
  -29   11    7     -2.60      3.73
  -27   11    7      1.43     -2.57
  -25   11    7     -0.56     -1.89
  -23   11    7     -2.19     -0.74
  -21   11    7     -0.91     -0.67
  -19   11    7      2.46      0.93
  -17   11    7      2.59      1.81
  -15   11    7      2.29     -0.58
  -13   11    7     -0.68     -2.56
  -11   11    7     -1.99      3.55
   -9   11    7      2.51     -0.10
   -7   11    7     -0.20      2.96
   -5   11    7      2.91     -0.52
   -3   11    7      0.60      2.53
   -1   11    7     -0.11     -0.12
    1   11    7     -2.96     -3.49
    3   11    7      0.34     -1.82
    5   11    7     -1.49      0.56
    7   11    7     -2.02     -1.23
    9   11    7     -2.43     -3.35
   11   11    7      1.49      2.16
   13   11    7      0.46      0.50
   15   11    7      2.47      0.60
   17   11    7      1.25     -2.00
   19   11    7     -3.50      1.93
   21   11    7      1.34      1.01
   23   11    7     -1.23      0.05
   25   11    7     -0.14     -0.24
   27   11    7      1.03     -0.56
   29   11    7      0.19      1.80
  -34   10    7     -4.60      0.17
  -32   10    7      1.18      0.15
  -30   10    7     -2.72      1.89
  -28   10    7      1.71     -2.04
  -26   10    7      0.70      1.29
  -24   10    7     -0.31     -5.19
  -22   10    7      0.43     -0.26
  -20   10    7     -0.72     -2.98
  -18   10    7      1.01      1.83
  -16   10    7     -2.25      0.08
  -14   10    7      5.99      3.30
  -12   10    7     -1.80     -3.24
  -10   10    7      1.29      2.30
   -8   10    7     -0.84      4.13
   -6   10    7     -0.21      1.36
   -4   10    7     -0.93      3.77
   -2   10    7      0.77     -0.88
    0   10    7     -1.48     -5.34
    2   10    7     -0.90     -2.48
    4   10    7      1.33      2.43
    6   10    7     -2.24     -0.80
    8   10    7      2.91     -2.81
   10   10    7     -0.18      1.10
   12   10    7      0.82      1.99
   14   10    7     -2.68     -0.84
   16   10    7      3.44     -1.38
   18   10    7      0.37      1.69
   20   10    7     -2.51     -2.93
   22   10    7     -0.76      2.22
   24   10    7     -1.89     -1.17
   26   10    7      0.78     -0.35
   28   10    7     -0.38      2.42
   30   10    7      1.37     -2.57
  -35    9    7     -3.45      2.45
  -33    9    7     -1.28     -0.32
  -31    9    7     -0.72      0.95
  -29    9    7      1.99      0.77
  -27    9    7      2.05     -0.12
  -25    9    7     -0.83     -2.08
  -23    9    7      0.87     -0.84
  -21    9    7      0.60     -2.39
  -19    9    7     -0.29      1.89
  -17    9    7     -0.53     -9.00
  -15    9    7     -3.76      3.57
  -13    9    7      4.64      5.96
  -11    9    7      3.53     -1.87
   -9    9    7     -0.28      3.99
   -7    9    7     -5.74     -0.76
   -5    9    7     -0.76     -1.05
   -3    9    7     -2.29      1.44
   -1    9    7      2.40     -1.52
    1    9    7      0.82     -4.15
    3    9    7     -3.63      5.09
    5    9    7      1.68     -2.19
    7    9    7      6.60      2.07
    9    9    7      0.96     -1.43
   11    9    7     -0.86      7.64
   13    9    7     -1.75     -8.39
   15    9    7     -2.05      5.06
   17    9    7      2.78     -4.28
   19    9    7     -3.08      0.86
   21    9    7      1.08     -2.71
   23    9    7     -1.92     -0.96
   25    9    7     -0.30      0.10
   27    9    7     -1.96      0.19
   29    9    7      2.52      1.66
   31    9    7      1.87     -0.99
  -36    8    7     -1.38      2.06
  -34    8    7     -4.07     -2.39
  -32    8    7      1.79      0.91
  -30    8    7      0.06      0.93
  -28    8    7      1.40      5.08
  -26    8    7      0.86     -1.75
  -24    8    7     -0.24     -3.19
  -22    8    7     -1.07      4.64
  -20    8    7     -2.94     -4.90
  -18    8    7      2.56      0.06
  -16    8    7      4.55     -8.44
  -14    8    7     -3.73      2.64
  -12    8    7      0.04      8.90
  -10    8    7      2.06      3.08
   -8    8    7      0.16     -7.19
   -6    8    7     -5.22     -2.57
   -4    8    7      1.31     -3.61
   -2    8    7      3.48      2.90
    0    8    7     -1.80     -1.23
    2    8    7     -2.69      0.92
    4    8    7     -0.99      1.60
    6    8    7      5.14      5.57
    8    8    7      1.49      0.48
   10    8    7      1.00      2.10
   12    8    7     -3.22     -1.96
   14    8    7      3.29      0.06
   16    8    7     -6.33      0.34
   18    8    7      1.39     -2.87
   20    8    7     -0.98     -2.02
   22    8    7      2.28     -3.50
   24    8    7     -0.99      2.00
   26    8    7      1.66      0.69
   28    8    7     -3.30     -1.23
   30    8    7      2.65      4.28
   32    8    7      0.91     -2.71
  -37    7    7     -1.88      2.94
  -35    7    7     -0.17     -4.59
  -33    7    7      1.78     -2.18
  -31    7    7      1.03      2.58
  -29    7    7     -3.51      3.27
  -27    7    7     -0.68      2.37
  -25    7    7      3.00      0.78
  -23    7    7     -7.17     -1.00
  -21    7    7      1.93     -1.32
  -19    7    7     -4.68     -4.64
  -17    7    7     10.06      1.86
  -15    7    7      1.69      0.77
  -13    7    7      0.19      0.20
  -11    7    7    -10.42      4.28
   -9    7    7      8.54      0.26
   -7    7    7     -1.09     -5.72
   -5    7    7     -0.16     -9.54
   -3    7    7      4.96     10.99
   -1    7    7      4.22     -8.37
    1    7    7     -5.09      3.09
    3    7    7     -0.98     -3.84
    5    7    7     -5.07     11.35
    7    7    7     -3.15      0.10
    9    7    7      4.74     -1.93
   11    7    7     -1.10      1.99
   13    7    7      2.10     -1.01
   15    7    7     -1.25      1.79
   17    7    7     -3.27     -2.32
   19    7    7     -0.83     -1.82
   21    7    7      5.93     -2.74
   23    7    7     -0.75      1.23
   25    7    7      0.47      1.51
   27    7    7      0.06      2.07
   29    7    7     -1.79     -2.65
   31    7    7      1.52      2.36
   33    7    7     -1.03     -2.27
  -38    6    7      0.42     -0.59
  -36    6    7     -3.21     -0.95
  -34    6    7      8.39     -3.22
  -32    6    7     -2.47      1.69
  -30    6    7     -0.45      0.18
  -28    6    7     -2.97      2.91
  -26    6    7     -2.54      0.66
  -24    6    7     -2.15      0.85
  -22    6    7     -1.93     -6.14
  -20    6    7      1.47      1.99
  -18    6    7      2.23     -4.27
  -16    6    7      5.66      6.66
  -14    6    7     -6.55      1.27
  -12    6    7      7.53      3.48
  -10    6    7    -10.28     -4.18
   -8    6    7      6.69      5.33
   -6    6    7      1.19     -8.50
   -4    6    7      4.98     -0.48
   -2    6    7     -0.70      7.23
    0    6    7     11.23     -5.78
    2    6    7     -6.38     -5.96
    4    6    7     -8.60      5.73
    6    6    7     -7.04     -2.07
    8    6    7     -0.09     -0.97
   10    6    7      0.13      3.91
   12    6    7      2.71     -4.26
   14    6    7      0.65      4.43
   16    6    7      0.40     -0.37
   18    6    7     -2.12     -0.19
   20    6    7      4.05      0.29
   22    6    7      0.92      2.61
   24    6    7      0.75     -2.14
   26    6    7     -2.29      1.88
   28    6    7      0.33     -1.04
   30    6    7      2.32     -1.02
   32    6    7     -3.79      1.51
   34    6    7      1.83     -3.83
  -39    5    7     -3.03      3.12
  -37    5    7      3.29     -5.77
  -35    5    7      1.07      2.80
  -33    5    7     -1.86     -1.87
  -31    5    7      3.16      3.25
  -29    5    7     -2.61     -0.64
  -27    5    7     -0.07     -0.88
  -25    5    7     -4.99     -2.52
  -23    5    7      3.06     -2.36
  -21    5    7     -4.42      0.30
  -19    5    7      7.75     -0.09
  -17    5    7     -0.15      0.95
  -15    5    7      2.37     -1.75
  -13    5    7     -9.93      6.17
  -11    5    7      1.54      8.40
   -9    5    7      1.94     -2.53
   -7    5    7     -2.44     -6.46
   -5    5    7      6.75     10.76
   -3    5    7     -3.40    -15.17
   -1    5    7      9.48     19.25
    1    5    7      3.37    -18.02
    3    5    7     -5.33      4.95
    5    5    7     -4.01    -11.06
    7    5    7     -4.67      7.96
    9    5    7     -0.24     -9.17
   11    5    7     -4.60      5.04
   13    5    7      7.73     -0.60
   15    5    7     -5.35      1.96
   17    5    7      5.13      2.37
   19    5    7      1.19      3.95
   21    5    7     -2.57      4.38
   23    5    7      2.80     -2.06
   25    5    7     -2.93     -3.71
   27    5    7      0.84     -3.20
   29    5    7      2.05      2.68
   31    5    7     -2.71      0.19
   33    5    7      1.87     -3.22
   35    5    7     -1.65      2.27
  -38    4    7      4.13      4.61
  -36    4    7      0.89     -2.24
  -34    4    7     -2.17     -1.21
  -32    4    7     -2.97      1.39
  -30    4    7      1.44      4.37
  -28    4    7      4.26     -1.88
  -26    4    7      0.18     -3.82
  -24    4    7     -0.26     -6.29
  -22    4    7     -1.78      6.94
  -20    4    7      2.89     -4.01
  -18    4    7      4.08      0.80
  -16    4    7      0.47     -0.29
  -14    4    7      3.81     -2.26
  -12    4    7    -24.69      6.79
  -10    4    7      3.96      7.02
   -8    4    7      8.01      5.26
   -6    4    7     -9.28    -16.27
   -4    4    7      0.02     -1.41
   -2    4    7      5.93     12.47
    0    4    7      5.94     -8.79
    2    4    7      9.31      5.48
    4    4    7     -6.71     -9.23
    6    4    7      4.46      6.71
    8    4    7     -6.50     -7.86
   10    4    7      1.85     -0.69
   12    4    7     -6.13      2.05
   14    4    7     -3.10     -3.50
   16    4    7      6.42      5.39
   18    4    7      2.54      4.71
   20    4    7     -6.31      7.26
   22    4    7      0.63     -1.84
   24    4    7      0.01     -3.86
   26    4    7      3.85     -8.30
   28    4    7     -1.27      2.13
   30    4    7     -2.10     -0.35
   32    4    7      2.54      0.67
   34    4    7     -0.81      1.17
   36    4    7     -0.89     -0.53
  -39    3    7      1.81     -1.79
  -37    3    7      0.11      6.69
  -35    3    7     -2.20     -1.72
  -33    3    7      1.87     -2.23
  -31    3    7     -6.34      2.48
  -29    3    7      4.96      3.61
  -27    3    7      1.96      0.70
  -25    3    7      8.50     -7.40
  -23    3    7     -7.48      2.99
  -21    3    7      2.11      1.58
  -19    3    7      4.68     -1.81
  -17    3    7      5.60     -5.80
  -15    3    7     -4.47      8.67
  -13    3    7     -5.32     -6.53
  -11    3    7     -8.69      1.87
   -9    3    7    -15.39      9.71
   -7    3    7     14.51      0.18
   -5    3    7    -14.63    -33.65
   -3    3    7      9.71      9.31
   -1    3    7     -4.37      6.69
    1    3    7     34.72     10.82
    3    3    7    -10.93     -0.24
    5    3    7      4.72      3.47
    7    3    7     -9.96     -3.09
    9    3    7      6.73      5.80
   11    3    7     -9.45    -12.13
   13    3    7     -4.28     -2.96
   15    3    7      6.50      4.91
   17    3    7     -4.67      3.94
   19    3    7      0.82      6.28
   21    3    7     -3.95     -1.92
   23    3    7     -0.41     -4.65
   25    3    7      6.65      1.63
   27    3    7      0.60     -9.36
   29    3    7     -1.94      1.51
   31    3    7     -1.50     -1.46
   33    3    7      0.58      5.53
   35    3    7      0.42     -3.27
   37    3    7      0.85      3.32
  -40    2    7      5.01     -1.65
  -38    2    7     -2.95      4.28
  -36    2    7     -1.77     -0.76
  -34    2    7      0.59      1.19
  -32    2    7      0.53      0.95
  -30    2    7     -2.98      1.54
  -28    2    7      1.07      0.17
  -26    2    7      3.49      2.81
  -24    2    7      1.40      0.80
  -22    2    7     -3.94     -2.61
  -20    2    7      6.86      2.74
  -18    2    7      3.83     -3.64
  -16    2    7      2.03      0.01
  -14    2    7    -10.21     -2.98
  -12    2    7      0.02      6.04
  -10    2    7     -5.13     -5.02
   -8    2    7    -17.02      6.38
   -6    2    7     -2.01    -23.92
   -4    2    7     11.64    -13.19
   -2    2    7     11.97     -6.94
    0    2    7      8.20     30.91
    2    2    7     13.90     12.12
    4    2    7      2.19      4.73
    6    2    7    -23.26     -0.49
    8    2    7     -0.02     -1.84
   10    2    7     -5.83     -3.01
   12    2    7     12.93     -7.49
   14    2    7     -8.50      3.15
   16    2    7     -3.11     -0.27
   18    2    7     -0.17      4.67
   20    2    7     -3.12     -3.40
   22    2    7      4.27      0.30
   24    2    7     -1.76     -1.53
   26    2    7      5.24     -0.31
   28    2    7     -0.26     -5.79
   30    2    7      0.39      0.02
   32    2    7     -6.27      0.88
   34    2    7      4.80     -0.15
   36    2    7     -0.29      3.58
  -39    1    7     -0.13      4.67
  -37    1    7      0.28     -5.45
  -35    1    7     -0.11      4.04
  -33    1    7      0.64     -0.28
  -31    1    7     -3.53      2.32
  -29    1    7     -0.35      1.27
  -27    1    7     -0.44     -3.54
  -25    1    7     -3.82      7.17
  -23    1    7      1.31     -4.40
  -21    1    7      3.19      3.73
  -19    1    7      2.77     -2.23
  -17    1    7      3.97      1.58
  -15    1    7     -3.05     -6.44
  -13    1    7      0.12      1.72
  -11    1    7     -5.84      2.31
   -9    1    7     -9.35      7.22
   -7    1    7    -17.25    -13.90
   -5    1    7     20.65    -30.85
   -3    1    7     15.66     18.24
    1    1    7      6.59     18.65
    3    1    7     -6.54     11.01
    5    1    7    -21.55     20.10
    7    1    7     -5.68    -31.01
    9    1    7     -7.56      3.49
   11    1    7     11.46     10.05
   13    1    7     -1.49     -4.91
   15    1    7     -2.16     -7.00
   17    1    7     -3.86      8.41
   19    1    7      0.72     -6.95
   21    1    7     -1.63      1.71
   23    1    7      5.09      3.43
   25    1    7     -3.07     -6.15
   27    1    7      7.66      2.67
   29    1    7     -4.69     -3.17
   31    1    7      0.13     -0.46
   33    1    7     -2.85      0.80
   35    1    7      4.55     -0.71
   37    1    7      0.85      2.73
  -40    0    7     -1.41      0.32
  -38    0    7      0.89     -0.12
  -36    0    7      4.99     -1.03
  -34    0    7     -2.79      2.25
  -32    0    7     -1.60     -0.76
  -30    0    7     -2.92     -0.29
  -28    0    7     -1.08     -0.57
  -26    0    7     -4.65     -0.63
  -24    0    7      1.95      0.42
  -22    0    7     -2.87      0.09
  -20    0    7      4.30     -0.08
  -18    0    7      7.19      0.15
  -16    0    7     -6.84      0.19
  -14    0    7      8.85      0.16
  -12    0    7     -2.15      0.14
  -10    0    7    -14.94     -0.30
   -8    0    7    -24.21      0.61
   -6    0    7     28.81     -0.02
   -4    0    7     13.52     -0.82
   -2    0    7      2.73     -0.08
    0    0    7     44.61     -1.91
    2    0    7    -20.16      2.10
    4    0    7    -31.38     -0.53
    6    0    7     -6.21      0.01
    8    0    7      1.93      0.49
   10    0    7      1.39     -0.11
   12    0    7    -11.21      0.63
   14    0    7     16.56      0.46
   16    0    7     -7.52     -0.40
   18    0    7     -6.23      0.15
   20    0    7      7.30     -0.40
   22    0    7     -5.34      0.01
   24    0    7      4.72      0.15
   26    0    7      1.61      0.24
   28    0    7      2.28     -0.04
   30    0    7     -4.33     -0.33
   32    0    7      0.21     -0.20
   34    0    7     -0.03      0.60
   36    0    7      5.80     -0.85
   38    0    7     -1.44      0.09
   -1    1    7     19.26     -6.91
    7   15    7     -4.24      1.62
  -11   17    8     -1.15      0.96
   -9   17    8      0.65      1.78
   -7   17    8     -2.75     -2.24
   -5   17    8      1.82      3.30
   -3   17    8     -0.57     -2.04
   -1   17    8     -0.11      0.95
    1   17    8     -0.80     -1.41
    3   17    8      2.02      0.89
    5   17    8     -0.95      0.45
    7   17    8      1.06     -0.97
  -16   16    8      2.02     -0.09
  -14   16    8      0.33      0.70
  -12   16    8      0.15      2.06
  -10   16    8     -3.76      0.34
   -8   16    8      1.19     -0.78
   -6   16    8     -2.10      2.40
   -4   16    8      1.41      0.57
   -2   16    8     -0.37     -1.08
    0   16    8     -0.96     -2.11
    2   16    8      3.16      2.58
    4   16    8     -1.34     -2.93
    6   16    8      1.46      3.50
    8   16    8     -0.72     -3.86
   10   16    8      0.43     -0.42
   12   16    8      1.24      0.75
   14   16    8     -1.92      0.53
  -21   15    8      1.58      1.95
  -19   15    8     -0.57     -2.06
  -17   15    8      2.06     -0.62
  -15   15    8      2.18     -1.68
  -13   15    8     -5.64      3.47
  -11   15    8      1.71     -2.02
   -9   15    8     -2.57      2.50
   -7   15    8      1.69      0.99
   -5   15    8     -6.12      1.44
   -3   15    8      5.42     -0.66
   -1   15    8     -2.40     -1.90
    1   15    8      3.69     -0.73
    3   15    8      0.52      2.28
    5   15    8      1.94     -2.12
    7   15    8     -3.65      0.42
    9   15    8      4.66     -1.67
   11   15    8     -1.51      1.93
   13   15    8     -0.23      0.80
   15   15    8     -2.39     -0.12
   17   15    8      1.35      0.47
  -24   14    8     -1.02      0.61
  -22   14    8      2.28     -1.06
  -20   14    8     -1.33      1.77
  -18   14    8      1.17     -1.99
  -16   14    8      0.54     -0.26
  -14   14    8     -0.64     -2.09
  -12   14    8     -1.54     -2.00
  -10   14    8     -0.60      2.68
   -8   14    8     -1.45      1.79
   -6   14    8     -1.95      0.88
   -4   14    8     -0.38     -1.67
   -2   14    8      2.70      1.06
    0   14    8      1.99     -1.57
    2   14    8     -0.21      1.02
    4   14    8      2.80      1.84
    6   14    8     -2.94     -4.65
    8   14    8      1.73      2.21
   10   14    8      1.26      0.49
   12   14    8     -3.95      3.68
   14   14    8      2.68     -2.72
   16   14    8     -4.56      3.43
   18   14    8      4.12     -4.27
   20   14    8     -2.84      0.19
   22   14    8      2.40     -0.69
  -27   13    8     -3.18     -0.41
  -25   13    8      1.81     -0.50
  -23   13    8      2.14      2.72
  -21   13    8      1.22     -0.49
  -19   13    8     -1.05      1.19
  -17   13    8      0.78     -5.28
  -15   13    8     -0.79      1.85
  -13   13    8      0.90     -2.50
  -11   13    8     -0.04     -0.02
   -9   13    8     -1.94      0.36
   -7   13    8     -1.42      0.07
   -5   13    8     -0.39      1.44
   -3   13    8      2.77     -0.99
   -1   13    8      1.93      0.25
    1   13    8     -1.87      1.72
    3   13    8      0.03     -2.33
    5   13    8     -0.28      1.46
    7   13    8     -2.59     -2.86
    9   13    8      1.39      3.03
   11   13    8     -0.22      0.96
   13   13    8      0.97      0.05
   15   13    8     -2.82      2.09
   17   13    8      2.29     -0.83
   19   13    8     -1.24     -0.76
   21   13    8      2.12     -1.79
   23   13    8     -1.12      0.32
  -30   12    8     -0.28      3.50
  -28   12    8     -0.13     -3.77
  -26   12    8     -1.73     -0.84
  -24   12    8      3.53      2.01
  -22   12    8     -1.64      1.17
  -20   12    8      3.16      0.58
  -18   12    8      1.07     -3.18
  -16   12    8      0.74      0.30
  -14   12    8     -2.21     -0.38
  -12   12    8      0.10      1.02
  -10   12    8      1.57     -0.65
   -8   12    8     -0.52      1.11
   -6   12    8     -0.64     -2.96
   -4   12    8      1.37      3.56
   -2   12    8      2.60     -0.52
    0   12    8     -3.03     -1.15
    2   12    8     -1.92     -1.77
    4   12    8     -1.53      0.87
    6   12    8     -1.90     -1.43
    8   12    8     -3.33     -2.13
   10   12    8      4.26      4.92
   12   12    8      1.61     -1.65
   14   12    8      0.51      4.02
   16   12    8     -1.83     -4.79
   18   12    8     -0.51      6.41
   20   12    8      1.81     -5.30
   22   12    8      0.41      2.22
   24   12    8      0.44     -0.37
   26   12    8     -0.02     -0.03
  -31   11    8     -1.77      1.33
  -29   11    8      0.20      0.66
  -27   11    8      1.88     -3.78
  -25   11    8     -1.23     -0.07
  -23   11    8      0.65     -1.06
  -21   11    8      0.32      1.15
  -19   11    8      3.15     -0.09
  -17   11    8      1.13      2.23
  -15   11    8      0.90     -1.22
  -13   11    8     -4.01      0.81
  -11   11    8      2.42      1.74
   -9   11    8     -1.58      1.49
   -7   11    8      2.68     -0.05
   -5   11    8     -0.54      0.64
   -3   11    8      1.58      0.97
   -1   11    8     -2.98     -3.36
    1   11    8     -0.86     -4.42
    3   11    8     -1.73      0.91
    5   11    8     -2.37      0.08
    7   11    8     -0.55     -3.25
    9   11    8      0.64      1.78
   11   11    8      1.98      1.77
   13   11    8      1.42      2.54
   15   11    8      0.70     -2.16
   17   11    8     -0.72      0.02
   19   11    8     -2.23      0.76
   21   11    8      1.56      1.71
   23   11    8     -0.47     -1.52
   25   11    8      0.25      0.63
   27   11    8      1.95      0.61
  -32   10    8      0.55      1.34
  -30   10    8     -0.77      0.01
  -28   10    8      2.42     -2.08
  -26   10    8      1.05     -2.23
  -24   10    8     -0.97     -1.98
  -22   10    8      1.47     -1.43
  -20   10    8      1.36      0.76
  -18   10    8     -2.32      0.64
  -16   10    8      1.85      4.18
  -14   10    8      1.50      0.15
  -12   10    8     -2.78      0.23
  -10   10    8      2.51      1.92
   -8   10    8     -2.66      2.56
   -6   10    8     -1.58     -0.42
   -4   10    8      0.25      3.01
   -2   10    8     -0.08     -4.95
    0   10    8     -0.04     -5.62
    2   10    8      1.27      0.95
    4   10    8     -1.93      0.79
    6   10    8      1.57     -1.48
    8   10    8      1.04     -0.75
   10   10    8      1.43      3.92
   12   10    8     -3.73     -1.98
   14   10    8      1.71      2.07
   16   10    8      0.82     -3.10
   18   10    8     -0.63      1.48
   20   10    8     -1.28     -0.79
   22   10    8     -1.63      0.71
   24   10    8      0.61     -0.77
   26   10    8      0.49      1.91
   28   10    8      0.22      0.02
   30   10    8      0.82     -0.46
  -35    9    8     -3.66      0.04
  -33    9    8      1.90      1.21
  -31    9    8     -2.23     -0.39
  -29    9    8      5.76      0.08
  -27    9    8     -1.12     -2.35
  -25    9    8      0.54     -2.39
  -23    9    8      1.42     -0.39
  -21    9    8     -0.40     -0.75
  -19    9    8      1.06     -0.46
  -17    9    8     -2.54     -4.45
  -15    9    8     -2.59      7.63
  -13    9    8      6.33      2.21
  -11    9    8     -1.58      0.67
   -9    9    8     -0.84      0.27
   -7    9    8     -4.95     -1.89
   -5    9    8     -2.38     -0.51
   -3    9    8      0.45     -0.29
   -1    9    8      4.24     -0.57
    1    9    8     -0.76     -2.04
    3    9    8      1.07      4.36
    5    9    8      2.37     -2.75
    7    9    8      4.77      2.51
    9    9    8     -1.27      0.71
   11    9    8     -4.17      2.17
   13    9    8     -1.21     -6.58
   15    9    8     -0.51      2.75
   17    9    8      0.28     -1.92
   19    9    8      0.40     -1.01
   21    9    8     -1.66     -0.14
   23    9    8      0.05     -0.37
   25    9    8      0.53     -0.13
   27    9    8     -2.25      2.18
   29    9    8      5.35     -0.08
   31    9    8     -1.96      0.38
  -36    8    8     -4.41     -0.43
  -34    8    8     -0.76      0.10
  -32    8    8      1.33     -0.40
  -30    8    8      0.84      3.92
  -28    8    8      0.60     -0.20
  -26    8    8      1.83     -3.42
  -24    8    8     -1.90      1.71
  -22    8    8      1.22     -2.20
  -20    8    8     -3.82      0.90
  -18    8    8      8.31     -6.68
  -16    8    8     -2.58      0.21
  -14    8    8     -2.44      3.56
  -12    8    8      0.98      9.07
  -10    8    8      1.38     -6.16
   -8    8    8     -2.99     -4.34
   -6    8    8     -2.04     -3.40
   -4    8    8      1.54     -0.02
   -2    8    8      0.56      3.00
    0    8    8      1.91      2.96
    2    8    8     -6.16     -0.35
    4    8    8      7.56      4.04
    6    8    8      0.57      3.64
    8    8    8      1.53     -3.18
   10    8    8     -3.79      4.14
   12    8    8      2.37     -6.47
   14    8    8     -6.19      0.61
   16    8    8      1.61     -0.95
   18    8    8     -2.69     -2.30
   20    8    8      3.51     -2.21
   22    8    8     -0.01      0.23
   24    8    8      1.01      3.37
   26    8    8      0.27     -2.11
   28    8    8     -2.19      2.99
   30    8    8      3.62     -1.19
   32    8    8     -2.63      0.19
  -37    7    8     -2.44      2.20
  -35    7    8      1.21     -7.99
  -33    7    8      0.16      4.55
  -31    7    8     -0.78      0.81
  -29    7    8     -3.14      3.03
  -27    7    8      1.12      0.83
  -25    7    8      1.52     -0.45
  -23    7    8     -7.23     -0.64
  -21    7    8      5.55     -3.48
  -19    7    8      0.03     -1.63
  -17    7    8      7.86      2.71
  -15    7    8     -0.06      0.33
  -13    7    8     -6.12      1.01
  -11    7    8     -1.14      1.60
   -9    7    8      6.81     -3.67
   -7    7    8     -3.45     -8.94
   -5    7    8      2.35     -0.37
   -3    7    8      2.83      7.49
   -1    7    8      0.69     -2.44
    1    7    8     -6.89      1.55
    3    7    8     -1.46      4.50
    5    7    8     -3.44      4.42
    7    7    8      0.63     -3.03
    9    7    8      3.79      0.68
   11    7    8     -0.11     -0.98
   13    7    8      1.65      2.91
   15    7    8     -4.50     -5.73
   17    7    8     -1.78      0.93
   19    7    8      2.23     -4.67
   21    7    8      5.65      1.97
   23    7    8     -2.18      0.94
   25    7    8      1.04      5.18
   27    7    8     -1.22     -3.82
   29    7    8     -0.48     -0.39
   31    7    8      1.08      0.49
   33    7    8     -1.55     -2.51
  -38    6    8     -3.42     -2.57
  -36    6    8      5.33     -2.76
  -34    6    8      0.73      0.80
  -32    6    8     -1.68     -0.48
  -30    6    8     -3.35      2.83
  -28    6    8     -0.76     -0.33
  -26    6    8     -3.26      4.05
  -24    6    8     -2.21     -7.93
  -22    6    8      2.00      4.72
  -20    6    8      3.79     -6.26
  -18    6    8      4.14      8.04
  -16    6    8     -1.13     -1.33
  -14    6    8      0.73      6.07
  -12    6    8     -2.61     -5.03
  -10    6    8      2.57      1.81
   -8    6    8     -1.00     -3.87
   -6    6    8     11.94     -9.96
   -4    6    8    -11.38      7.83
   -2    6    8     14.32      3.70
    0    6    8     -9.53     -4.64
    2    6    8     -1.98      2.50
    4    6    8    -14.56     -1.94
    6    6    8      2.62      0.62
    8    6    8      1.63     -2.84
   10    6    8      1.53      5.67
   12    6    8      4.40     -1.47
   14    6    8     -1.72      4.21
   16    6    8      0.78     -3.67
   18    6    8     -1.22     -2.48
   20    6    8      4.96      4.44
   22    6    8     -0.43     -1.44
   24    6    8     -1.21      1.46
   26    6    8     -2.46      0.90
   28    6    8      3.39     -4.15
   30    6    8     -1.53      2.63
   32    6    8     -0.68     -3.64
   34    6    8      0.21      1.35
  -39    5    8      3.74     -0.53
  -37    5    8     -0.07     -3.47
  -35    5    8      1.81      2.19
  -33    5    8     -1.59     -0.83
  -31    5    8      1.31      1.41
  -29    5    8     -1.71     -1.02
  -27    5    8     -1.57     -1.61
  -25    5    8     -4.95     -3.69
  -23    5    8      4.58      0.77
  -21    5    8     -0.98      1.54
  -19    5    8      4.53      1.35
  -17    5    8      1.13      4.53
  -15    5    8     -4.71     -5.61
  -13    5    8     -3.06     17.25
  -11    5    8      0.17     -8.80
   -9    5    8      5.40      1.27
   -7    5    8     -0.19     -8.40
   -5    5    8      7.43      1.67
   -3    5    8     -2.91     -0.19
   -1    5    8      2.21      6.84
    1    5    8     -1.77     -5.98
    3    5    8     -8.75     -4.89
    5    5    8     -1.10     -2.22
    7    5    8     -0.07     -1.15
    9    5    8     -3.52      1.58
   11    5    8      5.49      0.59
   13    5    8     -1.46      6.99
   15    5    8      3.91     -0.44
   17    5    8      1.11      0.42
   19    5    8      0.96      5.85
   21    5    8     -2.13     -3.16
   23    5    8     -0.05     -1.75
   25    5    8     -2.76     -4.88
   27    5    8      2.73      1.17
   29    5    8     -0.19      2.88
   31    5    8     -1.26     -3.45
   33    5    8      2.07      1.20
   35    5    8     -1.58      0.65
  -38    4    8      5.66      1.54
  -36    4    8     -2.24      0.29
  -34    4    8     -1.66     -5.52
  -32    4    8     -0.12      8.18
  -30    4    8      4.56     -3.49
  -28    4    8      1.82     -0.29
  -26    4    8     -1.91     -9.83
  -24    4    8     -1.42      4.73
  -22    4    8      1.34     -0.62
  -20    4    8      1.86      3.96
  -18    4    8     -1.37     -4.70
  -16    4    8      2.73      6.07
  -14    4    8    -11.68      0.38
  -12    4    8     -9.27      4.99
  -10    4    8      5.25      7.14
   -8    4    8     12.76    -16.00
   -6    4    8    -14.03     -0.64
   -4    4    8     18.48     -2.39
   -2    4    8    -10.17     15.67
    0    4    8     11.62    -11.82
    2    4    8     -9.46      4.21
    4    4    8      7.85     -4.98
    6    4    8     -7.94      0.59
    8    4    8      5.47     -6.39
   10    4    8     -9.16      1.56
   12    4    8     -0.24      4.84
   14    4    8      3.86     -2.10
   16    4    8      2.27      9.71
   18    4    8      2.22      2.96
   20    4    8     -6.88     -0.81
   22    4    8      0.62     -3.66
   24    4    8      3.93     -9.05
   26    4    8     -2.48     -1.90
   28    4    8      0.45      5.04
   30    4    8     -2.32     -1.22
   32    4    8      5.71      2.73
   34    4    8     -4.24      0.11
   36    4    8      1.45      1.47
  -39    3    8     -0.21      6.15
  -37    3    8     -1.08      0.48
  -35    3    8      1.27     -1.37
  -33    3    8     -1.33     -1.77
  -31    3    8      0.95      4.64
  -29    3    8      4.64      0.69
  -27    3    8      2.85     -4.77
  -25    3    8      3.07     -4.45
  -23    3    8     -7.17      4.63
  -21    3    8      3.92      0.53
  -19    3    8      3.78     -4.40
  -17    3    8     -4.65     -1.62
  -15    3    8     -5.22      8.23
  -13    3    8    -10.28     -4.97
  -11    3    8     -6.47      1.69
   -9    3    8      3.19      6.34
   -7    3    8      8.86    -18.90
   -5    3    8      3.72     -7.38
   -3    3    8     -9.71     13.39
   -1    3    8     23.20     11.54
    1    3    8     -1.87     -0.13
    3    3    8     -2.69     -2.71
    5    3    8     -3.67      9.10
    7    3    8      0.75    -10.55
    9    3    8     -0.38      0.91
   11    3    8     -9.89     -8.90
   13    3    8      5.03      2.73
   15    3    8     -0.92      8.11
   17    3    8      1.80      4.83
   19    3    8     -4.94     -1.72
   21    3    8      0.61     -4.17
   23    3    8      2.53     -4.04
   25    3    8      5.24     -3.98
   27    3    8     -4.47     -2.81
   29    3    8     -0.31      1.33
   31    3    8     -0.17      6.18
   33    3    8      0.75     -0.62
   35    3    8      1.51      2.10
   37    3    8     -2.44     -0.02
  -40    2    8      3.96      1.81
  -38    2    8     -7.54      1.36
  -36    2    8      2.72      0.59
  -34    2    8      0.35      1.32
  -32    2    8      0.37      0.62
  -30    2    8      0.56      1.82
  -28    2    8     -0.47     -2.62
  -26    2    8      7.99      3.96
  -24    2    8     -5.29     -3.77
  -22    2    8      2.32      0.73
  -20    2    8      1.93     -0.93
  -18    2    8      4.77     -5.05
  -16    2    8    -11.18      2.32
  -14    2    8     -5.18     -2.71
  -12    2    8     -3.72      4.60
  -10    2    8     -4.89    -12.50
   -8    2    8      1.65     11.95
   -6    2    8      6.60    -30.40
   -4    2    8     16.62      6.21
   -2    2    8     -3.59      7.82
    0    2    8     14.13     29.01
    2    2    8     -9.38     -2.54
    4    2    8     -1.11      5.85
    6    2    8    -21.45     -8.75
    8    2    8      6.16      1.85
   10    2    8     10.34    -11.56
   12    2    8     -6.62     -2.20
   14    2    8     -3.13      8.27
   16    2    8     -0.08     -2.21
   18    2    8     -2.30      2.72
   20    2    8      1.32     -2.79
   22    2    8      5.89     -4.78
   24    2    8     -3.73      2.25
   26    2    8      8.97     -6.14
   28    2    8     -5.94     -0.64
   30    2    8     -0.16      1.48
   32    2    8     -2.41      3.99
   34    2    8      4.07     -0.15
   36    2    8      0.38      3.09
  -39    1    8     -1.99     -1.38
  -37    1    8      0.41     -2.20
  -35    1    8     -1.26      5.24
  -33    1    8     -0.10     -0.26
  -31    1    8     -2.30      0.87
  -29    1    8      1.56     -1.09
  -27    1    8     -2.03      1.32
  -25    1    8      0.88     -0.13
  -23    1    8      1.42      2.30
  -21    1    8      4.80     -3.61
  -19    1    8      1.81     -1.90
  -17    1    8     -2.90      1.52
  -15    1    8     -2.89     -3.75
  -13    1    8     -5.42     -2.63
  -11    1    8      2.70      2.35
   -9    1    8    -15.71      4.57
   -7    1    8     13.01    -20.13
   -5    1    8     18.48     -7.54
   -3    1    8     21.57     15.98
   -1    1    8     -7.55     -2.09
    1    1    8     -3.81     22.45
    3    1    8    -23.26     11.85
    5    1    8    -13.16    -11.33
    7    1    8      1.70    -12.19
    9    1    8      7.02      2.43
   11    1    8      7.08      8.29
   13    1    8     -5.38    -12.15
   15    1    8     -3.19      2.08
   17    1    8     -1.80      5.45
   19    1    8      2.40     -7.82
   21    1    8      3.38      4.46
   23    1    8      1.63     -3.34
   25    1    8      2.97     -0.31
   27    1    8      1.33     -1.95
   29    1    8     -2.63      0.75
   31    1    8     -2.39     -1.64
   33    1    8      2.93      4.47
   35    1    8      1.02     -2.16
   37    1    8      1.52      3.50
  -40    0    8     -2.65     -0.60
  -38    0    8      7.70      0.20
  -36    0    8     -7.08     -0.41
  -34    0    8      2.53      1.26
  -32    0    8     -5.36     -0.69
  -30    0    8     -0.95     -0.98
  -28    0    8      2.40      0.12
  -26    0    8     -6.60     -0.20
  -24    0    8      6.39      0.01
  -22    0    8     -1.18      1.15
  -20    0    8      8.24     -1.11
  -18    0    8     -1.51      0.97
  -16    0    8     -5.91      0.28
  -14    0    8      4.88     -0.67
  -12    0    8     -3.28      0.59
  -10    0    8    -10.11     -0.40
   -8    0    8    -14.81     -0.30
   -6    0    8     52.47      0.65
   -4    0    8     -6.15     -1.69
   -2    0    8     23.72     -0.61
    0    0    8     -8.41      1.23
    2    0    8    -26.06      0.40
    4    0    8    -41.47      0.99
    6    0    8     26.51     -0.81
    8    0    8     -0.23      0.35
   10    0    8     -4.77      0.72
   12    0    8      8.29     -0.63
   14    0    8      3.17      1.03
   16    0    8    -15.53     -1.06
   18    0    8     10.81     -0.16
   20    0    8     -2.42      0.07
   22    0    8      4.24     -0.08
   24    0    8      3.73     -0.10
   26    0    8      0.52      0.64
   28    0    8     -0.16     -1.27
   30    0    8     -1.80      0.79
   32    0    8     -1.41     -0.68
   34    0    8      5.41      0.15
   36    0    8     -0.72     -0.11
   -9   17    9     -1.75     -1.60
   -7   17    9      1.35      1.08
   -5   17    9      0.27     -0.67
   -3   17    9      0.62      0.14
   -1   17    9     -2.31     -0.35
    1   17    9      2.41     -0.52
    3   17    9     -0.96      1.10
    5   17    9      2.08     -0.43
  -16   16    9     -1.00      0.51
  -14   16    9      0.75      3.91
  -12   16    9     -3.40     -1.79
  -10   16    9     -1.63      2.06
   -8   16    9      2.56     -2.44
   -6   16    9     -1.47      3.87
   -4   16    9      2.83     -3.09
   -2   16    9     -1.98     -0.04
    0   16    9      0.98     -1.98
    2   16    9      1.73      2.27
    4   16    9     -0.71     -1.70
    6   16    9      0.21      2.27
    8   16    9     -1.14     -4.43
   10   16    9      1.06      2.16
   12   16    9      0.15     -0.51
  -21   15    9      1.85      2.28
  -19   15    9      1.03     -3.21
  -17   15    9      1.84      1.20
  -15   15    9     -3.35      0.19
  -13   15    9     -2.47      1.96
  -11   15    9     -1.15     -0.87
   -9   15    9      2.27      2.28
   -7   15    9     -2.31      0.57
   -5   15    9      0.81      0.49
   -3   15    9      2.57     -2.82
   -1   15    9      0.48     -2.01
    1   15    9      0.75      2.14
    3   15    9      3.25     -0.93
    5   15    9     -4.63      1.19
    7   15    9      1.38     -1.98
    9   15    9      0.35     -0.33
   11   15    9     -0.18      3.75
   13   15    9     -1.67     -2.49
   15   15    9      0.92      2.09
   17   15    9     -0.11     -3.13
  -24   14    9      0.93     -0.99
  -22   14    9     -0.54      0.08
  -20   14    9      2.15      1.23
  -18   14    9     -2.32     -2.02
  -16   14    9      2.10      1.32
  -14   14    9     -4.60     -4.40
  -12   14    9      1.77      2.65
  -10   14    9     -2.72      2.29
   -8   14    9      0.83      1.60
   -6   14    9     -1.33     -0.56
   -4   14    9      2.71     -0.58
   -2   14    9      1.91     -2.78
    0   14    9      2.49      1.62
    2   14    9     -2.28      0.44
    4   14    9      1.87      0.55
    6   14    9     -3.93     -2.58
    8   14    9      3.00      2.21
   10   14    9     -1.86      1.22
   12   14    9     -0.80      1.16
   14   14    9      0.29     -0.45
   16   14    9      0.22     -0.72
   18   14    9      0.27     -2.24
   20   14    9     -0.14     -0.50
  -27   13    9     -0.11      1.51
  -25   13    9      2.66     -2.45
  -23   13    9      1.70      3.61
  -21   13    9     -0.11     -1.05
  -19   13    9     -2.38     -1.08
  -17   13    9     -0.09     -1.97
  -15   13    9     -0.23     -0.35
  -13   13    9      0.59      0.68
  -11   13    9     -1.14     -0.71
   -9   13    9     -0.23      2.04
   -7   13    9     -2.90      0.69
   -5   13    9      3.94     -0.18
   -3   13    9      1.32     -1.15
   -1   13    9      1.24     -0.14
    1   13    9     -3.00      0.77
    3   13    9     -0.28     -0.04
    5   13    9     -0.82     -1.15
    7   13    9     -2.41      1.77
    9   13    9      4.97      1.06
   11   13    9     -3.03     -0.14
   13   13    9      3.39      3.01
   15   13    9     -6.00     -2.28
   17   13    9      6.29      0.85
   19   13    9     -3.72     -4.17
   21   13    9      3.29      1.43
   23   13    9     -0.71     -0.95
  -30   12    9      2.10     -0.12
  -28   12    9     -2.17     -3.74
  -26   12    9      3.64      0.77
  -24   12    9     -0.09      1.56
  -22   12    9      1.86      0.96
  -20   12    9     -2.50     -0.96
  -18   12    9      2.98     -2.38
  -16   12    9     -3.42      0.92
  -14   12    9     -0.73      1.09
  -12   12    9      1.31     -0.62
  -10   12    9     -0.17      1.57
   -8   12    9      0.38     -1.59
   -6   12    9     -2.39      0.37
   -4   12    9      5.15      0.57
   -2   12    9     -1.48     -0.27
    0   12    9     -3.78     -3.89
    2   12    9     -0.55      1.84
    4   12    9     -2.72      0.98
    6   12    9     -1.12     -2.97
    8   12    9      2.36      3.33
   10   12    9      4.21      1.73
   12   12    9      0.91      2.43
   14   12    9     -2.75     -3.02
   16   12    9     -1.16      2.01
   18   12    9      0.91     -2.62
   20   12    9      2.52      0.81
   22   12    9     -0.40     -1.09
   24   12    9      0.67      1.87
   26   12    9     -0.18     -1.63
  -31   11    9     -0.60      1.51
  -29   11    9      1.74     -2.46
  -27   11    9      0.84     -3.53
  -25   11    9      0.23      2.86
  -23   11    9      0.53     -2.48
  -21   11    9      0.21      2.81
  -19   11    9      1.38      0.33
  -17   11    9     -0.33      0.99
  -15   11    9     -2.48      0.75
  -13   11    9     -0.85      0.21
  -11   11    9      0.73      1.04
   -9   11    9     -0.43     -0.34
   -7   11    9      0.84      0.12
   -5   11    9      0.58     -0.66
   -3   11    9     -0.14      0.16
   -1   11    9     -1.68     -6.25
    1   11    9     -1.44     -1.01
    3   11    9     -2.44      2.82
    5   11    9     -1.00     -1.08
    7   11    9      2.80     -1.29
    9   11    9      1.62      5.50
   11   11    9      1.64      0.56
   13   11    9     -0.66      1.18
   15   11    9      0.81     -3.66
   17   11    9     -3.54      1.10
   19   11    9      2.85     -0.27
   21   11    9     -0.76      1.63
   23   11    9      0.48     -1.22
   25   11    9      1.53      0.71
   27   11    9     -0.81      1.37
  -32   10    9     -0.28      1.74
  -30   10    9      1.51     -3.06
  -28   10    9      1.74     -1.96
  -26   10    9      0.17     -2.58
  -24   10    9     -0.08     -0.14
  -22   10    9      0.97      0.78
  -20   10    9      0.32      0.81
  -18   10    9     -3.22      3.05
  -16   10    9      1.56      3.75
  -14   10    9     -1.67     -2.21
  -12   10    9      0.36      2.91
  -10   10    9     -0.02     -2.67
   -8   10    9     -2.14      1.86
   -6   10    9     -1.27     -0.59
   -4   10    9     -0.25      0.35
   -2   10    9      4.29     -6.29
    0   10    9     -1.75     -1.83
    2   10    9      2.02      0.85
    4   10    9     -3.06      2.03
    6   10    9      3.46     -1.67
    8   10    9     -0.77      2.94
   10   10    9      0.00      1.86
   12   10    9     -2.66     -2.02
   14   10    9      1.03      0.35
   16   10    9      2.06     -1.41
   18   10    9     -2.20     -0.08
   20   10    9      0.47      1.68
   22   10    9     -0.98     -1.30
   24   10    9      0.72      1.19
   26   10    9      0.49      2.23
   28   10    9      0.15     -1.61
   30   10    9      0.74      0.44
  -35    9    9      0.66      0.48
  -33    9    9     -0.33     -0.14
  -31    9    9      2.23     -0.46
  -29    9    9      1.94     -2.69
  -27    9    9      0.77     -2.18
  -25    9    9     -0.40     -1.75
  -23    9    9      1.33      0.73
  -21    9    9     -0.24      1.66
  -19    9    9     -1.10     -3.61
  -17    9    9     -3.31      3.65
  -15    9    9     -0.07      4.22
  -13    9    9      3.52      1.24
  -11    9    9     -1.11     -0.85
   -9    9    9     -2.91     -1.28
   -7    9    9     -1.79     -4.25
   -5    9    9     -4.41      2.85
   -3    9    9      6.43     -0.99
   -1    9    9      3.40     -0.98
    1    9    9     -0.45      3.02
    3    9    9      1.98     -2.04
    5    9    9      2.22      2.36
    7    9    9     -1.26     -0.91
    9    9    9     -1.98      3.86
   11    9    9     -4.31     -6.65
   13    9    9     -1.64      1.90
   15    9    9      3.85     -3.79
   17    9    9     -1.78      3.50
   19    9    9      2.39     -1.89
   21    9    9     -2.74      0.78
   23    9    9      2.66      0.23
   25    9    9     -3.05     -0.06
   27    9    9      2.84      2.37
   29    9    9      0.69     -1.33
   31    9    9      0.02      1.97
  -36    8    9     -3.65     -2.40
  -34    8    9      2.13      2.90
  -32    8    9     -0.06     -2.48
  -30    8    9      1.40      4.29
  -28    8    9      1.54     -4.60
  -26    8    9      0.65     -1.84
  -24    8    9     -0.32      3.59
  -22    8    9     -0.01     -4.43
  -20    8    9     -0.75      0.38
  -18    8    9      5.85     -2.54
  -16    8    9     -5.79     -0.77
  -14    8    9     -0.36     10.85
  -12    8    9      0.63     -4.19
  -10    8    9      1.36     -1.24
   -8    8    9     -4.10     -7.24
   -6    8    9      0.23      1.69
   -4    8    9      0.66      1.45
   -2    8    9      2.52      5.92
    0    8    9     -1.33      0.49
    2    8    9      0.77      2.29
    4    8    9      4.19     -0.45
    6    8    9     -1.22      1.87
    8    8    9     -0.81     -2.09
   10    8    9     -4.45     -1.03
   12    8    9      2.55     -4.20
   14    8    9     -6.82     -0.71
   16    8    9      4.35      0.65
   18    8    9     -0.56     -1.35
   20    8    9      2.69     -0.27
   22    8    9     -0.54      2.52
   24    8    9      3.33      0.90
   26    8    9     -4.54     -1.82
   28    8    9      2.78      2.11
   30    8    9     -0.44     -1.83
   32    8    9     -1.34      1.18
  -37    7    9     -0.70     -4.65
  -35    7    9      0.78     -0.65
  -33    7    9     -1.35      2.61
  -31    7    9     -1.30      2.70
  -29    7    9     -1.19     -1.89
  -27    7    9      5.08      3.27
  -25    7    9     -6.73     -2.55
  -23    7    9      5.84     -0.34
  -21    7    9     -2.95     -4.85
  -19    7    9     10.91      2.59
  -17    7    9     -4.73      1.33
  -15    7    9      3.32     -0.32
  -13    7    9    -10.67      1.57
  -11    7    9      9.09     -3.51
   -9    7    9     -1.59     -2.77
   -7    7    9     -1.52     -7.82
   -5    7    9      1.84     10.00
   -3    7    9      1.53      1.65
   -1    7    9     -4.65      4.87
    1    7    9     -2.31     -3.24
    3    7    9     -2.96      7.34
    5    7    9      1.49     -3.55
    7    7    9      1.72     -3.58
    9    7    9      0.63      3.56
   11    7    9      3.29     -1.43
   13    7    9     -4.45     -2.05
   15    7    9     -1.56     -2.49
   17    7    9     -1.95     -1.84
   19    7    9      7.94      0.67
   21    7    9      0.00      1.89
   23    7    9     -1.13      3.22
   25    7    9      2.03      1.08
   27    7    9     -4.45     -5.77
   29    7    9      3.80      1.67
   31    7    9     -2.87     -1.71
   33    7    9      0.78      1.39
  -38    6    9     -1.96     -2.43
  -36    6    9      6.36     -2.09
  -34    6    9     -4.98      1.65
  -32    6    9     -1.26      1.23
  -30    6    9     -1.25      0.26
  -28    6    9     -0.98      1.89
  -26    6    9     -2.77      1.15
  -24    6    9      0.65     -6.72
  -22    6    9      5.03      5.05
  -20    6    9      4.56     -1.28
  -18    6    9      0.63      3.38
  -16    6    9     -2.98      1.91
  -14    6    9      2.19     -1.74
  -12    6    9     -3.67     -2.20
  -10    6    9      5.51     -1.59
   -8    6    9     -0.52     -7.48
   -6    6    9      4.26     -1.83
   -4    6    9     -7.46     11.24
   -2    6    9      5.77      3.24
    0    6    9     -8.45     -3.28
    2    6    9     -7.76     -0.14
    4    6    9     -2.09     -0.90
    6    6    9      4.16     -5.63
    8    6    9      4.52      6.29
   10    6    9      0.21      0.66
   12    6    9      2.61      4.82
   14    6    9     -0.57     -5.09
   16    6    9     -3.60     -2.94
   18    6    9      5.59     -0.32
   20    6    9     -0.76      3.63
   22    6    9      1.35     -0.37
   24    6    9     -4.66      2.25
   26    6    9      2.54     -3.89
   28    6    9      1.61     -0.53
   30    6    9     -2.77     -0.45
   32    6    9      1.78     -0.47
   34    6    9     -1.69      1.11
  -39    5    9      2.78     -4.53
  -37    5    9      3.13      0.81
  -35    5    9     -5.67     -0.09
  -33    5    9      4.98      0.14
  -31    5    9     -4.34      0.06
  -29    5    9      2.28      0.26
  -27    5    9     -7.69     -3.38
  -25    5    9      4.21     -0.48
  -23    5    9     -1.79      2.19
  -21    5    9      7.68      3.26
  -19    5    9     -5.09      3.52
  -17    5    9      4.77     -2.04
  -15    5    9     -7.40      4.30
  -13    5    9     -0.08      1.68
  -11    5    9      4.98     -2.56
   -9    5    9     -0.14    -12.80
   -7    5    9      9.71      6.64
   -5    5    9     -6.21    -10.20
   -3    5    9      0.09     19.40
   -1    5    9     -5.35     -7.21
    1    5    9     -4.94      2.14
    3    5    9     -0.09    -13.00
    5    5    9     -0.93      4.83
    7    5    9      4.23     -3.66
    9    5    9     -2.58      5.84
   11    5    9      4.84      4.83
   13    5    9     -0.99      1.17
   15    5    9      3.53      1.05
   17    5    9      1.62     -3.72
   19    5    9     -4.07      4.29
   21    5    9      1.10     -4.72
   23    5    9     -3.43     -3.16
   25    5    9     -0.81      0.42
   27    5    9      5.96      1.51
   29    5    9     -4.73      1.64
   31    5    9      3.55     -3.57
   33    5    9     -1.87      3.24
   35    5    9      1.36     -0.11
  -38    4    9      1.34     -1.10
  -36    4    9     -1.68     -2.53
  -34    4    9     -0.82     -0.01
  -32    4    9      2.93      3.14
  -30    4    9      3.25     -2.78
  -28    4    9     -2.33     -2.81
  -26    4    9     -2.96     -6.35
  -24    4    9      0.16      8.41
  -22    4    9      1.73      0.87
  -20    4    9     -0.98     -1.60
  -18    4    9     -4.09      4.49
  -16    4    9      3.16     -0.58
  -14    4    9    -15.18      6.62
  -12    4    9      4.71     -4.11
  -10    4    9      7.95      0.53
   -8    4    9      6.57    -15.33
   -6    4    9     -1.88      4.07
   -4    4    9      3.50     10.47
   -2    4    9     -4.53     -0.63
    0    4    9     -5.96     -1.92
    2    4    9      2.65     -2.03
    4    4    9      5.06     -2.27
    6    4    9     -3.29     -2.69
    8    4    9     -0.71     -3.34
   10    4    9     -2.17      7.71
   12    4    9     -1.62      0.50
   14    4    9      7.23      5.29
   16    4    9      1.68      2.47
   18    4    9     -5.48      0.33
   20    4    9     -0.52     -5.82
   22    4    9     -0.01     -6.40
   24    4    9      1.87     -4.47
   26    4    9     -2.37      4.91
   28    4    9     -0.18      3.53
   30    4    9      3.31      0.17
   32    4    9     -0.33      1.85
   34    4    9     -0.51     -0.05
   36    4    9     -1.63      1.35
  -39    3    9     -0.96      5.80
  -37    3    9     -0.32     -2.77
  -35    3    9      4.17     -2.68
  -33    3    9     -2.79      2.03
  -31    3    9      6.13      1.59
  -29    3    9     -1.04     -1.05
  -27    3    9      4.54     -7.61
  -25    3    9     -6.93      1.96
  -23    3    9      1.29      4.18
  -21    3    9     -0.97     -0.26
  -19    3    9      0.90     -8.28
  -17    3    9     -7.59      8.94
  -15    3    9     -8.24      0.57
  -13    3    9      0.63     -1.07
  -11    3    9     -6.40     -2.91
   -9    3    9     23.84      0.83
   -7    3    9     -3.90    -16.49
   -5    3    9      5.18     12.69
   -3    3    9     -9.75     12.51
   -1    3    9     15.28     -0.69
    1    3    9    -13.01     -2.35
    3    3    9      2.67      0.03
    5    3    9     -2.17      3.58
    7    3    9      6.79     -9.19
    9    3    9     -8.84     -5.59
   11    3    9     -4.60      3.66
   13    3    9     10.02      4.86
   15    3    9     -6.80      4.56
   17    3    9      4.03      2.73
   19    3    9     -4.06     -7.66
   21    3    9      1.24     -5.86
   23    3    9      5.76      0.01
   25    3    9     -1.23     -6.75
   27    3    9     -4.70      6.20
   29    3    9      2.23      1.91
   31    3    9      0.85      7.34
   33    3    9     -0.30     -3.58
   35    3    9      0.30      2.18
  -40    2    9     -3.97      2.00
  -38    2    9     -1.74     -0.48
  -36    2    9      3.84      2.61
  -34    2    9      1.37     -1.66
  -32    2    9      0.09      2.57
  -30    2    9      0.81     -1.99
  -28    2    9      0.79     -1.29
  -26    2    9      3.23      0.92
  -24    2    9     -2.97     -1.27
  -22    2    9     -1.22     -1.63
  -20    2    9      3.56     -0.75
  -18    2    9     -4.34     -4.89
  -16    2    9     -8.40      4.30
  -14    2    9     -7.21      0.18
  -12    2    9      6.34     -7.21
  -10    2    9      1.18      4.94
   -8    2    9      9.84     -6.62
   -6    2    9      8.88     -2.21
   -4    2    9      1.16     -1.91
   -2    2    9     -6.60     30.54
    0    2    9      4.33     -3.72
    2    2    9     -9.32      0.69
    4    2    9    -10.21      0.84
    6    2    9      0.53     -8.80
    8    2    9      9.69     -0.49
   10    2    9      1.37    -12.60
   12    2    9     -7.01     10.24
   14    2    9     -2.63      0.36
   16    2    9      4.10      2.55
   18    2    9     -2.51     -3.40
   20    2    9      5.59     -3.76
   22    2    9      1.12     -1.22
   24    2    9      2.11     -2.24
   26    2    9      1.11     -1.91
   28    2    9     -4.02      2.28
   30    2    9     -2.38      4.91
   32    2    9      3.57      1.66
   34    2    9     -0.90      1.40
   36    2    9      1.33     -1.28
  -39    1    9     -1.55     -7.45
  -37    1    9     -0.48      7.87
  -35    1    9      0.65     -2.24
  -33    1    9     -0.55      2.90
  -31    1    9     -0.22     -1.73
  -29    1    9      1.00     -3.23
  -27    1    9     -1.16      5.45
  -25    1    9      2.29     -4.29
  -23    1    9      2.46      3.58
  -21    1    9      0.92     -7.47
  -19    1    9      0.46      0.96
  -17    1    9     -8.75      3.09
  -15    1    9      0.71     -7.33
  -13    1    9     -2.88      1.54
  -11    1    9      7.67     -3.07
   -9    1    9    -11.58     14.68
   -7    1    9     27.02    -30.75
   -5    1    9      9.95     20.97
   -3    1    9     -2.07     -2.20
   -1    1    9    -12.14     14.32
    1    1    9    -17.45      3.46
    3    1    9    -12.72     13.37
    5    1    9     -1.01    -29.30
    7    1    9     11.45      3.32
    9    1    9      8.88      8.83
   11    1    9     -2.15    -10.51
   13    1    9     -7.32     -0.27
   15    1    9     -0.14      6.32
   17    1    9      2.84     -4.94
   19    1    9      1.88      0.81
   21    1    9      7.28     -1.20
   23    1    9     -1.73     -2.84
   25    1    9      4.29      2.18
   27    1    9     -2.95     -2.91
   29    1    9     -2.51      2.51
   31    1    9     -0.78      1.37
   33    1    9      3.37      1.38
   35    1    9     -0.58      0.96
   37    1    9     -0.33     -0.44
  -40    0    9      2.66     -0.09
  -38    0    9      2.32     -0.65
  -36    0    9     -8.08      1.04
  -34    0    9      4.48     -0.46
  -32    0    9     -4.41     -0.50
  -30    0    9      1.78     -0.46
  -28    0    9     -0.54      0.02
  -26    0    9      1.82      0.57
  -24    0    9     -1.50      0.05
  -22    0    9      9.08      0.64
  -20    0    9     -1.10     -0.42
  -18    0    9     -6.05      0.41
  -16    0    9     -4.77      0.33
  -14    0    9      9.52     -0.83
  -12    0    9     -1.36      0.19
  -10    0    9    -16.60     -0.36
   -8    0    9     21.10      0.05
   -6    0    9     25.26     -0.42
   -4    0    9     -3.45     -0.26
   -2    0    9     -0.37     -1.13
    0    0    9    -23.26      3.63
    2    0    9    -33.83     -1.02
    4    0    9     -0.34      0.50
    6    0    9     24.14     -0.34
    8    0    9      0.63     -0.39
   10    0    9     -3.33      0.58
   12    0    9      7.41     -0.18
   14    0    9     -5.80     -0.25
   16    0    9     -7.93     -0.31
   18    0    9     13.68     -0.60
   20    0    9     -0.72      0.45
   22    0    9      5.00     -0.13
   24    0    9      1.84     -0.08
   26    0    9     -1.14     -0.10
   28    0    9     -2.02     -0.21
   30    0    9     -0.34      0.02
   32    0    9     -1.27      0.10
   34    0    9      5.57     -0.25
   36    0    9     -4.39      0.42
   -9   17   10     -0.29     -2.68
   -7   17   10      1.44      1.96
   -5   17   10      1.22     -1.44
   -3   17   10     -2.21      0.36
   -1   17   10     -0.05      0.10
    1   17   10      1.41     -0.35
    3   17   10      0.05      0.81
    5   17   10      1.15     -0.52
  -16   16   10     -1.45      1.96
  -14   16   10     -0.92      0.76
  -12   16   10     -2.74      0.33
  -10   16   10      2.34     -2.86
   -8   16   10      1.09      2.96
   -6   16   10      1.57     -1.64
   -4   16   10     -0.51     -0.70
   -2   16   10     -1.00     -2.11
    0   16   10      1.40      1.70
    2   16   10     -0.12     -0.98
    4   16   10      0.33      2.51
    6   16   10     -1.49     -2.13
    8   16   10     -0.44     -0.71
   10   16   10      1.98      0.83
   12   16   10     -0.78      0.48
  -21   15   10      2.20     -1.25
  -19   15   10      0.52      0.72
  -17   15   10      0.21     -0.49
  -15   15   10     -6.93      3.06
  -13   15   10      2.42     -1.51
  -11   15   10     -1.00      1.30
   -9   15   10      3.23      0.78
   -7   15   10     -1.82     -0.06
   -5   15   10      3.32     -1.48
   -3   15   10     -0.62     -2.94
   -1   15   10      1.91     -0.54
    1   15   10     -1.10      2.89
    3   15   10      1.30     -1.04
    5   15   10     -5.13      1.18
    7   15   10      2.60     -2.03
    9   15   10     -0.90      1.30
   11   15   10      1.29      1.83
   13   15   10     -1.45     -1.89
   15   15   10      2.42      0.10
   17   15   10     -2.09     -1.18
  -24   14   10      2.35     -0.90
  -22   14   10     -1.04      1.07
  -20   14   10      1.72      0.71
  -18   14   10     -2.29      0.18
  -16   14   10     -1.13     -2.28
  -14   14   10     -0.47      0.87
  -12   14   10     -0.79      1.22
  -10   14   10      1.48      3.29
   -8   14   10     -0.81     -0.51
   -6   14   10      1.53     -2.09
   -4   14   10      2.48     -1.01
   -2   14   10      1.24     -2.76
    0   14   10     -0.52      3.02
    2   14   10     -1.13      1.11
    4   14   10     -2.49     -1.75
    6   14   10     -0.05      0.92
    8   14   10      1.55     -0.23
   10   14   10     -2.66      2.94
   12   14   10      3.28     -1.92
   14   14   10     -2.46      1.36
   16   14   10      3.09     -3.56
   18   14   10     -3.17      0.23
   20   14   10      2.07     -0.40
  -27   13   10      1.82     -1.19
  -25   13   10      1.68      1.27
  -23   13   10      1.18     -0.05
  -21   13   10     -3.21      3.24
  -19   13   10     -1.20     -5.84
  -17   13   10     -1.28      3.10
  -15   13   10      2.02     -2.23
  -13   13   10     -0.50      2.89
  -11   13   10     -0.50     -0.63
   -9   13   10      0.47      1.67
   -7   13   10     -1.92      0.64
   -5   13   10      5.07     -3.44
   -3   13   10      1.19     -0.25
   -1   13   10     -2.99      0.88
    1   13   10     -0.92     -0.31
    3   13   10     -1.16      1.92
    5   13   10     -1.72     -1.71
    7   13   10      2.69      2.94
    9   13   10      1.44     -1.15
   11   13   10      0.49      2.01
   13   13   10     -2.97     -0.57
   15   13   10      1.60     -0.19
   17   13   10     -0.67     -3.85
   19   13   10      1.86      0.58
   21   13   10     -0.33     -0.50
   23   13   10      0.45      1.27
  -28   12   10     -1.30     -1.93
  -26   12   10      4.97      1.58
  -24   12   10     -3.08      1.39
  -22   12   10      0.31      1.57
  -20   12   10     -2.53     -2.82
  -18   12   10     -0.01     -0.10
  -16   12   10     -1.03      1.41
  -14   12   10     -1.06      0.13
  -12   12   10      2.91      0.27
  -10   12   10     -1.01      0.90
   -8   12   10     -0.57     -2.40
   -6   12   10      0.92      1.19
   -4   12   10      4.00     -1.05
   -2   12   10     -3.55     -1.72
    0   12   10     -3.47     -1.18
    2   12   10      0.45      3.58
    4   12   10     -2.04     -0.08
    6   12   10      1.11     -1.98
    8   12   10      6.61      5.49
   10   12   10      0.12     -0.72
   12   12   10     -1.53      2.18
   14   12   10     -3.55     -6.22
   16   12   10      0.81      3.89
   18   12   10      1.80     -5.47
   20   12   10      2.11      3.54
   22   12   10     -1.08     -0.44
   24   12   10     -0.05     -0.21
  -31   11   10      0.61      0.44
  -29   11   10      0.88     -4.90
  -27   11   10      0.58      0.52
  -25   11   10     -0.60      1.65
  -23   11   10      0.25      0.70
  -21   11   10     -2.58      0.43
  -19   11   10      1.73      2.58
  -17   11   10     -3.05     -0.96
  -15   11   10     -1.54      1.04
  -13   11   10      2.42     -0.83
  -11   11   10     -2.33     -0.38
   -9   11   10      2.42     -0.53
   -7   11   10     -0.69     -1.10
   -5   11   10      2.21      2.10
   -3   11   10     -0.78     -5.20
   -1   11   10     -0.56     -1.79
    1   11   10     -3.54      1.70
    3   11   10     -0.61      2.81
    5   11   10      1.87     -1.55
    7   11   10      3.43      3.02
    9   11   10      1.93      3.44
   11   11   10     -2.64     -1.28
   13   11   10      1.33     -1.06
   15   11   10     -3.23     -4.06
   17   11   10      1.92      1.87
   19   11   10      0.83      0.36
   21   11   10     -0.11      0.43
   23   11   10      0.25      0.59
   25   11   10      0.78      0.09
   27   11   10     -1.50      0.70
  -32   10   10      0.82     -0.31
  -30   10   10      0.14     -3.90
  -28   10   10      2.78     -2.66
  -26   10   10     -3.85      0.59
  -24   10   10      3.43      1.11
  -22   10   10     -2.96      1.93
  -20   10   10     -0.30      1.52
  -18   10   10     -2.51      3.17
  -16   10   10     -0.42      0.53
  -14   10   10      0.49     -1.23
  -12   10   10      0.73     -1.07
  -10   10   10      0.24     -1.88
   -8   10   10     -3.69     -0.58
   -6   10   10      2.06      2.94
   -4   10   10      0.75     -3.62
   -2   10   10      4.64     -2.94
    0   10   10     -1.27      0.29
    2   10   10     -2.46      1.95
    4   10   10      1.22      0.85
    6   10   10      0.01      1.97
    8   10   10     -0.24      1.17
   10   10   10     -1.14     -0.51
   12   10   10     -0.51     -1.13
   14   10   10      0.92     -2.47
   16   10   10      1.59      1.33
   18   10   10      0.00     -0.24
   20   10   10     -1.84      1.69
   22   10   10      1.41     -1.57
   24   10   10     -0.90      3.52
   26   10   10      0.36     -0.64
   28   10   10      0.52     -0.85
  -35    9   10      2.59      0.41
  -33    9   10     -2.20     -0.78
  -31    9   10      4.69     -2.51
  -29    9   10     -1.03     -3.48
  -27    9   10      1.04     -0.56
  -25    9   10      0.72     -0.06
  -23    9   10     -1.76      2.39
  -21    9   10      0.50      1.47
  -19    9   10     -2.74     -2.27
  -17    9   10     -3.82      5.03
  -15    9   10      4.83      1.72
  -13    9   10     -1.95     -1.04
  -11    9   10      3.83     -1.79
   -9    9   10     -6.32     -3.46
   -7    9   10      0.39     -0.12
   -5    9   10     -2.52      1.59
   -3    9   10     10.06      2.40
   -1    9   10     -1.44     -2.47
    1    9   10      3.44      3.32
    3    9   10     -4.23     -2.58
    5    9   10      2.78      2.03
    7    9   10     -5.38     -0.74
    9    9   10     -1.80      0.62
   11    9   10     -0.89     -4.98
   13    9   10     -0.18      0.86
   15    9   10      5.38      0.21
   17    9   10     -1.45      1.11
   19    9   10      0.51      1.83
   21    9   10     -0.52     -1.36
   23    9   10      0.11     -0.31
   25    9   10     -1.81      2.24
   27    9   10      3.10     -0.87
   29    9   10     -0.54      0.51
   31    9   10      0.45      0.77
  -36    8   10     -0.24      0.74
  -34    8   10      1.13     -0.07
  -32    8   10      0.96     -0.14
  -30    8   10      0.15     -1.41
  -28    8   10      4.09     -3.15
  -26    8   10     -1.72      2.03
  -24    8   10      1.61     -0.54
  -22    8   10     -3.17      0.19
  -20    8   10      3.63     -3.43
  -18    8   10     -1.36      3.70
  -16    8   10     -2.20     -1.32
  -14    8   10     -1.13      9.12
  -12    8   10      2.90     -8.26
  -10    8   10     -1.68     -0.54
   -8    8   10     -0.80     -2.47
   -6    8   10     -2.37      0.99
   -4    8   10      3.70      6.68
   -2    8   10      1.64      2.31
    0    8   10     -2.64     -0.62
    2    8   10      5.32      0.05
    4    8   10     -2.44     -1.84
    6    8   10     -1.78     -1.36
    8    8   10     -2.59      1.51
   10    8   10     -0.06     -6.38
   12    8   10     -3.69      0.22
   14    8   10      4.68      0.11
   16    8   10     -1.95      1.73
   18    8   10      5.13      0.09
   20    8   10     -2.06      0.54
   22    8   10      1.90      2.71
   24    8   10      0.64     -4.49
   26    8   10     -3.81      3.23
   28    8   10      3.36     -2.55
   30    8   10     -2.20      2.26
   32    8   10      0.14     -0.12
  -37    7   10      0.74     -4.74
  -35    7   10     -1.76      3.87
  -33    7   10      0.74      0.84
  -31    7   10     -3.03     -0.40
  -29    7   10      5.10     -0.04
  -27    7   10      1.15      1.42
  -25    7   10     -5.11     -1.30
  -23    7   10      7.38     -2.10
  -21    7   10     -0.20     -3.41
  -19    7   10      1.90      6.27
  -17    7   10      1.12     -2.24
  -15    7   10     -8.19      1.87
  -13    7   10      4.02     -2.74
  -11    7   10      0.11     -1.04
   -9    7   10      0.56     -4.39
   -7    7   10     -3.74      2.54
   -5    7   10      2.66      7.74
   -3    7   10     -0.49      4.06
   -1    7   10     -4.76     -2.47
    1    7   10     -0.71      1.09
    3    7   10      3.18     -1.34
    5    7   10     -2.39     -4.34
    7    7   10      4.07      0.29
    9    7   10     -1.80      2.02
   11    7   10      2.30     -0.33
   13    7   10     -5.19     -6.86
   15    7   10     -0.64      3.56
   17    7   10      3.97     -3.13
   19    7   10      3.64      4.67
   21    7   10     -0.53     -0.22
   23    7   10      0.36      4.50
   25    7   10     -1.53     -6.95
   27    7   10     -0.17      0.08
   29    7   10     -0.29      0.31
   31    7   10     -0.12      0.54
   33    7   10     -1.25      2.28
  -38    6   10      3.10     -3.48
  -36    6   10     -0.55      3.75
  -34    6   10     -4.07     -2.53
  -32    6   10     -0.68      4.67
  -30    6   10      2.92     -3.36
  -28    6   10     -4.25      6.80
  -26    6   10      0.76     -8.12
  -24    6   10      2.77      4.93
  -22    6   10      5.58     -4.57
  -20    6   10      1.87      9.41
  -18    6   10     -4.32     -7.62
  -16    6   10      0.79      6.94
  -14    6   10     -2.69     -8.64
  -12    6   10      4.86      1.71
  -10    6   10     -4.44     -4.32
   -8    6   10      7.88     -5.28
   -6    6   10    -11.34      9.50
   -4    6   10      5.12      8.97
   -2    6   10     -6.20     -1.11
    0    6   10     -1.10     -2.42
    2    6   10     -6.51     -5.99
    4    6   10      6.87      1.62
    6    6   10      5.26     -5.94
    8    6   10     -1.64      9.19
   10    6   10      3.14      2.96
   12    6   10     -2.69     -3.42
   14    6   10      0.36     -3.44
   16    6   10     -1.96     -5.80
   18    6   10      5.28      7.21
   20    6   10     -1.28     -1.22
   22    6   10     -0.86      2.40
   24    6   10     -1.60      1.04
   26    6   10      3.36     -7.96
   28    6   10     -1.07      5.28
   30    6   10     -1.36     -3.15
   32    6   10      0.23      3.49
   34    6   10     -0.35     -0.82
  -39    5   10      1.68     -3.36
  -37    5   10     -0.74      2.16
  -35    5   10     -2.64     -1.38
  -33    5   10      1.25      1.51
  -31    5   10      0.26     -0.05
  -29    5   10     -2.88      0.36
  -27    5   10     -4.26     -2.95
  -25    5   10      6.13      1.51
  -23    5   10     -0.07      3.63
  -21    5   10      1.12      2.92
  -19    5   10      0.56      1.13
  -17    5   10     -3.39     -4.42
  -15    5   10      0.50      5.38
  -13    5   10     -2.10     -6.31
  -11    5   10      7.46     -2.08
   -9    5   10     -0.37    -10.03
   -7    5   10      4.91      8.68
   -5    5   10     -9.79     -0.05
   -3    5   10     -2.89     12.88
   -1    5   10     -4.86     -3.59
    1    5   10      2.25     -9.08
    3    5   10      0.38     -3.36
    5    5   10      6.99      0.28
    7    5   10     -1.86      4.43
    9    5   10      1.45      1.89
   11    5   10     -1.21      7.95
   13    5   10      2.84     -5.17
   15    5   10      0.58     -3.45
   17    5   10      0.01      1.56
   19    5   10     -2.66     -3.11
   21    5   10     -0.88      0.00
   23    5   10     -2.39     -1.76
   25    5   10      3.67      2.94
   27    5   10      1.57      1.73
   29    5   10     -1.89     -2.15
   31    5   10      0.58      1.64
   33    5   10     -0.72     -0.30
   35    5   10      0.85      1.55
  -38    4   10     -0.51      0.20
  -36    4   10     -2.83     -6.95
  -34    4   10      3.08      8.12
  -32    4   10      1.13     -4.42
  -30    4   10      0.01      1.67
  -28    4   10     -3.89     -7.04
  -26    4   10     -3.02      4.95
  -24    4   10      4.07      1.70
  -22    4   10     -0.92      5.00
  -20    4   10     -5.37     -6.82
  -18    4   10      2.74      8.00
  -16    4   10     -4.63     -0.92
  -14    4   10     -1.69     -2.60
  -12    4   10      2.89      0.31
  -10    4   10     16.07    -12.72
   -8    4   10     -7.41      3.71
   -6    4   10      7.03      2.64
   -4    4   10    -11.65     13.47
   -2    4   10     -4.27     -8.39
    0    4   10     -4.58      0.53
    2    4   10     11.67     -2.92
    4    4   10      1.66     -2.24
    6    4   10     -0.82     -4.35
    8    4   10     -3.25      5.42
   10    4   10     -0.46      5.26
   12    4   10      2.76     -0.98
   14    4   10      1.20      5.32
   16    4   10      3.04     -3.18
   18    4   10     -8.21     -4.17
   20    4   10      2.33     -3.73
   22    4   10      1.39     -6.03
   24    4   10     -3.41      3.48
   26    4   10      2.29      8.23
   28    4   10     -1.12     -1.31
   30    4   10      5.10      1.88
   32    4   10     -4.88     -0.60
   34    4   10      1.10      0.50
  -39    3   10      0.29      0.05
  -37    3   10      2.56     -3.45
  -35    3   10      0.89     -0.65
  -33    3   10      0.70      2.55
  -31    3   10      2.44     -0.01
  -29    3   10     -3.56     -3.01
  -27    3   10      1.65     -4.62
  -25    3   10     -6.12      5.84
  -23    3   10      1.24      3.20
  -21    3   10      2.17     -5.89
  -19    3   10     -9.00     -1.90
  -17    3   10     -0.14      8.21
  -15    3   10     -6.14      0.47
  -13    3   10      6.36     -7.66
  -11    3   10      6.20      0.85
   -9    3   10     14.23     -4.01
   -7    3   10     -1.87     -1.12
   -5    3   10    -13.44     15.43
   -3    3   10      6.04      5.50
   -1    3   10     -6.93    -13.63
    1    3   10     -3.59      3.29
    3    3   10      8.64      3.82
    5    3   10     -1.06     -6.49
    7    3   10      6.79     -5.53
    9    3   10    -15.84      1.39
   11    3   10      8.83      4.55
   13    3   10     -0.59      5.24
   15    3   10      0.38      0.39
   17    3   10     -1.26     -3.45
   19    3   10     -0.35     -6.74
   21    3   10      3.86     -2.95
   23    3   10     -0.16     -0.41
   25    3   10     -2.15      0.23
   27    3   10     -3.10      7.67
   29    3   10      3.91      3.37
   31    3   10     -0.54      0.89
   33    3   10     -0.83     -1.54
   35    3   10     -1.74     -1.91
  -40    2   10     -6.80      0.59
  -38    2   10      6.23      0.00
  -36    2   10      1.04      1.26
  -34    2   10      1.49     -1.17
  -32    2   10     -0.31      1.36
  -30    2   10     -3.29     -2.87
  -28    2   10      4.47      0.25
  -26    2   10     -3.09     -1.07
  -24    2   10      0.40      1.78
  -22    2   10     -4.18     -3.09
  -20    2   10      3.98     -2.83
  -18    2   10     -7.53      2.73
  -16    2   10     -6.64     -1.17
  -14    2   10      4.11      4.73
  -12    2   10      6.79    -14.10
  -10    2   10     11.44     17.92
   -8    2   10      0.30    -13.39
   -6    2   10      5.12      6.50
   -4    2   10    -15.95      8.98
   -2    2   10      3.04      6.73
    0    2   10     -9.26     -5.12
    2    2   10      4.76     -4.05
    4    2   10    -13.24      2.98
    6    2   10     18.49     -6.62
    8    2   10      2.74     -5.46
   10    2   10    -11.12     -1.99
   12    2   10      1.25     12.05
   14    2   10      0.32     -5.52
   16    2   10      2.24      3.26
   18    2   10      1.56     -4.55
   20    2   10      4.13     -4.68
   22    2   10     -1.44      1.60
   24    2   10      3.85     -2.51
   26    2   10     -5.52      1.27
   28    2   10     -1.06      6.50
   30    2   10     -1.59      2.65
   32    2   10      3.69     -0.80
   34    2   10     -1.93      0.15
   36    2   10     -0.42     -2.42
  -39    1   10     -0.19     -1.58
  -37    1   10     -0.79      7.59
  -35    1   10      3.21     -5.18
  -33    1   10     -3.19      3.29
  -31    1   10      1.37     -3.26
  -29    1   10     -1.01     -1.07
  -27    1   10      1.14      2.77
  -25    1   10      1.15      0.88
  -23    1   10      1.75     -5.54
  -21    1   10     -2.91     -0.04
  -19    1   10     -1.91     -0.04
  -17    1   10     -4.99      5.35
  -15    1   10      1.58    -12.34
  -13    1   10      9.62      5.39
  -11    1   10     -4.50      7.14
   -9    1   10      8.00     -3.59
   -7    1   10      9.36     -5.49
   -5    1   10      4.25      8.47
   -3    1   10    -23.90      3.76
   -1    1   10     -2.29      2.98
    1    1   10    -14.57      4.47
    3    1   10     -1.16     -3.79
    5    1   10     13.67    -17.63
    7    1   10      5.99     12.38
    9    1   10      4.76     -2.74
   11    1   10    -11.63     -4.73
   13    1   10      0.64      0.23
   15    1   10      1.81      9.22
   17    1   10      4.53    -10.01
   19    1   10      4.21      3.79
   21    1   10      1.91     -3.10
   23    1   10      1.58     -1.21
   25    1   10     -2.19      2.82
   27    1   10     -2.74     -1.51
   29    1   10     -2.47      3.27
   31    1   10      1.50      2.33
   33    1   10      1.17     -2.27
   35    1   10     -0.77      2.76
  -40    0   10      6.38     -0.06
  -38    0   10     -8.00     -0.22
  -36    0   10      3.12      0.28
  -34    0   10     -1.96     -0.38
  -32    0   10     -0.07     -0.73
  -30    0   10      1.83      0.47
  -28    0   10     -2.30      0.34
  -26    0   10      4.71      0.32
  -24    0   10     -2.89      0.51
  -22    0   10      7.46     -0.28
  -20    0   10     -5.55      0.04
  -18    0   10    -11.78      0.29
  -16    0   10     12.33     -0.40
  -14    0   10      1.66     -0.26
  -12    0   10      6.34     -0.29
  -10    0   10    -24.54     -0.20
   -8    0   10     45.30      0.76
   -6    0   10    -13.17     -1.17
   -4    0   10     -2.69      0.46
   -2    0   10    -14.33      0.48
    0    0   10    -19.46      2.05
    2    0   10    -18.03     -0.87
    4    0   10     28.25     -0.69
    6    0   10     11.38      0.09
    8    0   10     -9.04     -0.59
   10    0   10      6.38      0.38
   12    0   10     -3.26      0.13
   14    0   10     -7.45     -0.89
   16    0   10      9.28      0.06
   18    0   10      2.53     -0.38
   20    0   10      6.81      0.48
   22    0   10     -0.15     -0.16
   24    0   10     -0.93     -0.15
   26    0   10     -1.92     -0.09
   28    0   10     -3.19      0.41
   30    0   10      0.21     -0.24
   32    0   10      1.16      0.33
   34    0   10      0.51     -0.03
   36    0   10     -2.66      0.20
  -30   12   10      0.99     -2.61
   -7   17   11     -0.55     -0.07
   -5   17   11      0.51      0.39
   -3   17   11     -2.45     -0.24
   -1   17   11      0.94      0.29
    1   17   11      1.21      0.27
    3   17   11      1.04      0.15
  -16   16   11     -0.36      3.21
  -14   16   11     -1.24     -3.14
  -12   16   11      0.00      0.77
  -10   16   11      4.00     -1.51
   -8   16   11     -0.51      1.21
   -6   16   11      1.47     -0.74
   -4   16   11     -2.27     -2.00
   -2   16   11     -0.41      0.18
    0   16   11      1.26      1.57
    2   16   11     -0.52      0.02
    4   16   11     -0.15      1.93
    6   16   11     -1.14     -2.48
    8   16   11      0.45      0.17
   10   16   11      2.12     -0.04
  -21   15   11      2.73     -2.12
  -19   15   11     -1.10      2.39
  -17   15   11     -4.03     -0.17
  -15   15   11     -0.30      1.23
  -13   15   11     -0.50     -0.59
  -11   15   11      5.55     -0.38
   -9   15   11     -3.02      1.28
   -7   15   11      2.90     -2.05
   -5   15   11     -0.27     -1.94
   -3   15   11     -0.36     -1.43
   -1   15   11     -0.23      1.73
    1   15   11     -0.08      1.56
    3   15   11     -2.88      0.76
    5   15   11     -0.78     -0.49
    7   15   11      1.21     -1.58
    9   15   11      1.47      2.76
   11   15   11      0.45     -1.90
   13   15   11      0.35      0.56
   15   15   11      0.22     -1.38
  -24   14   11      0.01     -0.98
  -22   14   11      2.37      3.19
  -20   14   11     -3.32     -1.19
  -18   14   11      0.70      2.04
  -16   14   11     -3.25     -4.60
  -14   14   11      3.36      4.89
  -12   14   11     -1.59     -0.49
  -10   14   11      2.61      0.85
   -8   14   11     -1.03     -1.10
   -6   14   11      1.83     -3.38
   -4   14   11      1.19     -1.42
   -2   14   11     -0.10      1.45
    0   14   11     -3.09      1.26
    2   14   11     -0.43      2.02
    4   14   11     -3.29     -2.31
    6   14   11      2.86      1.41
    8   14   11      0.19     -0.41
   10   14   11      0.45      2.09
   12   14   11      1.09     -2.26
   14   14   11      0.49      0.66
   16   14   11     -2.16     -2.33
   18   14   11      0.95      1.00
  -27   13   11      2.07     -1.82
  -25   13   11      0.76      2.90
  -23   13   11     -0.51      0.59
  -21   13   11     -3.93      0.93
  -19   13   11     -0.74     -2.88
  -17   13   11      1.43      0.66
  -15   13   11      0.82      2.23
  -13   13   11      0.82     -1.10
  -11   13   11      0.31      1.57
   -9   13   11     -1.70     -0.80
   -7   13   11      2.93     -1.58
   -5   13   11      1.33     -2.76
   -3   13   11      0.84      0.35
   -1   13   11     -5.35      2.55
    1   13   11      0.72     -0.43
    3   13   11     -1.69      1.23
    5   13   11     -0.09      0.24
    7   13   11      4.76     -0.03
    9   13   11     -1.16      0.15
   11   13   11      0.90      1.32
   13   13   11     -4.56     -1.98
   15   13   11      4.05     -0.66
   17   13   11     -2.77     -2.72
   19   13   11      3.18      1.67
   21   13   11     -0.95      0.03
  -28   12   11      2.42     -0.38
  -26   12   11      0.54      2.61
  -24   12   11     -1.84      1.69
  -22   12   11     -4.50      0.67
  -20   12   11      2.36     -3.35
  -18   12   11     -3.30      1.56
  -16   12   11      2.67      0.60
  -14   12   11     -0.15     -0.46
  -12   12   11      2.41      0.88
  -10   12   11     -0.48     -0.94
   -8   12   11     -1.46     -2.27
   -6   12   11      5.85      1.16
   -4   12   11     -1.76     -1.40
   -2   12   11     -3.18     -2.06
    0   12   11     -1.75      3.94
    2   12   11     -0.52      1.51
    4   12   11      0.88     -1.41
    6   12   11      3.18      1.30
    8   12   11      5.16      1.44
   10   12   11     -4.82      1.73
   12   12   11     -1.13     -5.60
   14   12   11     -4.10      1.23
   16   12   11      4.98     -3.57
   18   12   11     -0.09      2.60
   20   12   11      1.69     -0.05
   22   12   11     -1.93      1.43
   24   12   11     -0.16     -1.61
  -31   11   11     -0.86     -1.74
  -29   11   11      0.60     -4.21
  -27   11   11     -0.80      5.54
  -25   11   11     -0.21     -1.06
  -23   11   11     -3.14      3.53
  -21   11   11     -0.03     -1.56
  -19   11   11     -0.87      1.53
  -17   11   11     -1.12     -0.60
  -15   11   11      1.35     -1.44
  -13   11   11      1.39     -0.01
  -11   11   11     -0.66     -1.90
   -9   11   11      1.79      0.83
   -7   11   11      1.36     -0.71
   -5   11   11      1.21      2.39
   -3   11   11     -0.22     -6.15
   -1   11   11     -2.65      2.11
    1   11   11     -2.92      4.06
    3   11   11      0.87     -0.85
    5   11   11      5.03      0.81
    9   11   11      0.06     -2.22
   11   11   11     -3.51     -0.80
   13   11   11      0.52     -4.29
   15   11   11     -1.41      0.22
   17   11   11      3.35     -0.15
   19   11   11     -0.49      3.86
   21   11   11     -1.11     -2.15
   23   11   11      1.41      2.02
   25   11   11     -1.43     -0.01
   27   11   11     -0.34     -1.64
  -32   10   11     -1.18     -3.45
  -30   10   11      0.89     -3.01
  -28   10   11      0.32     -0.29
  -26   10   11     -3.15      2.17
  -24   10   11      1.89      4.14
  -22   10   11     -2.41     -1.24
  -20   10   11     -2.10      3.62
  -18   10   11     -0.08     -0.81
  -16   10   11     -0.09     -0.68
  -14   10   11      2.48     -1.03
  -12   10   11      0.94     -4.37
  -10   10   11     -1.09      1.21
   -8   10   11     -1.04      0.58
   -6   10   11      0.55      3.21
   -4   10   11      6.50     -3.87
   -2   10   11     -2.67      0.52
    0   10   11      0.19     -1.07
    2   10   11     -3.80      4.57
    4   10   11      1.76     -1.90
    6   10   11     -0.74      3.70
    8   10   11     -0.10     -1.57
   10   10   11      1.13     -3.20
   12   10   11     -2.33      0.91
   14   10   11      4.33     -3.87
   16   10   11     -1.74      4.13
   18   10   11      2.01     -0.17
   20   10   11     -3.24     -0.04
   22   10   11      0.93      1.21
   24   10   11     -0.26      1.51
   26   10   11     -0.56     -0.97
   28   10   11      1.71     -2.09
  -35    9   11      0.28     -0.99
  -33    9   11     -0.21     -1.45
  -31    9   11      1.40     -4.48
  -29    9   11      1.15     -0.40
  -27    9   11     -1.03     -0.26
  -25    9   11      0.95      4.50
  -23    9   11     -2.88      0.47
  -21    9   11      0.05      1.75
  -19    9   11     -2.29     -1.35
  -17    9   11     -1.37      2.78
  -15    9   11      4.86      0.40
  -13    9   11     -0.67     -3.24
  -11    9   11      1.16     -0.94
   -9    9   11     -3.05     -3.71
   -7    9   11     -3.99      5.24
   -5    9   11      6.61      0.05
   -3    9   11      3.02      1.98
   -1    9   11      0.29     -0.88
    1    9   11     -1.03     -1.74
    3    9   11     -3.23      1.72
    5    9   11     -2.47     -2.15
    7    9   11     -0.31      0.76
    9    9   11     -1.81     -1.89
   11    9   11      2.13     -0.24
   13    9   11      3.84     -2.83
   15    9   11      0.49      5.85
   17    9   11      0.94     -1.04
   19    9   11     -2.91      1.37
   21    9   11      2.05     -1.37
   23    9   11     -3.92     -1.03
   25    9   11      2.69      2.88
   27    9   11     -0.02     -1.89
   29    9   11      1.02      0.98
  -36    8   11      0.78      1.63
  -34    8   11      0.21     -2.97
  -32    8   11      0.74      1.21
  -30    8   11      2.48     -5.21
  -28    8   11      1.89      1.62
  -26    8   11     -0.55      3.84
  -24    8   11     -0.66     -2.79
  -22    8   11     -3.08      1.34
  -20    8   11      4.52      0.83
  -18    8   11     -3.93     -1.62
  -16    8   11     -0.17      7.20
  -14    8   11      0.47     -5.08
  -12    8   11      1.48      1.53
  -10    8   11     -1.77     -6.25
   -8    8   11     -1.31      5.55
   -6    8   11     -1.70     -1.70
   -4    8   11      5.23      8.52
   -2    8   11     -1.87     -4.54
    0    8   11      2.01      2.12
    2    8   11     -0.17     -7.66
    4    8   11     -2.89      3.64
    6    8   11     -2.25     -3.92
    8    8   11     -1.26      2.15
   10    8   11      1.73     -3.87
   12    8   11     -1.62      0.05
   14    8   11      6.45      4.65
   16    8   11     -1.32     -1.43
   18    8   11      0.91      3.02
   20    8   11     -0.62     -1.47
   22    8   11      2.51     -0.55
   24    8   11     -4.21     -2.24
   26    8   11      2.03      1.97
   28    8   11     -0.98      0.27
   30    8   11     -0.25      0.93
  -37    7   11      0.62     -0.16
  -35    7   11     -3.24      2.92
  -33    7   11      2.59     -0.59
  -31    7   11     -1.22     -3.51
  -29    7   11      7.78      5.06
  -27    7   11     -6.19     -2.30
  -25    7   11      4.11      1.32
  -23    7   11     -1.46     -4.59
  -21    7   11      6.26      2.55
  -19    7   11     -8.32      3.59
  -17    7   11      6.73     -1.43
  -15    7   11    -11.41     -0.59
  -13    7   11      9.96     -2.71
  -11    7   11     -5.10      0.90
   -9    7   11     -0.68     -1.67
   -7    7   11     -0.91      6.55
   -5    7   11      1.43      4.52
   -3    7   11     -1.67     -0.66
   -1    7   11     -0.87     -5.27
    1    7   11      0.56      0.63
    3    7   11      4.95     -4.22
    5    7   11     -4.93     -3.19
    7    7   11      1.08      6.79
    9    7   11      2.43     -1.91
   11    7   11     -4.72     -2.43
   13    7   11      2.00     -0.94
   15    7   11     -1.80     -0.10
   17    7   11      7.71      3.37
   19    7   11     -2.19      0.14
   21    7   11      0.79      1.53
   23    7   11      1.94     -0.29
   25    7   11     -6.09     -6.02
   27    7   11      4.25      3.43
   29    7   11     -3.68      1.06
   31    7   11      1.21      1.45
  -38    6   11      2.10      0.40
  -36    6   11     -4.20      1.57
  -34    6   11     -1.22      1.27
  -32    6   11      2.78     -2.23
  -30    6   11      1.12      4.24
  -28    6   11     -3.50     -0.13
  -26    6   11      1.75     -5.31
  -24    6   11      4.08      4.95
  -22    6   11      3.56     -0.32
  -20    6   11     -4.44      0.60
  -18    6   11     -1.02      0.82
  -16    6   11     -1.61     -5.15
  -14    6   11      2.05      1.27
  -12    6   11      0.85     -4.13
  -10    6   11     -2.68      0.61
   -8    6   11      1.99      0.44
   -6    6   11     -8.07     12.01
   -4    6   11      4.14      3.44
   -2    6   11     -1.97     -6.91
    0    6   11     -2.06     -5.63
    2    6   11      3.58      0.54
    4    6   11      5.05     -5.91
    6    6   11      1.65      5.41
    8    6   11     -5.29      4.69
   10    6   11      2.40      2.43
   12    6   11     -2.01     -8.91
   14    6   11     -1.79     -2.45
   16    6   11      5.37      0.42
   18    6   11     -1.28      4.07
   20    6   11      2.04      1.59
   22    6   11     -3.68      1.86
   24    6   11      2.87     -3.85
   26    6   11     -0.41     -1.46
   28    6   11     -1.90      1.98
   30    6   11      0.10      2.15
   32    6   11     -1.65      0.03
  -39    5   11      2.23     -0.46
  -37    5   11     -7.61      1.92
  -35    5   11      5.80     -1.57
  -33    5   11     -4.18      2.45
  -31    5   11      3.94      0.78
  -29    5   11     -7.69     -2.69
  -27    5   11      4.21      0.95
  -25    5   11     -0.09      0.09
  -23    5   11      4.86      4.65
  -21    5   11     -8.00      1.45
  -19    5   11      7.42     -5.05
  -17    5   11     -7.31      0.53
  -15    5   11      3.38     -2.95
  -13    5   11      1.19      0.65
  -11    5   11      2.17    -10.37
   -9    5   11      4.01      9.12
   -7    5   11     -7.80     -1.47
   -5    5   11     -4.23     13.75
   -3    5   11     -3.58     -1.34
   -1    5   11      1.21     -3.52
    1    5   11      7.73    -11.91
    3    5   11     -0.52      2.88
    5    5   11      7.45      0.95
    7    5   11     -5.04      3.56
    9    5   11     -2.32      5.16
   11    5   11      0.69     -2.29
   13    5   11      1.04     -3.21
   15    5   11      2.71     -6.28
   17    5   11     -3.92      4.88
   19    5   11      1.99     -2.92
   21    5   11     -4.65      1.98
   23    5   11      0.48      2.59
   25    5   11      6.31      0.59
   27    5   11     -4.82      0.95
   29    5   11      1.50     -2.33
   33    5   11      1.86     -1.17
  -38    4   11     -3.21     -1.60
  -36    4   11      1.07     -1.19
  -34    4   11      0.64      5.04
  -32    4   11      1.55     -2.95
  -30    4   11     -4.67     -0.11
  -28    4   11     -2.09     -3.65
  -26    4   11      0.56      6.89
  -24    4   11      3.09      0.19
  -22    4   11     -4.03     -2.67
  -20    4   11     -3.38      2.11
  -18    4   11      4.42     -0.74
  -16    4   11     -2.48      1.90
  -14    4   11      1.17     -8.43
  -12    4   11      7.34      1.66
  -10    4   11      8.08     -7.54
   -8    4   11     -9.14      9.89
   -6    4   11      0.49      6.61
   -4    4   11    -10.63      2.34
   -2    4   11     -7.79     -6.60
    0    4   11     11.89      1.36
    2    4   11      8.47     -6.62
    4    4   11     -0.50      1.47
    6    4   11     -1.63     -3.41
    8    4   11     -1.78      9.62
   10    4   11     -2.37     -0.99
   12    4   11      3.97     -0.32
   14    4   11      0.91      0.40
   16    4   11     -2.28     -4.24
   18    4   11     -1.66     -2.84
   20    4   11      0.45     -3.19
   22    4   11     -1.26      2.25
   24    4   11     -1.47      5.11
   26    4   11      2.24      6.20
   28    4   11      0.59     -4.34
   32    4   11     -2.61     -1.23
   34    4   11     -0.24      0.36
  -39    3   11      0.36     -3.14
  -37    3   11      4.53     -2.02
  -35    3   11     -4.19      3.41
  -33    3   11      3.92     -0.85
  -31    3   11     -3.92      1.65
  -29    3   11     -1.14     -5.27
  -27    3   11     -3.03      0.90
  -25    3   11      2.30      5.71
  -23    3   11     -2.71     -1.12
  -21    3   11      2.35     -8.70
  -19    3   11     -7.83      6.30
  -17    3   11      0.42      3.85
  -15    3   11      7.10     -2.50
  -13    3   11     -0.84     -8.43
  -11    3   11     17.93      5.21
   -9    3   11     -4.90     -3.17
   -7    3   11     -5.67      9.26
   -5    3   11    -11.24      9.92
   -3    3   11      0.33    -12.13
   -1    3   11     -2.83     -3.55
    1    3   11      2.80     -0.07
    3    3   11     10.51      9.01
    5    3   11      3.68    -15.31
    7    3   11     -8.09      4.17
    9    3   11     -4.34      5.40
   11    3   11      8.55      0.84
   13    3   11     -5.80      1.52
   15    3   11      4.74     -0.72
   17    3   11     -2.99     -6.36
   19    3   11      0.63     -3.21
   21    3   11      3.14      0.64
   23    3   11     -4.23     -0.17
   25    3   11     -2.95      6.41
   27    3   11      2.40      3.99
   29    3   11      0.92      2.11
   31    3   11     -1.22     -4.85
   33    3   11     -1.16      0.24
   35    3   11     -0.37     -2.49
  -40    2   11     -0.26      0.59
  -38    2   11      5.63      1.11
  -36    2   11     -1.47     -1.10
  -34    2   11      0.13      1.70
  -32    2   11     -2.32     -0.61
  -30    2   11     -3.56     -2.48
  -28    2   11      4.85      1.53
  -26    2   11     -2.46     -0.73
  -24    2   11     -2.54      0.63
  -22    2   11      1.25     -1.58
  -20    2   11     -1.38     -4.48
  -18    2   11     -1.72      6.83
  -16    2   11     -6.04     -1.06
  -14    2   11     15.69     -3.46
  -12    2   11      3.81      1.55
  -10    2   11      4.52      5.51
   -8    2   11     -2.46     -0.33
   -6    2   11    -11.36     -2.06
   -4    2   11     -8.62     14.05
   -2    2   11      3.73    -14.97
    0    2   11     -3.55     -2.88
    2    2   11      4.74      7.56
    4    2   11      0.33     -8.30
    6    2   11     14.82      6.98
    8    2   11    -11.62    -14.54
   10    2   11     -3.84     15.42
   12    2   11      1.32     -3.20
   14    2   11      6.45      1.04
   16    2   11     -2.64     -2.04
   18    2   11      4.34     -3.13
   20    2   11      0.16     -1.36
   22    2   11     -1.42     -2.21
   24    2   11      0.91      3.99
   26    2   11     -7.21      1.61
   28    2   11      2.36      6.14
   30    2   11     -0.87     -0.98
   32    2   11      1.10     -2.85
   34    2   11      0.08     -0.72
  -39    1   11      1.39      6.82
  -37    1   11     -0.74     -1.20
  -35    1   11      0.94     -0.26
  -33    1   11     -2.82      0.60
  -31    1   11     -1.32     -3.55
  -29    1   11      2.17      2.92
  -27    1   11      0.17     -0.40
  -25    1   11      1.04      2.28
  -23    1   11     -1.74     -7.97
  -21    1   11     -1.43      2.96
  -19    1   11     -3.25      5.70
  -17    1   11      4.04     -7.53
  -15    1   11      2.04      0.96
  -13    1   11     12.01     -2.22
  -11    1   11    -11.99     20.10
   -9    1   11     11.24    -22.14
   -7    1   11     -1.74     13.30
   -5    1   11    -14.28     -2.47
   -3    1   11     -4.97      0.09
   -1    1   11     -7.20     -1.55
    1    1   11      7.06      5.86
    3    1   11     -1.57    -14.16
    5    1   11     16.53      3.80
    7    1   11     -3.40      7.30
   11    1   11     -6.16      2.06
   13    1   11      6.00      4.11
   15    1   11      3.70     -0.13
   17    1   11      1.63     -2.77
   19    1   11      5.04     -1.08
   21    1   11     -1.78     -1.55
   23    1   11     -0.39      1.19
   25    1   11     -3.60      1.19
   27    1   11     -3.98      2.09
   29    1   11      0.82      0.77
   31    1   11      1.68      1.23
   33    1   11     -0.71     -2.72
   35    1   11     -0.79      1.62
  -40    0   11      1.48     -0.46
  -38    0   11     -8.79      0.05
  -36    0   11      8.72     -0.07
  -34    0   11     -8.12     -0.46
  -32    0   11      3.08      0.43
  -30    0   11      0.53      0.35
  -28    0   11     -0.39      0.79
  -26    0   11      0.43     -0.37
  -24    0   11      2.44      0.55
  -22    0   11     -1.79     -0.84
  -20    0   11     -4.26      0.38
  -18    0   11     -6.05      0.04
  -16    0   11     21.20     -0.69
  -14    0   11     -1.52      0.16
  -12    0   11     -9.68     -0.67
  -10    0   11      3.05      0.91
   -8    0   11     12.42     -0.33
   -6    0   11     -9.56      0.06
   -4    0   11    -15.88     -0.51
   -2    0   11      0.61      2.37
    0    0   11    -13.22     -0.91
    2    0   11      4.58     -0.22
    4    0   11     28.77     -0.83
    6    0   11    -12.46     -0.16
    8    0   11     -0.53      0.07
   10    0   11     -1.90      0.20
   12    0   11      3.38     -0.12
   14    0   11     -7.71     -0.55
   16    0   11     16.43     -0.11
   18    0   11     -2.67      0.39
   20    0   11      4.82     -0.05
   22    0   11     -1.07      0.16
   24    0   11     -6.05     -0.34
   26    0   11     -0.31      0.56
   28    0   11     -3.55      0.21
   30    0   11      1.59     -0.11
   32    0   11      2.41      0.25
   34    0   11     -4.16      0.01
   36    0   11      0.67     -0.05
    9    1   11     -4.02     -9.19
   30    4   11      0.32      1.00
   31    5   11     -2.61      2.62
    7   11   11      0.72      3.88
   -3   17   12      0.62      1.14
   -1   17   12      0.38     -0.75
  -14   16   12      0.50     -0.60
  -12   16   12      1.34     -2.90
  -10   16   12      2.23      4.01
   -8   16   12     -0.63     -3.22
   -6   16   12     -1.14      1.38
   -4   16   12     -1.04     -1.79
   -2   16   12     -0.40      1.43
    0   16   12      0.98      1.53
    2   16   12     -0.17      0.82
    4   16   12     -0.32     -0.09
    6   16   12     -0.83     -1.97
    8   16   12      2.14     -0.52
   10   16   12      0.41      0.18
  -19   15   12     -0.93      0.56
  -17   15   12     -5.51      0.83
  -15   15   12      5.33     -0.58
  -13   15   12     -1.04     -0.87
  -11   15   12      3.21      0.24
   -9   15   12     -1.81     -0.75
   -7   15   12      0.32     -1.10
   -5   15   12     -0.13     -1.65
   -3   15   12     -1.17      0.90
   -1   15   12     -1.25      2.68
    1   15   12      0.30      0.53
    3   15   12     -3.05      0.90
    5   15   12      2.17     -1.31
    7   15   12      1.46     -1.80
    9   15   12      2.81      2.73
   11   15   12     -1.68     -2.84
   13   15   12      1.59      1.25
   15   15   12     -2.83      0.36
  -24   14   12      0.00      0.06
  -22   14   12      1.40      3.03
  -20   14   12     -3.69     -0.64
  -18   14   12      0.02     -1.58
  -16   14   12      1.20      1.17
  -14   14   12     -0.13     -0.44
  -12   14   12      2.64      1.55
  -10   14   12     -2.45     -3.15
   -8   14   12      1.69     -1.15
   -6   14   12     -0.32     -1.38
   -4   14   12      0.14     -0.84
   -2   14   12     -1.60      4.14
    0   14   12     -2.96      0.26
    2   14   12     -0.62      0.58
    4   14   12      0.02     -0.63
    6   14   12      3.50     -0.59
    8   14   12      0.05      1.39
   10   14   12      2.28     -0.81
   12   14   12     -1.64     -0.10
   14   14   12      0.61     -0.76
   16   14   12     -3.11      0.23
   18   14   12      1.94     -0.21
  -27   13   12      1.28      0.84
  -25   13   12      0.68      1.32
  -23   13   12     -3.19      3.26
  -21   13   12     -1.45     -4.43
  -19   13   12     -0.54      2.14
  -17   13   12      4.17     -2.20
  -15   13   12     -0.81      3.98
  -13   13   12      1.91     -4.01
  -11   13   12     -0.38      1.37
   -9   13   12     -2.37     -2.17
   -7   13   12      4.64     -2.87
   -5   13   12     -1.11      0.63
   -3   13   12     -2.85      1.82
   -1   13   12     -1.65      1.46
    1   13   12     -1.30      1.08
    3   13   12      0.64     -1.10
    5   13   12      1.79      1.89
    7   13   12      3.23     -2.72
    9   13   12     -1.20      2.96
   11   13   12     -1.78     -2.89
   13   13   12     -0.75      2.19
   15   13   12      0.31     -5.31
   17   13   12      1.14      4.22
   19   13   12      0.49     -2.58
   21   13   12     -0.42      2.97
  -28   12   12      3.27      2.35
  -26   12   12     -2.14      1.73
  -24   12   12     -2.65      2.65
  -22   12   12     -2.21     -3.32
  -20   12   12      1.70     -0.70
  -18   12   12      0.66      0.45
  -16   12   12      1.33      0.04
  -14   12   12      2.79     -0.28
  -12   12   12      0.38      0.27
  -10   12   12     -1.07     -3.08
   -8   12   12      1.64      0.52
   -6   12   12      3.42     -0.19
   -4   12   12     -4.25     -0.30
   -2   12   12     -3.45      0.16
    0   12   12      0.68      4.68
    2   12   12     -1.07     -0.96
    4   12   12      2.62     -1.83
    6   12   12      4.95      2.09
    8   12   12     -2.49     -0.29
   10   12   12     -2.57     -0.31
   12   12   12     -3.67     -4.91
   14   12   12      2.09      2.30
   16   12   12      1.71     -2.32
   18   12   12      2.53      3.82
   20   12   12     -2.87      0.16
   22   12   12      0.41     -1.01
   24   12   12     -0.52      0.06
  -31   11   12     -1.54     -3.84
  -29   11   12      0.80      1.30
  -27   11   12     -1.63      5.44
  -25   11   12      0.17     -0.52
  -23   11   12     -4.46      0.09
  -21   11   12      3.29      0.07
  -19   11   12     -2.43     -2.36
  -17   11   12      3.09      0.86
  -15   11   12      1.94     -2.36
  -13   11   12      0.08      0.28
  -11   11   12      1.22     -0.77
   -9   11   12      1.43      0.83
   -7   11   12      1.06      2.97
   -5   11   12      0.48     -2.94
   -3   11   12     -1.65     -0.50
   -1   11   12     -5.01      2.17
    1   11   12      0.63      1.91
    3   11   12      1.74     -1.01
    9   11   12     -4.26     -6.00
   11   11   12      1.07      1.66
   13   11   12     -3.52     -5.42
   15   11   12      5.12      4.69
   17   11   12     -1.12     -0.73
   19   11   12      0.21      3.52
   21   11   12     -1.41     -1.72
   23   11   12      0.84      0.96
   25   11   12     -0.63      0.02
  -32   10   12     -2.53     -4.07
  -30   10   12      3.14     -0.83
  -28   10   12     -4.61      3.10
  -26   10   12      2.78      3.91
  -24   10   12     -3.72      1.23
  -22   10   12      2.43     -0.88
  -20   10   12     -4.04     -0.22
  -18   10   12      2.87     -0.55
  -16   10   12      1.37     -1.99
  -14   10   12      2.25     -1.08
  -12   10   12      1.02     -2.65
  -10   10   12     -2.89      3.03
   -8   10   12      1.39      3.74
   -6   10   12      0.26     -0.40
   -4   10   12      4.88     -1.00
   -2   10   12     -4.66     -0.86
    0   10   12     -2.44      0.04
    2   10   12      1.01      1.47
    4   10   12     -1.47      0.87
    6   10   12      0.93     -1.36
    8   10   12      2.68     -0.89
   10   10   12     -1.29     -2.95
   12   10   12     -0.75     -0.16
   14   10   12      2.70      1.13
   16   10   12     -0.25      1.73
   18   10   12     -1.96      1.30
   20   10   12      0.38     -1.83
   22   10   12     -1.96      3.40
   24   10   12      0.98     -1.06
   26   10   12      0.38     -1.51
   28   10   12      0.72     -1.73
  -33    9   12      1.29     -3.92
  -31    9   12     -0.34     -1.81
  -29    9   12      2.00      2.28
  -27    9   12     -0.48      1.80
  -25    9   12     -2.64      4.54
  -23    9   12      0.81      0.24
  -21    9   12     -1.63     -1.68
  -19    9   12     -0.86      0.11
  -17    9   12      1.97      0.60
  -15    9   12      1.58     -1.53
  -13    9   12      2.35     -1.15
  -11    9   12     -3.61     -1.95
   -9    9   12     -1.11      1.77
   -7    9   12     -3.79      3.00
   -5    9   12      9.40      1.88
   -3    9   12     -3.61     -2.67
   -1    9   12      4.41     -0.04
    1    9   12     -8.83     -1.72
    3    9   12      3.04     -0.29
    5    9   12     -5.66     -0.84
    7    9   12      4.79      0.00
    9    9   12      1.28      1.10
   11    9   12      0.28     -2.61
   13    9   12      6.23      1.94
   15    9   12     -5.34      2.00
   17    9   12      2.15      2.69
   19    9   12     -2.89     -3.78
   21    9   12      0.13      0.07
   23    9   12     -1.75      0.99
   25    9   12      1.85     -0.39
   27    9   12      0.99      0.37
   29    9   12     -0.89     -0.52
  -36    8   12      0.81      0.49
  -34    8   12     -0.36     -3.71
  -32    8   12      1.44      0.07
  -30    8   12      4.28     -2.07
  -28    8   12     -1.00      4.87
  -26    8   12     -0.11      2.15
  -24    8   12     -3.05     -1.58
  -22    8   12     -0.19      0.57
  -20    8   12      2.42      2.52
  -18    8   12     -2.24     -4.09
  -16    8   12     -0.79      6.83
  -14    8   12      1.92     -7.79
  -12    8   12     -1.41      2.92
  -10    8   12     -0.39     -1.63
   -8    8   12     -4.57      0.84
   -6    8   12      4.29      3.53
   -4    8   12      0.56     -0.82
   -2    8   12      0.37     -1.81
    0    8   12      1.85     -2.03
    2    8   12     -3.70     -4.36
    4    8   12     -2.08      2.51
    6    8   12      0.58      1.49
    8    8   12     -0.19     -2.08
   10    8   12      1.43      1.70
   12    8   12      5.76     -0.30
   14    8   12     -2.22      3.60
   16    8   12      2.80     -0.45
   18    8   12     -4.63      0.77
   20    8   12      2.70     -1.51
   22    8   12      0.46     -4.10
   24    8   12     -4.42      4.00
   26    8   12      2.96     -1.27
   28    8   12     -1.17      3.01
   30    8   12     -1.28     -0.83
  -37    7   12     -1.30      0.97
  -35    7   12      0.48      1.26
  -33    7   12     -0.68     -3.67
  -31    7   12      6.86      0.73
  -29    7   12     -0.33      4.36
  -27    7   12     -4.36     -1.04
  -25    7   12      4.31      0.12
  -23    7   12     -1.44     -3.36
  -21    7   12     -0.90      6.63
  -19    7   12      1.39     -2.06
  -17    7   12     -5.58      0.10
  -15    7   12      4.07     -3.68
  -13    7   12     -2.96      0.55
  -11    7   12      1.36      1.24
   -9    7   12     -5.57      2.13
   -7    7   12      4.54      2.28
   -5    7   12     -0.07      2.34
   -3    7   12     -0.67     -8.72
   -1    7   12      0.09      0.53
    1    7   12      6.53     -3.19
    3    7   12     -5.78     -0.91
    5    7   12     -0.14      1.80
    7    7   12     -2.08      5.40
    9    7   12      3.38     -2.40
   11    7   12     -2.84     -4.29
   13    7   12      2.26      4.29
   15    7   12      3.38     -2.13
   17    7   12     -0.52      4.54
   19    7   12      1.10     -1.86
   21    7   12      0.12      1.96
   23    7   12     -1.13     -4.91
   25    7   12     -2.82      1.58
   27    7   12      0.19      1.79
   29    7   12      0.20      2.20
   31    7   12     -1.53      0.05
  -38    6   12     -0.26      4.02
  -36    6   12     -4.26     -3.00
  -34    6   12      3.33      3.40
  -32    6   12      3.45     -4.08
  -30    6   12     -3.06      7.36
  -28    6   12     -0.29     -6.58
  -26    6   12      0.20      3.34
  -24    6   12      4.60     -1.70
  -22    6   12     -1.08      6.93
  -20    6   12     -5.05     -9.47
  -18    6   12      1.60      7.21
  -16    6   12     -1.06    -10.55
  -14    6   12      4.20      6.29
  -12    6   12     -5.00     -3.89
  -10    6   12      2.48      2.91
   -8    6   12     -5.81      6.10
   -6    6   12      2.19      5.69
   -4    6   12      1.40     -5.57
   -2    6   12      1.97     -6.29
    0    6   12     -0.39     -5.78
    2    6   12      4.71      7.06
    4    6   12      2.03     -8.97
    6    6   12     -8.21     10.43
    8    6   12      1.17      3.62
   10    6   12     -2.32     -6.78
   12    6   12      2.40     -3.07
   14    6   12      0.58     -3.55
   16    6   12      3.80      7.67
   18    6   12     -1.25     -1.08
   20    6   12     -0.04      5.30
   22    6   12     -1.70     -0.37
   24    6   12      1.72     -6.89
   26    6   12     -2.76      5.06
   28    6   12     -1.02     -0.53
   30    6   12      0.16      2.77
   32    6   12     -0.11     -2.34
  -37    5   12     -2.72     -1.18
  -35    5   12      3.27      1.80
  -33    5   12      0.53     -0.33
  -31    5   12     -3.28      1.98
  -29    5   12     -1.24     -4.55
  -27    5   12      3.02      2.30
  -25    5   12     -0.37      0.83
  -23    5   12     -1.36      3.21
  -21    5   12      0.17     -2.76
  -19    5   12     -0.33     -3.23
  -17    5   12      2.08     -2.38
  -15    5   12     -2.14      2.09
  -13    5   12      5.96     -2.31
  -11    5   12     -2.24     -2.04
   -9    5   12      1.06     11.32
   -7    5   12     -9.45     -1.40
   -5    5   12      0.13      8.67
   -3    5   12      0.59     -5.06
   -1    5   12      8.32    -10.01
    1    5   12      0.05     -2.22
    3    5   12      5.53      2.22
    5    5   12     -2.23      2.49
    7    5   12     -5.69      0.56
    9    5   12     -2.95      4.94
   11    5   12      2.00     -8.42
   13    5   12      3.25     -2.19
   15    5   12      0.42      0.54
   17    5   12     -0.72      1.89
   19    5   12     -2.35      2.61
   21    5   12     -2.32      2.72
   23    5   12      1.80      1.42
   25    5   12      3.29     -1.16
   27    5   12     -4.77     -0.69
   29    5   12      0.48     -0.31
   31    5   12     -0.68      0.24
   33    5   12      3.05     -0.64
  -38    4   12     -2.58     -4.75
  -36    4   12      3.17      8.30
  -34    4   12     -1.54     -4.39
  -32    4   12     -0.27      1.72
  -30    4   12     -3.35     -3.49
  -28    4   12     -1.73      2.83
  -26    4   12      5.64     -0.06
  -24    4   12     -3.19      1.63
  -22    4   12     -3.79     -7.92
  -20    4   12      2.62      8.24
  -18    4   12      2.53     -4.55
  -16    4   12      1.74     -1.30
  -14    4   12     -1.25     -1.45
  -12    4   12     11.72     -1.52
  -10    4   12     -7.98      5.48
   -8    4   12     -1.91      5.21
   -6    4   12     -7.14      5.56
   -4    4   12     -7.17     -5.41
   -2    4   12      3.63     -4.07
    0    4   12     12.95      0.50
    2    4   12      5.90     -5.26
    4    4   12     -4.94     -0.25
    6    4   12     -0.61      5.58
    8    4   12     -3.16      0.51
   10    4   12     -1.29     -1.94
   12    4   12      2.00      0.09
   14    4   12      2.83     -2.23
   16    4   12     -4.56     -1.73
   18    4   12      0.76      1.12
   20    4   12     -1.85     -2.28
   22    4   12     -3.28      7.02
   24    4   12      2.15      3.90
   26    4   12      1.20     -1.35
   28    4   12      0.80     -2.49
   30    4   12     -2.68     -1.49
   32    4   12      1.08      0.73
   34    4   12      0.52     -1.27
  -39    3   12     -0.31     -2.60
  -37    3   12      2.44      2.54
  -35    3   12     -4.64      1.28
  -33    3   12      3.77     -0.41
  -31    3   12     -6.56     -0.58
  -29    3   12      1.88     -3.03
  -27    3   12     -2.18      2.56
  -25    3   12      4.10      2.72
  -23    3   12     -0.78     -6.79
  -21    3   12     -4.10     -2.89
  -19    3   12      0.90      7.37
  -17    3   12      2.44      3.27
  -15    3   12      6.71     -9.59
  -13    3   12      1.57      1.56
  -11    3   12      7.15      4.09
   -9    3   12    -10.04      0.53
   -7    3   12    -10.87     10.17
   -5    3   12     -2.09     -2.59
   -3    3   12     -1.62    -16.81
   -1    3   12      1.57      6.20
    1    3   12     15.05      3.17
    3    3   12     -1.03     -1.11
    5    3   12      8.19     -5.28
    7    3   12    -19.17      6.26
    9    3   12      9.77      2.88
   11    3   12     -0.99     -2.99
   13    3   12     -1.45      0.74
   15    3   12      1.99     -1.94
   17    3   12     -2.31     -3.62
   19    3   12      1.65     -0.79
   21    3   12     -4.41      1.33
   23    3   12      0.39      2.48
   25    3   12     -4.24      6.70
   27    3   12      6.15     -1.96
   29    3   12     -1.77      0.66
   31    3   12     -1.37     -5.83
   33    3   12      0.55      1.00
  -40    2   12      4.67     -0.24
  -38    2   12     -0.04      3.40
  -36    2   12     -2.89     -2.72
  -34    2   12      1.22      2.95
  -32    2   12     -6.80     -1.04
  -30    2   12      4.24     -3.31
  -28    2   12      0.51      2.32
  -26    2   12      0.90     -0.01
  -24    2   12     -4.06     -1.97
  -22    2   12      4.51     -1.16
  -20    2   12     -1.40     -0.62
  -18    2   12     -2.55      3.43
  -16    2   12      4.90      2.86
  -14    2   12      7.75    -10.58
  -12    2   12      4.05     14.50
  -10    2   12     -8.98     -4.54
   -8    2   12     -3.95      0.61
   -6    2   12    -14.22      3.98
   -4    2   12      4.66    -10.02
   -2    2   12      0.84     -1.64
    0    2   12      9.41     -7.09
    2    2   12     -5.73     17.46
    4    2   12     16.45     -7.81
    6    2   12     -6.96      1.77
    8    2   12     -9.80     -1.55
   10    2   12      3.68      6.99
   12    2   12      3.81     -5.56
   14    2   12      2.69      2.22
   16    2   12     -2.66     -2.27
   18    2   12      2.96     -3.73
   20    2   12     -2.93     -0.28
   22    2   12     -1.00     -0.19
   24    2   12     -2.37      3.98
   26    2   12     -2.87      4.62
   28    2   12      1.66     -0.32
   30    2   12      1.75     -2.58
   32    2   12     -2.07     -2.01
   34    2   12      2.38     -0.23
  -39    1   12     -0.55      6.97
  -37    1   12      0.36     -5.86
  -35    1   12     -3.50      4.74
  -33    1   12     -0.77     -2.76
  -31    1   12     -0.18     -2.16
  -29    1   12      3.07      3.96
  -27    1   12      1.18     -0.89
  -25    1   12     -1.97     -1.71
  -23    1   12     -1.27     -3.14
  -21    1   12      1.14      3.45
  -19    1   12      0.50      5.42
  -17    1   12      4.97    -12.74
  -15    1   12      5.69      6.93
  -13    1   12     -3.26      4.37
  -11    1   12     -4.95      3.20
   -9    1   12     -0.46     -7.63
   -7    1   12     -3.28      1.50
   -5    1   12    -14.09      1.93
   -3    1   12     10.19     -9.13
   -1    1   12      1.64      2.31
    1    1   12      1.44      6.25
    3    1   12      9.10    -12.35
    5    1   12     -5.75     18.54
   11    1   12      9.23     -2.44
   13    1   12      2.92      9.73
   15    1   12      3.00     -9.15
   17    1   12     -0.67      2.78
   19    1   12      1.98     -3.90
   21    1   12     -1.28     -0.92
   23    1   12     -5.35      4.40
   25    1   12     -1.79     -1.19
   27    1   12     -1.96      4.76
   29    1   12      1.82     -3.00
   31    1   12      1.86     -0.28
   33    1   12     -2.34      0.32
   35    1   12     -0.07     -1.32
  -40    0   12     -4.61     -0.14
  -38    0   12     -1.69     -0.32
  -36    0   12      2.10      0.43
  -34    0   12     -5.81      0.02
  -32    0   12      3.76      0.56
  -30    0   12      0.70      0.68
  -28    0   12      0.57     -0.30
  -26    0   12     -1.22     -0.33
  -24    0   12      2.52      0.04
  -22    0   12     -2.42     -0.62
  -20    0   12     -5.88      0.39
  -18    0   12     13.65      0.09
  -16    0   12      4.96     -0.90
  -14    0   12      2.38      0.39
  -12    0   12    -27.18     -0.29
  -10    0   12     24.48      0.68
   -8    0   12    -13.87     -0.39
   -6    0   12     -6.90     -0.10
   -4    0   12      2.77      0.21
   -2    0   12     -0.69      1.27
    0    0   12      1.99     -1.15
    2    0   12      8.88     -0.46
    4    0   12      6.07      0.25
    6    0   12    -16.45     -0.98
    8    0   12      2.54      1.29
   10    0   12      4.67     -0.59
   12    0   12     -1.47     -0.10
   14    0   12      5.83      0.06
   16    0   12      3.50     -0.37
   18    0   12      1.26      0.97
   20    0   12     -0.48     -0.44
   22    0   12     -3.57      0.05
   24    0   12     -5.29      0.34
   26    0   12     -1.47      0.27
   28    0   12      0.87      0.09
   30    0   12      0.93      0.04
   32    0   12      1.36     -0.28
   34    0   12     -4.87      0.23
    7    1   12      1.51     -9.56
    9    1   12    -10.83      0.52
    5   11   12      4.71      0.60
    7   11   12     -0.85      2.07
  -14   16   13     -0.11      0.80
  -12   16   13      2.17     -0.39
  -10   16   13     -1.03      0.87
   -8   16   13     -0.17      0.45
   -6   16   13     -1.58     -1.91
   -4   16   13     -0.77      1.89
   -2   16   13      0.87      0.48
    0   16   13      0.02      1.44
    2   16   13      0.49      0.01
    4   16   13     -0.11     -1.30
    6   16   13     -0.84     -2.59
    8   16   13      3.05      0.22
  -19   15   13     -2.08     -0.58
  -17   15   13      0.74      0.20
  -15   15   13      0.74     -0.28
  -13   15   13      3.74     -2.51
  -11   15   13     -4.95      2.37
   -9   15   13      2.98     -2.32
   -7   15   13     -2.59      0.50
   -5   15   13      0.15      0.18
   -3   15   13     -0.84      1.15
   -1   15   13     -1.08      2.58
    1   15   13      0.41     -0.69
    3   15   13     -0.17      0.63
    5   15   13      2.70     -3.59
    7   15   13      2.46      1.05
    9   15   13      0.46     -0.65
   11   15   13     -1.90      0.55
   13   15   13     -0.15      0.36
  -22   14   13     -2.41      0.08
  -20   14   13     -0.47      0.90
  -18   14   13     -0.71     -4.51
  -16   14   13      2.99      4.82
  -14   14   13     -1.39     -4.85
  -12   14   13      1.05      1.25
  -10   14   13     -2.44     -2.32
   -8   14   13      0.71     -1.02
   -6   14   13      0.05      1.54
   -4   14   13     -1.02      1.29
   -2   14   13     -2.41      1.77
    0   14   13     -0.16      1.44
    2   14   13     -0.57     -2.09
    4   14   13      3.98      1.12
    6   14   13      2.22     -2.25
    8   14   13      0.51      3.02
   10   14   13     -0.14     -3.71
   12   14   13     -0.73      3.39
   14   14   13     -3.48     -2.41
   16   14   13      2.37      1.75
   18   14   13     -1.84     -2.17
  -25   13   13      0.11      2.33
  -23   13   13     -3.91     -0.10
  -21   13   13      0.81     -2.66
  -19   13   13      1.60      0.00
  -17   13   13      2.21      1.22
  -15   13   13      0.60     -1.98
  -13   13   13      0.16     -1.27
  -11   13   13     -2.57     -1.28
   -9   13   13      1.24     -1.15
   -7   13   13      0.28     -0.30
   -5   13   13     -0.45      2.10
   -3   13   13     -4.70      3.12
   -1   13   13      1.09     -0.96
    1   13   13     -0.66      1.09
    3   13   13      1.63     -0.34
    5   13   13      3.38     -0.87
    7   13   13      0.32      0.47
    9   13   13     -0.76     -0.30
   11   13   13     -2.97     -0.05
   13   13   13      1.23     -0.36
   15   13   13     -0.93     -1.05
   17   13   13      2.52      1.44
   19   13   13     -0.70     -0.27
   21   13   13     -0.76      0.14
  -28   12   13      1.16      3.28
  -26   12   13     -2.61      0.99
  -24   12   13     -3.42      0.07
  -22   12   13      2.73     -3.96
  -20   12   13     -0.39      0.28
  -18   12   13      4.53     -0.21
  -16   12   13     -0.33     -0.22
  -14   12   13      3.44     -0.13
  -12   12   13     -2.03     -1.05
  -10   12   13     -0.70     -2.53
   -8   12   13      3.07      3.10
   -6   12   13     -1.94     -0.78
   -4   12   13     -4.00      0.09
   -2   12   13     -1.65      3.33
    0   12   13      0.21      0.15
    2   12   13      1.95     -0.88
    4   12   13      1.19     -1.81
    6   12   13      4.42      1.28
    8   12   13     -7.34      0.54
   10   12   13      1.67     -3.52
   12   12   13     -5.15      1.07
   14   12   13      7.47     -1.21
   16   12   13     -2.76      3.35
   18   12   13      3.64     -0.47
   20   12   13     -4.70      0.97
   22   12   13      2.23     -2.04
  -31   11   13      0.42     -2.41
  -29   11   13     -0.39      6.22
  -27   11   13      0.77      1.41
  -25   11   13     -3.29     -0.78
  -23   11   13      1.31     -3.08
  -21   11   13      0.08      0.08
  -19   11   13      2.68     -2.10
  -17   11   13      2.23      0.42
  -15   11   13      2.01     -0.52
  -13   11   13     -1.01      0.20
  -11   11   13      1.91      0.58
   -9   11   13     -0.29      2.01
   -7   11   13      0.03      2.28
   -5   11   13     -1.09     -4.51
   -3   11   13     -3.36      2.03
   -1   11   13     -3.62      1.22
    1   11   13      2.62     -1.77
    3   11   13      3.57      0.28
    5   11   13      0.95      1.12
    7   11   13     -1.96     -3.74
    9   11   13     -3.57      0.08
   11   11   13      0.60     -1.55
   13   11   13      0.23      1.18
   15   11   13      2.89      1.19
   17   11   13     -0.56      3.54
   19   11   13     -2.03     -2.55
   21   11   13      1.17      1.83
   23   11   13     -0.52     -0.62
   25   11   13      0.25     -1.59
  -32   10   13      0.93     -1.60
  -30   10   13      1.18      2.37
  -28   10   13     -3.54      3.81
  -26   10   13      2.82      3.85
  -24   10   13     -1.55     -4.95
  -22   10   13     -0.02      0.76
  -20   10   13      0.58     -3.49
  -18   10   13      1.63      1.75
  -16   10   13      2.77     -2.26
  -14   10   13      1.23     -0.21
  -12   10   13     -1.15      0.79
  -10   10   13     -2.04      4.20
   -8   10   13     -0.38      2.13
   -6   10   13      3.19     -1.78
   -4   10   13     -2.24     -0.54
   -2   10   13     -1.84     -3.76
    0   10   13     -1.23      2.78
    2   10   13      0.56     -2.99
    4   10   13      0.65      3.69
    6   10   13      0.74     -3.94
    8   10   13      4.89     -1.01
   10   10   13     -6.77      1.52
   12   10   13      3.73     -2.88
   14   10   13     -1.88      6.27
   16   10   13      2.79     -1.96
   18   10   13     -4.62      1.25
   20   10   13      1.76     -0.58
   22   10   13     -1.41      1.86
   24   10   13      0.12     -1.26
   26   10   13      2.20     -3.10
  -33    9   13      1.79     -3.37
  -31    9   13      1.20      2.93
  -29    9   13      0.36      1.94
  -27    9   13     -0.32      4.97
  -25    9   13     -3.15     -1.33
  -23    9   13      2.36      1.49
  -21    9   13     -1.44     -6.09
  -19    9   13     -0.78      2.57
  -17    9   13      3.87     -1.12
  -15    9   13     -1.00     -0.69
  -13    9   13      1.85      0.23
  -11    9   13     -4.55     -0.72
   -9    9   13     -3.29      3.90
   -7    9   13      3.42     -0.39
   -5    9   13      1.78      0.80
   -3    9   13      0.94     -3.51
   -1    9   13     -0.67     -1.28
    1    9   13     -4.18      1.41
    3    9   13      0.11     -3.62
    5    9   13      2.05      1.47
    7    9   13      2.27      3.13
    9    9   13      3.01     -0.71
   11    9   13     -0.51     -2.99
   13    9   13      0.25      4.91
   15    9   13     -2.36     -0.49
   17    9   13     -0.78      1.57
   19    9   13      0.14     -3.19
   21    9   13     -2.90     -0.78
   23    9   13      1.54      3.06
   25    9   13      0.48     -2.21
   27    9   13      1.05     -0.03
   29    9   13     -1.61      0.58
  -34    8   13      0.41     -1.07
  -32    8   13      3.11     -1.75
  -30    8   13      2.85      4.77
  -28    8   13     -2.37      3.93
  -26    8   13     -1.00     -1.23
  -24    8   13     -3.79      0.13
  -22    8   13      3.73      0.08
  -20    8   13     -1.13     -2.39
  -18    8   13     -0.93      1.29
  -16    8   13     -0.05     -1.85
  -14    8   13     -1.01      0.16
  -12    8   13      0.20     -1.27
  -10    8   13     -2.84      3.08
   -8    8   13     -1.74     -4.46
   -6    8   13      6.10      4.85
   -4    8   13     -2.12     -6.04
   -2    8   13      3.92      3.99
    0    8   13     -3.10     -8.06
    2    8   13     -1.04      5.89
    4    8   13     -1.76     -2.17
    6    8   13      2.90      5.36
    8    8   13      0.24     -1.82
   10    8   13      3.02     -0.42
   12    8   13      4.06      3.47
   14    8   13     -4.19     -2.84
   16    8   13     -1.25      4.67
   18    8   13     -0.37     -4.44
   20    8   13      1.23     -0.91
   22    8   13     -2.26     -1.57
   24    8   13     -0.28      3.62
   26    8   13     -0.17      0.43
   28    8   13      0.42     -0.18
   30    8   13     -1.48      0.18
  -37    7   13     -2.70      2.55
  -35    7   13      3.91     -3.52
  -33    7   13     -0.73     -0.48
  -31    7   13      7.80      4.02
  -29    7   13     -6.68      2.22
  -27    7   13      0.53      0.88
  -25    7   13     -0.55     -3.19
  -23    7   13      2.08      1.25
  -21    7   13     -5.61      2.61
  -19    7   13      6.95     -3.17
  -17    7   13     -9.50     -2.14
  -15    7   13      7.66     -1.32
  -13    7   13     -6.33      1.99
  -11    7   13      0.37      2.34
   -9    7   13     -0.18     -0.64
   -7    7   13      3.70      0.75
   -5    7   13      0.46     -5.06
   -3    7   13      0.28     -3.24
   -1    7   13      0.65      1.06
    1    7   13      5.36      0.42
    3    7   13    -11.28     -0.57
    5    7   13      1.14      7.97
    7    7   13      2.66     -2.47
    9    7   13     -1.22     -0.89
   11    7   13      4.42     -1.31
   13    7   13     -0.46      0.73
   15    7   13      3.06      3.33
   17    7   13     -4.80     -1.59
   19    7   13      3.55      1.04
   21    7   13     -0.27     -0.76
   23    7   13     -5.34     -3.46
   25    7   13      1.40      4.48
   27    7   13     -1.62      1.14
   29    7   13      0.95     -0.88
   31    7   13     -0.18     -0.49
  -36    6   13     -0.46     -0.85
  -34    6   13      4.36     -2.03
  -32    6   13      1.72      4.94
  -30    6   13     -5.49     -1.09
  -28    6   13      1.24     -1.72
  -26    6   13      0.03      3.17
  -24    6   13      3.18      0.26
  -22    6   13     -4.27     -1.35
  -20    6   13      0.91     -0.65
  -18    6   13     -1.33     -4.76
  -16    6   13      4.52      3.15
  -14    6   13     -2.22     -1.80
  -12    6   13     -2.81      4.29
  -10    6   13      1.03      0.69
   -8    6   13     -2.55      5.32
   -6    6   13      4.74     -2.43
   -4    6   13      3.26     -9.41
   -2    6   13     -0.88     -3.33
    0    6   13      1.80      5.55
    2    6   13      0.38     -2.34
    4    6   13     -4.43      0.72
    6    6   13     -7.35      5.43
    8    6   13      4.22      1.32
   10    6   13     -0.24     -8.92
   12    6   13      3.56      0.83
   14    6   13      3.42      1.97
   16    6   13     -1.91      3.47
   18    6   13      0.05      3.11
   20    6   13     -1.95      1.40
   22    6   13      0.02     -2.42
   24    6   13     -1.75     -4.17
   26    6   13     -0.87      4.37
   28    6   13     -0.59      0.24
   30    6   13      1.15     -0.75
   32    6   13      1.37     -3.47
  -37    5   13      4.79     -1.35
  -35    5   13     -1.67      1.38
  -33    5   13      1.71      0.46
  -31    5   13     -4.75     -1.66
  -29    5   13      2.59     -0.47
  -27    5   13     -1.25     -0.66
  -25    5   13      1.27      3.96
  -23    5   13     -5.34     -1.00
  -21    5   13      8.79     -3.77
  -19    5   13     -5.31     -1.47
  -17    5   13      6.07     -0.20
  -15    5   13     -3.46      4.63
  -13    5   13      4.32     -2.93
  -11    5   13     -3.31      7.00
   -9    5   13     -3.82      1.60
   -7    5   13     -2.85      2.16
   -5    5   13      3.59     -2.02
   -3    5   13      3.70     -5.66
   -1    5   13      6.99     -7.10
    1    5   13     -6.38      3.18
    3    5   13      6.91      1.52
    5    5   13     -8.38     -0.82
    7    5   13     -6.22      2.88
    9    5   13      1.49     -2.37
   11    5   13      3.81     -3.45
   13    5   13      3.71     -0.70
   15    5   13     -1.34      5.29
   17    5   13      0.33      1.79
   19    5   13     -7.08      3.43
   21    5   13      1.29      1.55
   23    5   13      2.91     -2.17
   25    5   13     -1.38     -2.50
   27    5   13     -0.90      0.12
   29    5   13     -0.60     -0.43
   31    5   13      3.08     -0.53
   33    5   13      1.41     -1.50
  -38    4   13      2.54     -2.42
  -36    4   13     -0.93      7.50
  -34    4   13      0.68     -7.76
  -32    4   13     -4.25      2.04
  -30    4   13      1.89     -1.09
  -28    4   13     -1.41      1.62
  -26    4   13      4.29     -2.41
  -24    4   13     -5.67     -2.43
  -22    4   13      0.24      0.66
  -20    4   13      4.58      3.17
  -18    4   13      4.61     -1.64
  -16    4   13     -4.50     -1.22
  -14    4   13      4.72      2.76
  -12    4   13      1.83      1.12
  -10    4   13    -10.60      6.51
   -8    4   13      1.00      0.11
   -6    4   13     -6.42      0.59
   -4    4   13     -2.51     -7.96
   -2    4   13     13.86      1.61
    0    4   13      6.21     -5.69
    2    4   13     -0.43      2.14
    4    4   13     -2.66     -1.99
    6    4   13     -3.17      6.12
    8    4   13     -3.69     -3.69
   10    4   13      0.41     -3.54
   12    4   13      2.62      4.85
   14    4   13      0.85     -3.64
   16    4   13     -2.91      4.17
   18    4   13     -1.32     -1.69
   20    4   13     -4.35      3.77
   22    4   13      0.86      0.96
   24    4   13      2.97      3.61
   26    4   13     -0.01     -7.06
   28    4   13      1.92      0.31
   30    4   13     -3.31     -1.43
   32    4   13      4.42      2.01
  -39    3   13      3.15      0.84
  -37    3   13     -5.81      3.53
  -35    3   13      4.01     -3.95
  -33    3   13     -2.67      2.38
  -31    3   13     -2.04     -4.34
  -29    3   13      0.96      1.11
  -27    3   13      3.29      0.78
  -25    3   13     -0.67     -2.24
  -23    3   13      2.11     -5.52
  -21    3   13     -6.97      3.87
  -19    3   13      6.65      7.11
  -17    3   13      3.58     -1.42
  -15    3   13     -1.19     -6.86
  -13    3   13      3.97      6.58
  -11    3   13     -5.20      0.94
   -9    3   13     -9.55      3.35
   -7    3   13     -3.68      3.12
   -5    3   13     -2.33    -13.87
   -3    3   13      7.74     -2.07
   -1    3   13      1.98      2.28
    1    3   13     14.80     11.16
    3    3   13     -1.13    -12.73
    5    3   13     -7.35      8.00
    7    3   13     -3.13      2.12
    9    3   13      2.71     -4.23
   11    3   13     -1.64     -1.02
   13    3   13      0.55      1.29
   15    3   13     -0.89     -0.61
   17    3   13     -2.14     -3.06
   19    3   13      0.12      1.34
   21    3   13     -5.34      1.13
   23    3   13      2.23      3.14
   25    3   13      0.75      3.13
   27    3   13      2.73     -3.83
   29    3   13     -0.60     -2.12
   31    3   13     -1.06     -0.24
   33    3   13      2.60     -0.49
  -40    2   13      2.46      0.51
  -38    2   13     -3.54      2.49
  -36    2   13     -0.60     -2.74
  -34    2   13      0.46      2.60
  -32    2   13     -4.23     -4.01
  -30    2   13      6.50     -0.10
  -28    2   13      0.20     -1.08
  -26    2   13     -0.59      2.29
  -24    2   13     -0.62     -3.84
  -22    2   13      3.52     -0.30
  -20    2   13     -1.05      3.08
  -18    2   13     -2.79      2.73
  -16    2   13      7.66     -2.84
  -14    2   13      0.10     -1.47
  -12    2   13     -3.46      7.75
  -10    2   13     -8.22     -3.54
   -8    2   13     -7.24     -2.14
   -6    2   13     -0.94      0.62
   -4    2   13      9.05    -12.73
   -2    2   13      1.89     -0.01
    0    2   13      7.85     13.10
    2    2   13     -3.68     -1.20
    4    2   13      9.93     10.97
    6    2   13    -15.33    -15.32
    8    2   13     -0.14     12.88
   10    2   13      6.42     -9.17
   12    2   13      2.87      1.08
   14    2   13     -3.43     -0.01
   16    2   13     -0.98     -1.27
   18    2   13      0.38     -3.68
   20    2   13     -3.69     -1.62
   22    2   13     -0.22      6.18
   24    2   13     -3.21      0.54
   26    2   13      3.59      3.93
   28    2   13     -1.92     -3.19
   30    2   13      3.62     -3.62
   32    2   13     -2.03      1.79
   34    2   13      1.52     -0.57
  -39    1   13     -3.60      2.11
  -37    1   13      1.20     -4.04
  -35    1   13     -2.83      5.41
  -33    1   13     -0.56     -6.94
  -31    1   13      6.25      2.42
  -29    1   13     -1.28      0.19
  -27    1   13      2.79      0.26
  -25    1   13     -4.63     -3.69
  -23    1   13      2.38      0.67
  -21    1   13      2.12      6.06
  -19    1   13      3.27     -4.62
  -17    1   13     -0.24     -2.69
  -15    1   13      3.81      0.29
  -13    1   13    -13.51     14.59
  -11    1   13      0.49    -15.74
   -9    1   13     -1.92      4.89
   -7    1   13     -6.46     -2.09
   -5    1   13      9.24     -6.09
   -3    1   13      2.36     -0.54
   -1    1   13     11.94      3.62
    1    1   13    -13.13      4.03
    3    1   13      7.88      3.19
    5    1   13    -11.42      5.27
    9    1   13      3.72     -4.56
   11    1   13      7.46      6.52
   13    1   13      2.05     -1.64
   15    1   13     -4.12     -3.46
   17    1   13      1.45      0.44
   19    1   13     -1.29     -3.98
   21    1   13     -2.79      2.29
   23    1   13     -4.02      3.44
   25    1   13     -1.44      0.71
   27    1   13      2.22      0.66
   29    1   13      1.52     -1.87
   31    1   13     -0.43     -2.06
   33    1   13     -1.01      3.45
  -40    0   13     -7.36      0.10
  -38    0   13      5.12      0.13
  -36    0   13     -6.57      0.50
  -34    0   13      2.66      0.43
  -32    0   13      3.53     -0.16
  -30    0   13      0.22      0.35
  -28    0   13      1.19     -1.10
  -26    0   13     -2.62     -0.20
  -24    0   13      3.34     -0.11
  -22    0   13     -2.56      0.19
  -20    0   13      0.19     -0.05
  -18    0   13     15.49      0.12
  -16    0   13     -5.14     -0.65
  -14    0   13    -11.87     -0.04
  -12    0   13     -8.43      0.73
  -10    0   13      9.88     -0.60
   -8    0   13     -5.42      0.46
   -6    0   13     -5.03     -0.57
   -4    0   13     18.36      1.02
   -2    0   13     -0.99     -0.07
    0    0   13     -5.31     -0.52
    2    0   13     10.56     -0.07
    4    0   13    -22.51     -0.09
    6    0   13      4.39     -0.15
    8    0   13      0.94      0.60
   10    0   13     14.21     -0.38
   12    0   13     -7.61     -0.08
   14    0   13      9.80      0.24
   16    0   13     -5.63      0.17
   18    0   13      2.16      0.11
   20    0   13     -2.50      0.22
   22    0   13     -6.18     -0.56
   24    0   13     -1.24      1.01
   26    0   13     -1.90     -0.26
   28    0   13      5.11     -0.15
   30    0   13     -0.59      0.08
   32    0   13     -1.94     -0.50
   34    0   13     -1.09      0.22
    7    1   13     -0.02     -6.60
  -12   16   14      1.53      3.50
  -10   16   14     -1.57     -2.61
   -8   16   14     -0.52      1.95
   -6   16   14     -0.10     -1.19
   -4   16   14     -1.19      0.63
   -2   16   14      1.51      1.97
    0   16   14     -0.19     -1.31
    2   16   14      1.06      0.16
    4   16   14     -1.37     -2.90
    6   16   14      1.28     -1.23
  -19   15   14     -2.80     -0.63
  -17   15   14      4.81      0.57
  -15   15   14     -2.61     -2.27
  -13   15   14      1.80      0.85
  -11   15   14     -3.13      0.04
   -9   15   14      0.74      0.81
   -7   15   14      0.62     -0.31
   -5   15   14     -1.66      1.15
   -3   15   14      0.15      1.12
   -1   15   14      0.66     -0.11
    1   15   14     -0.03      0.24
    3   15   14      2.71     -1.72
    5   15   14      1.28     -3.13
    7   15   14      2.37      2.78
    9   15   14     -3.82     -1.75
   11   15   14      0.30      2.38
   13   15   14     -2.44      0.49
  -22   14   14     -1.95     -1.40
  -20   14   14     -0.16     -0.92
  -18   14   14      1.68     -0.55
  -16   14   14     -0.98     -1.05
  -14   14   14      1.20     -0.64
  -12   14   14     -3.85     -1.97
  -10   14   14      1.29      1.70
   -8   14   14     -0.32      0.73
   -6   14   14      0.08      1.37
   -4   14   14     -0.01      2.02
   -2   14   14     -2.69     -0.44
    0   14   14      2.78      0.10
    2   14   14      0.82     -0.71
    4   14   14      4.51     -0.97
    6   14   14      0.19      0.48
    8   14   14     -0.34     -0.24
   10   14   14     -2.22     -0.40
   12   14   14     -1.08      1.55
   14   14   14     -2.16     -0.36
   16   14   14      2.61     -1.04
  -25   13   14     -1.88      2.10
  -23   13   14     -1.00     -3.26
  -21   13   14      0.85      0.14
  -19   13   14      3.45     -2.05
  -17   13   14     -1.22      2.18
  -15   13   14      2.05     -5.02
  -13   13   14     -3.32      1.05
  -11   13   14     -1.66     -1.06
   -9   13   14      2.27      1.04
   -7   13   14     -1.48      2.18
   -5   13   14     -1.43      2.26
   -3   13   14     -1.03      0.38
   -1   13   14      0.13     -0.21
    1   13   14      2.60     -1.34
    3   13   14      0.74      2.42
    5   13   14      3.44     -3.90
    7   13   14     -2.15      3.48
    9   13   14      0.11     -3.39
   11   13   14     -3.77      4.29
   13   13   14      2.08     -5.01
   15   13   14     -0.25      4.90
   17   13   14      1.30     -4.60
   19   13   14     -0.78      3.34
  -28   12   14      0.01      0.89
  -26   12   14     -4.48      1.07
  -24   12   14      0.89     -4.30
  -22   12   14      1.88     -0.19
  -20   12   14      2.58     -1.69
  -18   12   14      1.62      1.13
  -16   12   14      1.05     -0.78
  -14   12   14      0.39      0.27
  -12   12   14     -3.59     -2.39
  -10   12   14      1.35      2.16
   -8   12   14     -0.16      1.56
   -6   12   14     -3.05      0.11
   -4   12   14     -2.96      0.21
   -2   12   14      0.76      2.30
    0   12   14      0.93     -1.57
    2   12   14      1.43     -1.57
    4   12   14      3.45     -0.21
    6   12   14     -3.09      1.07
    8   12   14     -0.47      0.01
   10   12   14     -3.07     -1.58
   12   12   14      2.56      1.41
   14   12   14      1.22      0.13
   16   12   14      1.51      1.57
   18   12   14     -2.65     -0.89
   20   12   14      0.85     -1.01
   22   12   14      0.34     -0.02
  -29   11   14     -0.97      5.01
  -27   11   14      1.16     -2.10
  -25   11   14     -3.48     -4.06
  -23   11   14      3.63     -0.63
  -21   11   14     -0.05     -2.23
  -19   11   14      4.67      1.68
  -17   11   14      0.30     -0.35
  -15   11   14      0.57      0.86
  -13   11   14     -1.38      0.67
  -11   11   14      0.74      1.09
   -9   11   14     -2.64      2.55
   -7   11   14      0.15     -1.51
   -5   11   14     -2.21     -2.15
   -3   11   14     -3.67      1.08
   -1   11   14      0.95     -1.46
    1   11   14      1.98     -0.18
    3   11   14      4.24     -0.84
    5   11   14     -2.09      2.30
    7   11   14     -3.00     -5.32
    9   11   14      0.15      5.41
   11   11   14     -1.57     -3.81
   13   11   14      4.53      5.03
   15   11   14     -1.54     -2.17
   17   11   14      1.04      3.46
   19   11   14     -2.66     -3.85
   21   11   14      2.41      2.36
   23   11   14     -0.46     -0.80
   25   11   14     -0.32     -2.39
  -32   10   14      3.61      1.15
  -30   10   14     -2.60      3.42
  -28   10   14      0.87      3.02
  -26   10   14     -0.67     -2.66
  -24   10   14      2.47     -4.07
  -22   10   14     -3.26     -1.75
  -20   10   14      4.30      1.35
  -18   10   14      0.36     -0.30
  -16   10   14      2.05      1.27
  -14   10   14     -0.40     -1.00
  -12   10   14     -2.83      4.42
  -10   10   14     -1.87      1.34
   -8   10   14     -0.10     -0.46
   -6   10   14      2.25     -1.67
   -4   10   14     -3.01     -2.43
   -2   10   14     -0.46     -2.75
    0   10   14      2.54      1.26
    2   10   14     -2.25     -0.10
    4   10   14      2.03      0.55
    6   10   14      3.97     -0.28
    8   10   14     -2.87     -0.84
   10   10   14     -3.08      1.94
   12   10   14      1.70      0.02
   14   10   14      0.49      2.38
   16   10   14     -0.32     -0.52
   18   10   14     -0.62     -1.12
   20   10   14     -1.57      1.78
   22   10   14      1.11     -0.08
   24   10   14      0.41     -2.52
   26   10   14      0.57     -1.34
  -33    9   14      1.45      1.00
  -31    9   14      2.53      3.72
  -29    9   14     -1.41      1.79
  -27    9   14     -2.54      1.23
  -25    9   14      1.33     -2.04
  -23    9   14     -0.79     -3.82
  -21    9   14      0.05     -1.10
  -19    9   14     -0.50      0.76
  -17    9   14      3.01      0.21
  -15    9   14     -1.45      1.41
  -13    9   14     -0.67     -0.95
  -11    9   14     -4.00      1.89
   -9    9   14     -1.76      0.47
   -7    9   14      5.67     -0.85
   -5    9   14     -1.63     -1.41
   -3    9   14      5.37     -1.90
   -1    9   14     -6.32      0.95
    1    9   14      3.51     -1.78
    3    9   14     -4.14      0.33
    5    9   14      7.06      1.30
    7    9   14      0.46      6.26
    9    9   14     -1.94     -6.17
   11    9   14      2.14      1.20
   13    9   14     -6.33      1.52
   15    9   14      3.74      2.39
   17    9   14     -3.03     -3.60
   19    9   14      0.53      0.31
   21    9   14     -2.48     -0.13
   23    9   14      1.77      0.46
   25    9   14      1.46     -0.71
   27    9   14     -1.01     -1.12
  -34    8   14      3.43      2.70
  -32    8   14      2.05     -0.55
  -30    8   14      0.76      6.48
  -28    8   14     -3.51      0.44
  -26    8   14     -1.84     -3.43
  -24    8   14     -1.18      0.10
  -22    8   14      3.23     -1.52
  -20    8   14     -2.22     -4.14
  -18    8   14     -0.86      4.25
  -16    8   14     -0.19     -4.35
  -14    8   14     -1.36      3.74
  -12    8   14      0.29     -0.99
  -10    8   14     -3.07     -1.49
   -8    8   14      4.09     -0.77
   -6    8   14      1.73     -0.99
   -4    8   14      1.79      1.31
   -2    8   14      0.32      0.83
    0    8   14     -2.93     -3.13
    2    8   14     -0.19      4.71
    4    8   14      1.24      1.15
    6    8   14      0.12      0.82
    8    8   14      2.61      1.25
   10    8   14      3.18     -3.10
   12    8   14     -3.12      1.92
   14    8   14     -0.74     -0.55
   16    8   14     -4.90      2.19
   18    8   14      3.76     -4.18
   20    8   14     -0.82     -1.73
   22    8   14     -3.62      2.65
   24    8   14      2.32      0.71
   26    8   14      0.11      0.60
   28    8   14     -1.60     -1.27
  -35    7   14      1.57     -3.14
  -33    7   14      5.22      2.44
  -31    7   14     -1.68      6.10
  -29    7   14     -3.96     -1.64
  -27    7   14      0.69      1.33
  -25    7   14     -0.93     -5.31
  -23    7   14      0.05      3.61
  -21    7   14      1.29     -3.33
  -19    7   14     -2.37     -1.53
  -17    7   14      0.60     -1.89
  -15    7   14     -1.77      0.93
  -13    7   14     -0.51      3.98
  -11    7   14     -1.64     -0.95
   -9    7   14      5.61     -3.38
   -7    7   14      1.84      0.41
   -5    7   14     -0.48     -6.64
   -3    7   14     -0.91      5.53
   -1    7   14      4.47      0.62
    1    7   14     -6.51      1.97
    3    7   14     -3.91      1.59
    5    7   14      0.26      3.93
    7    7   14      5.66     -3.62
    9    7   14     -0.52     -1.78
   11    7   14      4.02      2.40
   13    7   14     -0.23     -1.48
   15    7   14     -4.77      3.75
   17    7   14      1.03     -2.31
   19    7   14      0.39     -0.11
   21    7   14     -0.46     -1.71
   23    7   14     -5.12      0.52
   25    7   14      2.48      1.97
   27    7   14     -0.11      0.70
   29    7   14      0.59     -3.35
  -36    6   14      3.88      0.27
  -34    6   14      1.56     -0.40
  -32    6   14     -0.66      5.06
  -30    6   14     -4.87     -3.42
  -28    6   14      0.78      2.23
  -26    6   14      2.02     -0.49
  -24    6   14      0.18      2.36
  -22    6   14     -1.17     -8.22
  -20    6   14      1.42      5.38
  -18    6   14      0.39     -7.63
  -16    6   14      1.09      8.45
  -14    6   14     -2.45     -2.51
  -12    6   14     -2.70      3.76
  -10    6   14      2.48      0.07
   -8    6   14      1.47     -0.45
   -6    6   14      4.26     -7.65
   -4    6   14      0.85     -2.84
   -2    6   14     -2.40      0.49
    0    6   14     -0.91     12.07
    2    6   14     -1.84    -11.77
    4    6   14     -9.14      6.96
    6    6   14      3.47      2.30
    8    6   14      1.39     -4.05
   10    6   14      5.54     -2.33
   12    6   14      1.84      2.55
   14    6   14     -0.30      3.95
   16    6   14     -2.51     -0.70
   18    6   14     -1.54      5.37
   20    6   14     -1.04     -3.59
   22    6   14      0.36     -3.84
   24    6   14     -2.70      0.20
   26    6   14      1.84      1.75
   28    6   14      0.30     -0.56
   30    6   14      1.97     -2.35
  -37    5   14      5.29      1.27
  -35    5   14     -3.06     -1.46
  -33    5   14     -1.61      3.27
  -31    5   14      1.16     -5.49
  -29    5   14     -1.33      3.38
  -27    5   14     -0.71     -1.42
  -25    5   14     -0.89      3.26
  -23    5   14      3.38     -3.29
  -21    5   14      2.37     -0.45
  -19    5   14      1.29     -3.12
  -17    5   14     -1.73      9.03
  -15    5   14      0.86     -1.89
  -13    5   14     -1.03      2.29
  -11    5   14     -3.15      4.05
   -9    5   14     -2.75     -4.97
   -7    5   14      3.17      0.90
   -5    5   14      4.47     -4.87
   -3    5   14      4.11     -4.87
   -1    5   14     -4.66      0.93
    1    5   14      0.30      2.63
    3    5   14     -0.97     -1.24
    5    5   14     -7.15     -1.66
    7    5   14     -2.39      4.61
    9    5   14      4.01     -5.86
   11    5   14      6.62      4.13
   13    5   14     -0.88      0.87
   15    5   14      0.44      5.37
   17    5   14     -5.90      0.37
   19    5   14     -2.23      2.19
   21    5   14      0.45     -3.26
   23    5   14      5.35     -3.25
   25    5   14     -3.74     -0.29
   27    5   14      2.43     -1.45
   29    5   14     -0.62      2.04
   31    5   14      5.28     -2.80
  -38    4   14      1.20      5.32
  -36    4   14     -0.79     -5.09
  -34    4   14     -1.76     -0.91
  -32    4   14     -0.65     -0.16
  -30    4   14      1.52      2.50
  -28    4   14      0.84     -3.82
  -26    4   14     -1.87     -0.37
  -24    4   14     -0.75     -3.49
  -22    4   14      2.04      9.36
  -20    4   14      6.28     -3.22
  -18    4   14     -1.46      3.10
  -16    4   14     -3.77     -1.02
  -14    4   14      3.03      5.26
  -12    4   14     -4.91     -1.28
  -10    4   14     -4.46      2.71
   -8    4   14      1.13     -4.19
   -6    4   14     -2.79     -1.81
   -4    4   14      6.00     -4.75
   -2    4   14      8.33      2.35
    0    4   14      3.05     -4.83
    2    4   14     -5.72      2.23
    4    4   14     -0.70      2.67
    6    4   14     -3.70     -2.92
    8    4   14     -4.77     -0.75
   10    4   14      3.91      0.70
   12    4   14      2.29      3.62
   14    4   14     -0.85      1.30
   16    4   14     -3.58      2.35
   18    4   14     -1.90     -3.50
   20    4   14     -2.67      4.52
   22    4   14      3.98     -3.05
   24    4   14      3.80      0.42
   26    4   14     -1.19     -3.98
   28    4   14      1.73     -0.31
   30    4   14     -0.24      2.32
   32    4   14      2.62     -0.32
  -39    3   14      4.05      2.50
  -37    3   14     -8.18     -1.12
  -35    3   14      9.31     -4.61
  -33    3   14     -7.12      1.58
  -31    3   14      2.08     -0.81
  -29    3   14      0.56     -1.18
  -27    3   14      4.56      0.48
  -25    3   14     -2.40     -4.35
  -23    3   14     -0.50      0.62
  -21    3   14     -2.62      8.07
  -19    3   14      6.88      3.75
  -17    3   14     -2.93     -5.62
  -15    3   14     -1.20     -0.76
  -13    3   14     -0.68      4.65
  -11    3   14     -6.83     -1.78
   -9    3   14     -2.54      3.19
   -7    3   14     -0.89     -5.25
   -5    3   14      4.77    -11.43
   -3    3   14      4.15      8.06
   -1    3   14     10.49      3.18
    1    3   14     -0.85      2.98
    3    3   14      3.98     -4.68
    5    3   14    -16.35      4.32
    7    3   14      7.06     -0.36
    9    3   14     -2.44     -8.20
   11    3   14     -3.44      5.13
   13    3   14      3.52      1.02
   15    3   14     -4.49     -0.17
   17    3   14      0.82     -3.02
   19    3   14     -4.54      1.07
   21    3   14      3.39      2.46
   23    3   14     -0.95      1.44
   25    3   14      5.58     -1.34
   27    3   14     -0.77     -0.08
   29    3   14     -0.41     -4.52
   31    3   14      0.87      5.02
   33    3   14      1.57     -2.21
  -38    2   14     -3.94     -4.49
  -36    2   14      6.09      1.13
  -34    2   14     -6.06     -1.19
  -32    2   14      6.03     -4.50
  -30    2   14     -1.37      2.88
  -28    2   14      4.44     -2.69
  -26    2   14     -3.99      2.74
  -24    2   14      2.59     -2.02
  -22    2   14      0.98      0.43
  -20    2   14     -2.91      5.23
  -18    2   14     -1.36     -0.30
  -16    2   14      2.07     -6.57
  -14    2   14     -0.51      5.57
  -12    2   14     -8.69      0.38
  -10    2   14     -1.91     -3.77
   -8    2   14     -1.25      1.65
   -6    2   14      7.13    -11.30
   -4    2   14      5.93      4.38
   -2    2   14      4.26     -2.99
    0    2   14     -4.14     21.99
    2    2   14      6.88     -6.59
    4    2   14     -7.87      2.61
    6    2   14     -4.80     -4.52
    8    2   14      3.18     -3.04
   10    2   14      6.99     -1.87
   12    2   14     -5.00     -0.98
   14    2   14     -3.94      3.15
   16    2   14      1.88     -4.26
   18    2   14     -3.47     -1.61
   20    2   14     -0.25      0.86
   22    2   14      0.09      6.21
   24    2   14     -0.09      0.63
   26    2   14      3.42     -0.99
   28    2   14     -0.64     -2.27
   30    2   14     -0.22     -1.41
   32    2   14      2.23      2.08
   34    2   14     -1.46     -0.34
  -39    1   14     -1.94     -3.44
  -37    1   14      1.85      1.20
  -35    1   14     -0.50     -0.58
  -33    1   14      2.77     -5.40
  -31    1   14      3.76      3.46
  -29    1   14      0.08     -1.40
  -27    1   14     -3.27      1.36
  -25    1   14      0.74     -3.79
  -23    1   14      2.06      5.49
  -21    1   14      2.12      1.47
  -19    1   14     -0.36     -6.42
  -17    1   14     -2.41     -1.13
  -15    1   14     -3.68      5.63
  -13    1   14     -8.23      3.05
  -11    1   14      2.47     -9.88
   -9    1   14      1.83      2.49
   -7    1   14      1.04      0.31
   -5    1   14     12.73     -7.49
   -3    1   14      2.22      3.47
   -1    1   14     -6.32     11.55
    1    1   14     -3.06     -4.03
    3    1   14    -10.29     14.25
    5    1   14      6.06    -12.59
    9    1   14     15.16     -5.69
   11    1   14     -1.74      7.81
   13    1   14     -2.44     -5.91
   15    1   14     -6.08      0.12
   17    1   14      2.60     -0.73
   19    1   14     -1.84     -2.13
   21    1   14     -4.24      4.22
   23    1   14      0.25      2.22
   25    1   14      0.40      1.62
   27    1   14      2.61     -4.23
   29    1   14      1.47      0.59
   31    1   14     -2.76     -0.90
   33    1   14      1.12      2.15
  -40    0   14     -4.60      0.05
  -38    0   14      5.74      0.67
  -36    0   14     -6.37      0.10
  -34    0   14      9.07     -0.60
  -32    0   14      0.68      0.00
  -30    0   14     -0.39     -0.89
  -28    0   14     -0.04     -0.36
  -26    0   14     -3.01     -0.29
  -24    0   14      5.69      0.92
  -22    0   14     -4.89     -0.20
  -20    0   14      7.68      0.33
  -18    0   14      2.12     -0.81
  -16    0   14     -5.66      0.34
  -14    0   14    -22.41     -0.34
  -12    0   14     16.45      0.64
  -10    0   14     -2.56     -0.16
   -8    0   14      0.12     -0.01
   -6    0   14     13.06      0.41
   -4    0   14      3.06      0.29
   -2    0   14      1.15      0.03
    0    0   14    -16.34     -0.57
    2    0   14      0.70      0.58
    4    0   14    -13.48     -1.21
    6    0   14      8.78      1.24
    8    0   14     18.48     -0.84
   10    0   14     -5.62      0.42
   12    0   14      4.53      0.17
   14    0   14     -5.96     -0.14
   16    0   14     -2.06      0.64
   18    0   14      1.34     -0.62
   20    0   14     -4.84      0.21
   22    0   14     -2.50      0.03
   24    0   14     -0.57      0.17
   26    0   14      2.46      0.02
   28    0   14      3.27     -0.49
   30    0   14     -0.91     -0.14
   32    0   14     -3.91      0.06
   34    0   14      2.71     -0.17
    7    1   14     -2.76     -0.78
  -10   16   15      0.29      0.09
   -8   16   15     -0.77     -1.46
   -6   16   15     -0.23      1.39
   -4   16   15      0.03     -0.86
   -2   16   15      0.22      0.90
    0   16   15      1.10     -1.00
    2   16   15      0.00     -1.38
    4   16   15     -1.50     -1.79
  -17   15   15      0.65      0.53
  -15   15   15      0.69     -2.68
  -13   15   15     -3.92      3.30
  -11   15   15      3.06     -0.71
   -9   15   15     -1.20      1.02
   -7   15   15      1.25      0.40
   -5   15   15     -0.50     -1.47
   -3   15   15     -0.42      2.26
   -1   15   15      2.01     -2.73
    1   15   15      0.44      1.62
    3   15   15      1.90     -4.14
    5   15   15      0.85      1.17
    7   15   15     -1.13      0.45
    9   15   15     -3.52      1.22
   11   15   15      0.23      0.72
  -22   14   15     -0.08     -0.74
  -20   14   15     -0.35     -2.65
  -18   14   15      1.21      2.67
  -16   14   15     -1.46     -5.11
  -14   14   15     -0.71      3.22
  -12   14   15     -1.48     -1.27
  -10   14   15      1.33      3.12
   -8   14   15      1.44      1.56
   -6   14   15     -0.08     -0.32
   -4   14   15     -0.68     -0.02
   -2   14   15      0.91      0.02
    0   14   15      0.74     -2.00
    2   14   15      4.55      1.70
    4   14   15     -0.53     -2.80
    6   14   15      0.06      3.18
    8   14   15     -2.94     -4.11
   10   14   15     -1.03      5.01
   12   14   15     -2.93     -2.89
   14   14   15      2.96      1.92
   16   14   15     -1.17     -3.22
  -25   13   15     -2.23     -1.86
  -23   13   15      1.85     -0.84
  -21   13   15      0.33     -2.02
  -19   13   15      1.73      1.20
  -17   13   15     -0.90     -2.34
  -15   13   15     -0.66     -0.90
  -13   13   15     -3.30      0.84
  -11   13   15      0.94      1.57
   -9   13   15      0.86      2.77
   -7   13   15     -0.33      0.67
   -5   13   15     -1.07      1.97
   -3   13   15      0.34     -3.12
   -1   13   15      2.32      0.63
    1   13   15      0.68      0.21
    3   13   15      2.16     -0.58
    5   13   15     -0.22      0.09
    7   13   15     -0.80     -0.96
    9   13   15     -2.17      1.75
   11   13   15     -1.40     -0.35
   13   13   15      0.64     -0.86
   15   13   15      1.42      0.45
   17   13   15     -0.78     -1.55
   19   13   15      0.23      0.02
  -28   12   15     -1.24     -0.52
  -26   12   15     -3.65     -1.31
  -24   12   15      4.21     -2.80
  -22   12   15      0.44      0.01
  -20   12   15      3.50     -0.68
  -18   12   15     -1.39      0.93
  -16   12   15      0.93      0.11
  -14   12   15     -2.57     -0.43
  -12   12   15     -2.47     -0.40
  -10   12   15      1.29      4.18
   -8   12   15     -1.38     -0.45
   -6   12   15     -2.33     -0.40
   -4   12   15      0.02      0.77
   -2   12   15      0.88     -0.67
    0   12   15      2.85     -0.47
    2   12   15     -1.06     -1.76
    4   12   15      4.24      1.20
    6   12   15     -5.68      1.43
    8   12   15      3.06     -0.37
   10   12   15     -4.91     -0.32
   12   12   15      5.97      0.61
   14   12   15     -3.60      0.43
   16   12   15      3.70     -1.71
   18   12   15     -4.50      0.30
   20   12   15      3.98     -1.43
   22   12   15     -1.20      1.07
  -29   11   15      0.39      1.08
  -27   11   15     -2.19     -5.88
  -25   11   15      1.56     -2.37
  -23   11   15      0.10      0.25
  -21   11   15      4.69      0.11
  -19   11   15      0.13      1.63
  -17   11   15      0.27      0.90
  -15   11   15     -2.28      0.83
  -13   11   15     -0.15      0.19
  -11   11   15     -2.82      2.07
   -9   11   15     -0.90     -0.24
   -7   11   15     -0.25     -2.35
   -5   11   15     -1.14     -0.64
   -3   11   15     -2.03     -0.68
   -1   11   15      3.06     -1.36
    1   11   15      2.24      0.64
    3   11   15      1.32      1.98
    5   11   15     -2.35     -2.14
    7   11   15     -2.14      3.16
    9   11   15      0.72     -0.63
   11   11   15      0.60      1.10
   13   11   15      1.59     -0.65
   15   11   15      0.07      0.80
   17   11   15     -1.15     -2.19
   19   11   15      0.40      1.24
   21   11   15      1.22      0.03
   23   11   15     -0.25     -1.20
  -32   10   15      1.65      1.95
  -30   10   15     -3.17      1.39
  -28   10   15      0.97      0.31
  -26   10   15      1.33     -7.71
  -24   10   15     -1.61      0.09
  -22   10   15      2.06     -0.76
  -20   10   15      0.84      4.13
  -18   10   15      1.41     -0.89
  -16   10   15      0.34      2.16
  -14   10   15     -3.31     -0.10
  -12   10   15     -1.73      3.25
  -10   10   15     -2.05     -1.90
   -8   10   15      1.98     -1.06
   -6   10   15      0.50     -1.46
   -4   10   15     -0.89     -3.44
   -2   10   15      2.35      0.21
    0   10   15     -0.46     -0.99
    2   10   15     -0.08      4.48
    4   10   15      0.28     -1.64
    6   10   15      4.62      1.84
    8   10   15     -8.46      1.06
   10   10   15      2.05     -1.71
   12   10   15     -0.13      2.91
   14   10   15      3.17     -2.57
   16   10   15     -2.79      1.49
   18   10   15      1.01     -1.69
   20   10   15     -1.67      2.64
   22   10   15      0.78     -2.02
   24   10   15      1.96     -2.41
   26   10   15     -1.42      0.80
  -33    9   15      1.07      3.71
  -31    9   15      0.72      0.36
  -29    9   15     -2.93      0.98
  -27    9   15     -1.85     -4.06
  -25    9   15      2.59     -0.86
  -23    9   15     -1.79     -4.84
  -21    9   15     -0.56      3.47
  -19    9   15      2.62      0.60
  -17    9   15     -1.22      1.10
  -15    9   15      1.00      1.56
  -13    9   15     -4.45     -0.98
  -11    9   15     -0.92      0.49
   -9    9   15      1.85     -1.03
   -7    9   15      2.34     -0.64
   -5    9   15      2.78     -0.76
   -3    9   15      0.69     -0.39
   -1    9   15     -2.33      2.16
    1    9   15      0.10     -4.38
    3    9   15      0.30      3.45
    5    9   15      2.40      4.98
    7    9   15      0.28     -0.63
    9    9   15     -3.98     -4.21
   11    9   15      0.17      1.11
   13    9   15     -1.60      0.74
   15    9   15      1.94      1.82
   17    9   15     -1.30     -3.33
   19    9   15     -1.81     -0.08
   21    9   15     -0.47      1.86
   23    9   15      2.58     -2.56
   25    9   15      0.49     -0.37
   27    9   15     -0.42      1.31
  -34    8   15      2.95      1.16
  -32    8   15      1.66      4.05
  -30    8   15     -4.23      0.40
  -28    8   15     -0.72     -2.51
  -26    8   15     -4.05     -2.50
  -24    8   15      4.27     -1.67
  -22    8   15     -1.95     -2.08
  -20    8   15      0.19      0.02
  -18    8   15     -1.02      2.44
  -16    8   15     -1.39     -0.99
  -14    8   15      1.61      2.65
  -12    8   15     -1.82     -1.70
  -10    8   15      0.69     -3.67
   -8    8   15      5.86      1.84
   -6    8   15     -1.64     -0.38
   -4    8   15      3.66      6.19
   -2    8   15     -4.15     -4.26
    0    8   15      0.29      3.54
    2    8   15     -1.02     -1.49
    4    8   15      2.49      3.81
    6    8   15     -1.82     -0.76
    8    8   15      3.47     -1.70
   10    8   15      0.59     -0.27
   12    8   15     -5.12     -2.37
   14    8   15     -0.93      5.40
   16    8   15     -0.77     -3.98
   18    8   15      0.96     -1.37
   20    8   15     -0.98     -1.79
   22    8   15     -1.41      3.64
   24    8   15      2.30     -0.86
   26    8   15      1.00     -0.35
   28    8   15     -1.61     -0.85
  -35    7   15      0.54      2.88
  -33    7   15      4.46      0.93
  -31    7   15     -6.16      5.75
  -29    7   15     -1.03     -4.76
  -27    7   15     -0.36     -1.17
  -25    7   15      1.38     -2.34
  -23    7   15     -1.87     -0.39
  -21    7   15      4.70     -1.86
  -19    7   15     -7.17     -0.94
  -17    7   15      4.26      1.70
  -15    7   15     -3.93      1.16
  -13    7   15      0.52      3.41
  -11    7   15      3.32     -6.03
   -9    7   15      4.17     -0.59
   -7    7   15     -0.05     -1.52
   -5    7   15     -2.04      2.35
   -3    7   15     -1.66      4.62
   -1    7   15      4.22      2.34
    1    7   15    -11.13     -1.74
    3    7   15      2.00      3.43
    5    7   15      4.52     -3.19
    7    7   15      1.15     -0.09
    9    7   15      3.44     -1.29
   11    7   15     -0.22      1.25
   13    7   15     -3.35      1.95
   15    7   15     -5.60     -2.26
   17    7   15      4.92      0.54
   19    7   15     -1.80     -2.55
   21    7   15     -0.96     -1.23
   23    7   15     -1.58      2.90
   25    7   15      2.68      0.03
   27    7   15      0.21     -2.10
   29    7   15      1.59     -1.47
  -36    6   15      2.21      0.75
  -34    6   15      1.72      3.91
  -32    6   15     -5.95     -1.41
  -30    6   15      0.57      0.35
  -28    6   15     -1.36      0.97
  -26    6   15      4.24     -1.29
  -24    6   15     -1.07     -2.44
  -22    6   15      2.00     -0.90
  -20    6   15     -2.07     -1.54
  -18    6   15      2.43      4.19
  -16    6   15     -3.33      1.13
  -14    6   15     -1.46      0.67
  -12    6   15      0.48     -0.54
  -10    6   15      3.19     -2.33
   -8    6   15      2.76     -2.37
   -6    6   15      1.40     -6.29
   -4    6   15     -3.17      4.11
   -2    6   15     -3.40      8.48
    0    6   15     -0.85     -0.80
    2    6   15     -4.78     -5.55
    4    6   15     -2.27      2.67
    6    6   15      7.36      3.24
    8    6   15      1.20     -5.84
   10    6   15      5.54      4.45
   12    6   15     -2.08      1.78
   14    6   15     -3.10     -0.14
   16    6   15     -2.66      0.88
   18    6   15      0.30     -0.69
   20    6   15     -0.58     -1.90
   22    6   15      0.39     -5.38
   24    6   15      0.78      4.74
   26    6   15      0.12     -1.94
   28    6   15      3.53      0.59
   30    6   15     -0.56     -4.08
  -37    5   15      0.04     -1.45
  -35    5   15     -2.60      2.70
  -33    5   15      0.02     -0.86
  -31    5   15      1.64     -2.54
  -29    5   15     -3.74      2.41
  -27    5   15      1.17      0.52
  -25    5   15      0.03     -0.30
  -23    5   15      8.31     -0.38
  -21    5   15     -4.46     -1.18
  -19    5   15      2.97      3.63
  -17    5   15     -6.14      4.02
  -15    5   15      3.41      0.65
  -13    5   15     -4.82     -3.73
  -11    5   15      0.37      1.43
   -9    5   15     -0.01     -7.10
   -7    5   15      6.27     -0.29
   -5    5   15      1.23     -1.41
   -3    5   15     -0.45     -1.14
   -1    5   15     -9.68      4.13
    1    5   15      6.68     -0.48
    3    5   15     -5.95     -3.28
    5    5   15     -3.05      1.60
    7    5   15      1.68      2.59
    9    5   15      7.23     -0.41
   11    5   15      0.61      3.92
   13    5   15      0.43      2.30
   15    5   15     -2.84      0.91
   17    5   15     -6.86     -1.69
   19    5   15      3.33     -1.09
   21    5   15      0.69     -3.52
   23    5   15      4.53     -2.73
   25    5   15     -1.58      3.05
   27    5   15      0.97     -2.11
   29    5   15      1.85      2.27
   31    5   15      1.39     -2.33
  -38    4   15     -1.61      6.90
  -36    4   15     -0.88    -12.00
  -34    4   15     -2.41      5.77
  -32    4   15      4.73      1.42
  -30    4   15     -2.70     -1.17
  -28    4   15      1.45     -3.51
  -26    4   15     -2.90     -0.05
  -24    4   15      2.71      4.13
  -22    4   15      2.46      5.78
  -20    4   15      4.04     -2.54
  -18    4   15     -9.06      3.35
  -16    4   15      1.67     -1.66
  -14    4   15     -1.17      3.09
  -12    4   15     -4.68     -5.04
  -10    4   15      3.93     -2.20
   -8    4   15     -1.03     -1.52
   -6    4   15      1.96     -2.88
   -4    4   15      7.17      1.92
   -2    4   15      0.59     -2.26
    0    4   15     -1.23      1.11
    2    4   15     -3.59     -0.13
    4    4   15     -1.58      1.63
    6    4   15     -4.27     -2.31
    8    4   15     -0.44     -1.20
   10    4   15      3.05      9.69
   12    4   15      3.49     -3.35
   14    4   15     -4.41      6.29
   16    4   15     -1.10     -6.18
   18    4   15     -3.02      0.96
   20    4   15      3.79     -2.79
   22    4   15      2.73      1.74
   24    4   15      2.28     -3.19
   26    4   15      1.11      1.23
   28    4   15     -2.97     -0.77
   30    4   15      4.70      3.87
   32    4   15     -3.00     -2.82
  -39    3   15     -4.23      0.09
  -37    3   15      3.98     -6.08
  -35    3   15     -0.52      0.79
  -33    3   15     -1.34     -0.77
  -31    3   15     -0.54      5.42
  -29    3   15      3.70     -7.32
  -27    3   15      0.42      2.39
  -25    3   15     -0.65     -1.23
  -23    3   15     -5.15      4.89
  -21    3   15      4.80      7.33
  -19    3   15     -2.03     -2.60
  -17    3   15     -2.12     -5.18
  -15    3   15     -3.32      0.34
  -13    3   15      2.79      2.24
  -11    3   15     -5.89     -2.23
   -9    3   15      5.54      0.40
   -7    3   15     -1.82     -7.63
   -5    3   15      8.63      0.91
   -3    3   15      0.00      4.39
   -1    3   15      7.72      7.72
    1    3   15     -3.74     -8.08
    3    3   15     -5.52      3.32
    5    3   15     -2.20      0.41
    7    3   15     -2.48     -6.17
    9    3   15      1.27     -0.27
   11    3   15     -3.65      6.25
   13    3   15      3.01      0.94
   15    3   15     -2.93     -3.78
   17    3   15      1.33      0.06
   19    3   15     -3.16     -0.40
   21    3   15      6.95      2.31
   23    3   15     -0.98      0.82
   25    3   15      2.80     -2.63
   27    3   15     -0.04      1.02
   29    3   15     -2.12     -0.77
   31    3   15      2.12      1.57
   33    3   15     -0.50     -0.62
  -38    2   15      0.65     -8.16
  -36    2   15      5.36      4.30
  -34    2   15     -5.62     -4.70
  -32    2   15      4.33      1.07
  -30    2   15     -0.50     -0.29
  -28    2   15      1.39      2.67
  -26    2   15     -2.46     -1.18
  -24    2   15      2.88      2.07
  -22    2   15     -3.80      0.43
  -20    2   15     -1.49      3.34
  -18    2   15     -4.42     -5.91
  -16    2   15      4.56     -2.94
  -14    2   15     -3.46      5.83
  -12    2   15     -2.99     -2.39
  -10    2   15      2.50      0.13
   -8    2   15      4.15     -3.13
   -6    2   15      7.27     -3.75
   -4    2   15     -1.31      3.94
   -2    2   15      2.27     10.28
    0    2   15     -5.90      1.81
    2    2   15      5.22      4.94
    4    2   15     -9.03    -14.63
    6    2   15      0.83      6.42
    8    2   15      6.07    -11.60
   10    2   15     -2.09      3.65
   12    2   15     -5.04      2.20
   14    2   15     -2.82      0.89
   16    2   15      4.57     -3.52
   18    2   15     -3.98     -0.99
   20    2   15      1.54      5.85
   22    2   15      2.47      0.70
   24    2   15      1.21      0.97
   26    2   15     -0.37     -3.10
   28    2   15      1.70     -1.74
   30    2   15     -2.87      1.75
   32    2   15      3.76     -0.04
  -39    1   15      2.56     -5.85
  -37    1   15      1.84      4.79
  -35    1   15     -0.10     -8.37
  -33    1   15      5.03      3.29
  -31    1   15     -3.84     -1.35
  -29    1   15      3.20      2.81
  -27    1   15     -7.79      0.17
  -25    1   15      6.87     -1.81
  -23    1   15     -1.14      6.33
  -21    1   15      0.25     -3.71
  -19    1   15     -4.31     -6.61
  -17    1   15     -0.93      0.10
  -15    1   15     -5.84     11.37
  -13    1   15      0.97    -10.08
  -11    1   15      5.20      1.49
   -9    1   15      2.38      2.43
   -7    1   15      9.06     -5.00
   -5    1   15     -0.42      2.60
   -3    1   15      1.31      1.81
   -1    1   15    -17.39     11.10
    1    1   15      3.17     -2.67
    3    1   15     -5.57      2.77
    5    1   15      7.32     -8.44
    7    1   15      9.27     -9.12
    9    1   15      1.33     10.10
   11    1   15     -2.21     -6.95
   13    1   15    -10.45      3.95
   15    1   15      0.87     -1.26
   17    1   15      1.11     -2.16
   19    1   15     -0.57      3.14
   21    1   15     -1.97      1.11
   23    1   15      2.17      3.12
   25    1   15      2.34     -2.09
   27    1   15      0.90     -3.44
   29    1   15     -0.47      0.13
   31    1   15     -0.90      2.51
   33    1   15      0.66     -1.19
  -38    0   15      0.93      0.72
  -36    0   15      1.34     -1.55
  -34    0   15      6.35     -0.48
  -32    0   15     -2.90     -0.20
  -30    0   15     -0.50     -0.16
  -28    0   15     -3.98     -0.50
  -26    0   15      3.95      1.42
  -24    0   15     -0.39      0.44
  -22    0   15     -0.50     -0.45
  -20    0   15      3.30      0.12
  -18    0   15     -0.98     -0.71
  -16    0   15    -13.31      0.46
  -14    0   15     -4.61      0.25
  -12    0   15     16.40     -0.05
  -10    0   15     -1.11      0.70
   -8    0   15      2.25     -0.36
   -6    0   15     12.71      0.57
   -4    0   15     -5.09     -0.08
   -2    0   15    -14.55     -0.28
    0    0   15     -3.04     -0.09
    2    0   15    -12.51     -0.34
    4    0   15     13.09     -0.21
    6    0   15      7.46      0.34
    8    0   15     15.77     -0.20
   10    0   15    -13.29      0.39
   14    0   15     -6.91     -0.20
   16    0   15     -1.42     -0.07
   18    0   15      2.94     -0.13
   20    0   15     -2.91     -0.40
   22    0   15     -0.60      0.67
   24    0   15      1.61     -0.45
   26    0   15      4.62      0.00
   28    0   15     -0.47     -0.33
   30    0   15     -1.36     -0.15
   32    0   15     -2.28      0.39
   -8   16   16      0.21     -0.77
   -6   16   16     -1.56     -0.79
   -4   16   16      1.29      1.47
   -2   16   16     -0.28     -1.71
    0   16   16      1.46      0.52
    2   16   16     -1.57     -1.80
  -17   15   16     -2.24     -1.62
  -15   15   16      1.25      1.07
  -13   15   16     -2.03      0.84
  -11   15   16      2.61      1.23
   -9   15   16      1.02     -1.60
   -7   15   16     -1.16      0.06
   -5   15   16      0.54     -1.02
   -3   15   16      0.48      0.12
   -1   15   16     -0.17      0.19
    1   15   16      2.55     -1.45
    3   15   16     -1.68     -0.74
    5   15   16      1.70      1.41
    7   15   16     -5.07      0.39
    9   15   16      0.61      1.24
  -20   14   16      1.27     -0.61
  -18   14   16     -1.84     -0.51
  -16   14   16      1.09     -0.16
  -14   14   16     -2.89      0.66
  -12   14   16      2.61      3.22
  -10   14   16      1.68      0.44
   -8   14   16      0.32      0.30
   -6   14   16      1.83     -1.84
   -4   14   16     -3.64     -0.09
   -2   14   16      3.97     -1.35
    0   14   16     -0.61      1.02
    2   14   16      2.97     -0.77
    4   14   16     -2.56      0.69
    6   14   16     -1.43     -0.51
    8   14   16     -2.25     -0.48
   10   14   16     -1.01      2.43
   12   14   16     -0.64     -1.06
   14   14   16      3.01     -1.03
  -25   13   16      0.28     -3.05
  -23   13   16      1.05      0.53
  -21   13   16      0.39     -2.18
  -19   13   16     -1.08      2.12
  -17   13   16      0.87     -2.90
  -15   13   16     -3.62      1.78
  -13   13   16      0.23      1.91
  -11   13   16      2.00      2.34
   -9   13   16      0.63      1.33
   -7   13   16      0.14     -0.64
   -5   13   16     -0.24     -1.22
   -3   13   16      0.51     -1.44
   -1   13   16      2.67     -0.78
    1   13   16     -1.01      3.93
    3   13   16      1.23     -4.86
    5   13   16     -1.60      3.63
    7   13   16      0.42     -3.27
    9   13   16     -5.00      4.47
   11   13   16      2.53     -4.46
   13   13   16     -1.44      3.15
   15   13   16      2.19     -4.25
   17   13   16     -0.91      2.13
  -26   12   16      2.32     -2.84
  -24   12   16      1.27      1.06
  -22   12   16      2.76     -2.13
  -20   12   16     -1.57      2.00
  -18   12   16     -0.03      0.38
  -16   12   16     -1.39      0.67
  -14   12   16     -2.81     -0.84
  -12   12   16      0.42      2.82
  -10   12   16     -0.18      1.57
   -8   12   16      0.50     -1.42
   -6   12   16     -1.47     -0.68
   -4   12   16      1.48     -0.56
   -2   12   16      1.96      0.53
    0   12   16     -0.49     -1.76
    2   12   16      2.32      0.78
    4   12   16     -2.09      1.00
    6   12   16      1.43      1.57
    8   12   16     -3.60     -0.93
   10   12   16      1.59     -0.77
   12   12   16     -0.27      0.30
   14   12   16      0.49     -1.50
   16   12   16     -0.65     -1.43
   18   12   16      1.37      0.87
   20   12   16      0.75      0.06
  -29   11   16      0.76     -2.05
  -27   11   16     -2.31     -7.12
  -25   11   16      2.90      3.52
  -23   11   16      0.92     -1.39
  -21   11   16      3.30      3.60
  -19   11   16     -2.30      0.10
  -17   11   16     -1.09      0.82
  -15   11   16     -2.14      1.71
  -13   11   16     -0.43     -1.84
  -11   11   16     -3.09      2.38
   -9   11   16      1.67     -2.40
   -7   11   16      0.43     -1.35
   -5   11   16     -0.68     -0.02
   -3   11   16      0.35     -1.97
   -1   11   16      2.05      1.27
    1   11   16      2.32      0.51
    3   11   16     -1.48      3.18
    5   11   16     -1.82     -2.05
    7   11   16     -0.22      4.07
    9   11   16      0.15     -3.23
   11   11   16      1.19      0.71
   13   11   16     -0.37     -2.84
   15   11   16      1.60      1.38
   17   11   16     -2.24     -2.15
   19   11   16      2.85      2.91
   21   11   16     -0.68     -0.60
   23   11   16     -0.13     -1.53
  -32   10   16     -1.99      0.43
  -30   10   16     -1.90     -0.21
  -28   10   16      1.07     -4.49
  -26   10   16      1.72     -3.40
  -24   10   16     -1.98      1.34
  -22   10   16      3.49      4.35
  -20   10   16      0.25      0.68
  -18   10   16     -0.84      1.20
  -16   10   16     -0.31     -0.32
  -14   10   16     -4.07      2.30
  -12   10   16     -0.85     -2.26
  -10   10   16      0.89     -0.68
   -8   10   16      1.51     -1.05
   -6   10   16      1.18     -0.84
   -4   10   16     -0.07     -2.57
   -2   10   16      3.10      0.54
    0   10   16     -3.76      1.65
    2   10   16      0.18      3.26
    4   10   16      3.03      0.76
    6   10   16     -3.51     -0.10
    8   10   16     -1.63      0.66
   10   10   16      0.00     -2.87
   12   10   16      3.26      0.19
   14   10   16      0.42     -0.53
   16   10   16     -1.06      0.22
   18   10   16     -1.34      0.65
   20   10   16      0.99      1.28
   22   10   16      0.27     -3.48
   24   10   16      0.57      0.14
  -33    9   16      1.16      1.74
  -31    9   16     -3.32     -1.91
  -29    9   16     -2.59     -2.93
  -27    9   16      1.96     -1.31
  -25    9   16     -0.10     -3.42
  -23    9   16     -0.07      3.61
  -21    9   16      0.04      0.85
  -19    9   16      2.79      2.62
  -17    9   16     -2.53      0.89
  -15    9   16      0.29     -1.02
  -13    9   16     -3.68      0.47
  -11    9   16      1.73     -1.85
   -9    9   16      3.12     -0.32
   -7    9   16      0.79      1.25
   -5    9   16      3.72     -1.07
   -3    9   16     -3.11      2.02
   -1    9   16      1.11     -2.44
    1    9   16     -4.46     -0.07
    3    9   16      3.37      2.70
    5    9   16     -0.62      6.59
    7    9   16     -2.27     -7.26
    9    9   16     -0.13     -1.40
   11    9   16     -2.18      0.41
   13    9   16      4.36      1.63
   15    9   16     -2.31     -0.54
   17    9   16     -0.16     -0.94
   19    9   16     -2.96     -0.25
   21    9   16      2.56      0.14
   23    9   16      2.12     -1.63
   25    9   16     -0.07     -0.14
  -34    8   16     -0.68     -0.65
  -32    8   16      1.07      2.82
  -30    8   16     -6.90     -4.00
  -28    8   16      1.31     -3.22
  -26    8   16     -0.93     -0.30
  -24    8   16      2.27     -1.35
  -22    8   16     -0.59     -0.75
  -20    8   16     -1.00      4.89
  -18    8   16      0.87     -1.27
  -16    8   16     -1.77      2.90
  -14    8   16      2.30     -1.32
  -12    8   16     -1.28     -2.36
  -10    8   16      3.74     -1.15
   -8    8   16      2.16      2.20
   -6    8   16     -0.41      4.73
   -4    8   16     -0.91      1.20
   -2    8   16     -2.38     -3.13
    0    8   16      0.79      0.92
    2    8   16     -0.44     -0.43
    4    8   16     -0.11      0.76
    6    8   16      0.18      1.55
    8    8   16      1.64     -4.49
   10    8   16     -2.18     -0.26
   12    8   16     -1.55      1.14
   14    8   16     -3.20      2.45
   16    8   16      3.45     -4.49
   18    8   16     -1.79     -0.82
   20    8   16     -0.86     -0.46
   22    8   16      2.76      2.81
   24    8   16      1.76     -1.51
   26    8   16     -0.96      0.24
   28    8   16      1.09     -0.90
  -35    7   16      2.41      2.00
  -33    7   16     -2.61      3.38
  -31    7   16     -2.94     -3.30
  -29    7   16     -0.61     -0.28
  -27    7   16      0.16     -5.67
  -25    7   16      1.79      2.82
  -23    7   16      0.48     -3.54
  -21    7   16     -1.26      2.48
  -19    7   16     -1.83      0.54
  -17    7   16      0.87      1.70
  -15    7   16     -1.79      2.09
  -13    7   16      2.91     -2.65
  -11    7   16      3.95     -4.71
   -9    7   16      2.30      2.83
   -7    7   16     -4.30      0.11
   -5    7   16     -2.35      6.75
   -3    7   16      1.58      1.65
   -1    7   16     -2.54     -1.84
    1    7   16     -3.28     -1.00
    3    7   16      2.71     -0.61
    5    7   16      5.47     -1.83
    7    7   16     -1.58      0.58
    9    7   16      2.97      1.01
   11    7   16     -3.43     -0.83
   13    7   16     -6.04      1.68
   15    7   16      0.74     -3.52
   17    7   16      2.36     -1.26
   19    7   16      1.33     -0.60
   21    7   16     -3.17     -0.11
   23    7   16      3.89      2.46
   25    7   16     -0.37      0.06
   27    7   16      2.14     -3.95
   29    7   16     -0.70      1.07
  -36    6   16      0.94      3.26
  -34    6   16      0.37      0.55
  -32    6   16     -7.23     -1.62
  -30    6   16      4.15      1.09
  -28    6   16     -1.12     -1.06
  -26    6   16      3.26     -0.53
  -24    6   16      0.81     -4.63
  -22    6   16     -1.43      5.29
  -20    6   16     -1.24     -3.24
  -18    6   16     -1.28      7.09
  -16    6   16      0.56     -2.89
  -14    6   16     -4.41     -1.72
  -12    6   16      8.02     -2.05
  -10    6   16     -0.58     -1.96
   -8    6   16      1.84     -2.43
   -6    6   16     -2.18      2.17
   -4    6   16     -5.05      4.89
   -2    6   16     -1.69      9.86
    0    6   16      0.55    -12.96
    2    6   16     -3.51      1.35
    4    6   16      5.77      1.69
    6    6   16      3.19      0.84
    8    6   16      2.98     -1.19
   10    6   16     -1.00      5.61
   12    6   16     -3.34     -3.07
   14    6   16     -2.99     -2.77
   16    6   16     -0.72      2.27
   18    6   16      1.77     -5.27
   20    6   16      1.56      2.13
   22    6   16     -0.66     -3.45
   24    6   16      2.91      4.54
   26    6   16     -0.68     -2.13
   28    6   16      2.44      0.04
   30    6   16     -1.53     -1.85
  -37    5   16     -5.96     -1.46
  -35    5   16      1.28      4.37
  -33    5   16      2.48     -5.08
  -31    5   16     -2.89      2.21
  -29    5   16     -1.87      0.20
  -27    5   16      1.99      0.96
  -25    5   16      4.76     -0.44
  -23    5   16      0.17      1.42
  -21    5   16     -1.68     -2.08
  -19    5   16     -3.89      8.24
  -17    5   16     -1.09     -4.40
  -15    5   16      2.33     -0.24
  -13    5   16     -4.10     -5.64
  -11    5   16      4.26     -3.29
   -9    5   16      0.87     -0.27
   -7    5   16      5.11     -0.43
   -5    5   16     -3.33      3.22
   -3    5   16     -6.88      1.46
   -1    5   16     -0.86      2.12
    1    5   16      3.28     -3.18
    3    5   16     -2.31     -2.93
    5    5   16     -0.73      6.69
    7    5   16      4.27     -2.02
    9    5   16      4.89      7.06
   11    5   16     -3.57     -3.65
   13    5   16      1.77      3.82
   15    5   16     -6.19     -6.32
   17    5   16      0.01      0.37
   19    5   16      1.11     -3.48
   21    5   16      5.59      0.27
   23    5   16     -1.04      1.03
   25    5   16      1.84     -0.10
   27    5   16     -2.74      2.70
   29    5   16      3.99     -2.95
   31    5   16     -3.92      1.68
  -38    4   16      0.30     -3.90
  -36    4   16     -4.25     -1.32
  -34    4   16      3.01      3.28
  -32    4   16      4.21      4.68
  -30    4   16     -6.57     -7.99
  -28    4   16      2.22      1.39
  -26    4   16     -0.14      1.29
  -24    4   16      1.01      8.50
  -22    4   16      3.63     -2.37
  -20    4   16     -4.89      1.38
  -18    4   16     -3.53     -3.10
  -16    4   16     -0.84      2.40
  -14    4   16      4.36     -7.72
  -12    4   16     -4.44     -0.01
  -10    4   16      7.80     -5.12
   -8    4   16     -2.49      3.87
   -6    4   16      3.12      0.20
   -4    4   16      1.13      0.93
   -2    4   16     -1.81     -1.17
    0    4   16     -3.41      1.31
    2    4   16     -1.01      0.50
    4    4   16      0.90     -1.63
    6    4   16     -6.66      1.42
    8    4   16      5.68      3.52
   10    4   16      2.03      3.62
   12    4   16      0.79      0.13
   14    4   16     -3.35     -1.43
   16    4   16      0.11     -6.20
   18    4   16     -0.66      2.49
   20    4   16      3.94     -4.55
   22    4   16      2.64      5.16
   24    4   16     -1.38     -1.46
   26    4   16      1.61     -0.10
   28    4   16     -3.25      2.14
   30    4   16      2.45     -0.10
  -39    3   16     -7.20     -2.65
  -37    3   16     10.23     -5.65
  -35    3   16     -7.48      5.25
  -33    3   16      1.48      3.38
  -31    3   16     -0.17     -1.13
  -29    3   16      3.44     -3.99
  -27    3   16     -1.90      2.01
  -25    3   16     -1.50      2.56
  -23    3   16     -3.55      5.80
  -21    3   16      4.59     -0.11
  -19    3   16     -6.63     -4.55
  -17    3   16      1.65     -5.44
  -15    3   16     -0.40      3.27
  -13    3   16      3.82     -1.39
  -11    3   16      1.08      1.35
   -9    3   16     -0.02     -3.28
   -7    3   16      3.39     -2.28
   -5    3   16      0.91      5.84
   -3    3   16      1.95      1.41
   -1    3   16     -1.81      1.72
    1    3   16     -0.68     -5.24
    3    3   16     -7.65      1.63
    5    3   16      2.72      0.63
    7    3   16     -2.56     -6.23
    9    3   16     -2.56      6.62
   11    3   16      5.16      3.88
   13    3   16     -2.92     -2.07
   15    3   16      3.34     -4.16
   17    3   16     -2.94      0.49
   19    3   16      4.33      1.63
   21    3   16      0.50     -1.24
   23    3   16      1.62      2.25
   25    3   16     -1.52     -1.17
   27    3   16      0.37     -1.50
   29    3   16     -2.15      3.65
   31    3   16      1.90     -3.75
  -38    2   16      6.91     -1.94
  -36    2   16     -4.83      1.54
  -34    2   16      2.74     -0.82
  -32    2   16     -6.93      3.32
  -30    2   16      9.33     -2.40
  -28    2   16     -6.20      5.92
  -26    2   16      2.07     -3.78
  -24    2   16     -0.69      2.80
  -22    2   16     -3.33      0.37
  -20    2   16     -4.55     -3.58
  -18    2   16      1.58     -4.59
  -16    2   16      5.64      0.83
  -14    2   16     -3.78      7.35
  -12    2   16      3.16     -3.51
  -10    2   16      3.67      2.37
   -8    2   16      2.59     -6.33
   -6    2   16      1.27      4.55
   -4    2   16     -3.25      1.11
   -2    2   16     -3.07      9.53
    0    2   16      1.26     -5.50
    2    2   16     -0.67     -1.07
    4    2   16     -3.67     -4.14
    6    2   16      1.87     -5.14
    8    2   16      4.72      2.47
   10    2   16    -10.19     -1.41
   12    2   16      1.79      7.68
   14    2   16      0.51     -3.80
   16    2   16      1.81     -1.10
   18    2   16      0.69     -0.31
   20    2   16      0.05      5.72
   22    2   16      3.98     -2.42
   24    2   16     -1.01     -1.21
   26    2   16     -1.23     -1.04
   28    2   16     -0.19     -1.45
   30    2   16      0.70      2.17
   32    2   16      0.40     -0.19
  -39    1   16      5.51     -1.82
  -37    1   16     -1.90      1.09
  -35    1   16      1.72     -5.25
  -33    1   16     -1.69      4.98
  -31    1   16     -0.67     -0.11
  -29    1   16     -2.67      3.58
  -27    1   16      0.91     -2.16
  -25    1   16      2.85      2.57
  -23    1   16     -1.65     -0.52
  -21    1   16     -2.35     -3.52
  -19    1   16     -3.14     -9.47
  -17    1   16      1.83     11.02
  -15    1   16     -3.06      3.78
  -13    1   16      6.40     -7.58
  -11    1   16      3.61      5.54
   -9    1   16      3.15     -0.08
   -7    1   16      2.58     -3.66
   -5    1   16     -4.89      1.94
   -3    1   16     -7.97      6.65
   -1    1   16     -3.82     -1.33
    1    1   16     -2.18      3.69
    7    1   16     10.54     -4.83
    9    1   16     -8.69      8.11
   11    1   16     -5.22     -3.80
   13    1   16     -6.42      1.87
   15    1   16      4.88      2.92
   17    1   16      2.00     -4.67
   19    1   16      0.10      3.29
   21    1   16      1.43      1.89
   23    1   16      1.65     -0.62
   25    1   16      1.38     -3.46
   27    1   16     -0.35     -0.86
   29    1   16     -1.70      0.18
   31    1   16      0.87      3.68
  -38    0   16     -2.13     -0.62
  -36    0   16      5.82     -1.62
  -34    0   16     -2.48      0.11
  -32    0   16     -2.61      1.09
  -30    0   16     -1.52      0.18
  -28    0   16     -3.28     -0.45
  -26    0   16      9.37      3.21
  -24    0   16     -7.33     -2.08
  -22    0   16      2.25      0.33
  -20    0   16      2.04     -0.62
  -18    0   16     -3.18      0.27
  -16    0   16    -13.94      0.29
  -14    0   16     15.60      0.32
  -12    0   16      4.15      0.16
  -10    0   16     -0.53      0.21
   -8    0   16      5.66     -0.21
   -6    0   16     -2.99      0.05
   -4    0   16     -4.77     -0.42
   -2    0   16    -17.51     -0.28
    0    0   16      6.27     -0.01
    2    0   16     -3.31     -0.66
    4    0   16     14.32      0.71
    6    0   16     13.74     -0.39
    8    0   16    -12.60      0.51
   12    0   16    -15.74     -0.33
   14    0   16      3.77     -0.08
   16    0   16      1.58     -0.51
   18    0   16      1.21     -0.01
   20    0   16      4.31      0.05
   22    0   16     -3.84      0.10
   24    0   16      5.02      0.07
   26    0   16      1.84     -0.51
   28    0   16     -2.02      0.19
   30    0   16     -2.29      0.09
   32    0   16      0.52      0.14
    3    1   16     10.03     -8.93
    5    1   16     -0.27     -2.34
   -4   16   17      0.75      1.01
   -2   16   17      0.59      0.07
  -15   15   17     -1.69      2.53
  -13   15   17      3.00     -0.20
  -11   15   17     -0.14     -0.60
   -9   15   17      0.96     -0.55
   -7   15   17     -1.14     -2.68
   -5   15   17     -0.36      3.03
   -3   15   17      0.38     -2.43
   -1   15   17      0.00      2.45
    1   15   17      0.53     -2.73
    3   15   17     -0.38      2.10
    5   15   17     -1.20     -0.35
    7   15   17     -2.73      1.12
    9   15   17      1.25      0.01
  -20   14   17      1.14      1.07
  -18   14   17     -1.24     -2.52
  -16   14   17      0.20      3.27
  -14   14   17      0.21     -0.28
  -12   14   17      2.45      2.59
  -10   14   17      2.01     -1.06
   -8   14   17     -0.78     -2.22
   -6   14   17     -0.55     -0.65
   -4   14   17     -1.41      0.34
   -2   14   17      0.55     -1.60
    0   14   17      3.03      3.25
    2   14   17     -4.05     -2.26
    4   14   17      1.17      2.40
    6   14   17     -3.90     -3.67
    8   14   17      1.00      4.01
   10   14   17     -2.18     -2.31
   12   14   17      3.46      2.05
  -23   13   17     -0.96     -1.84
  -21   13   17     -0.19      2.17
  -19   13   17     -0.38     -1.39
  -17   13   17     -0.56      1.14
  -15   13   17     -1.17      0.54
  -13   13   17      1.66      3.03
  -11   13   17      2.79      0.84
   -9   13   17     -0.52     -2.06
   -7   13   17      0.59      0.22
   -5   13   17     -2.43     -3.76
   -3   13   17      3.75      1.11
   -1   13   17     -2.43      1.37
    1   13   17      1.34      0.40
    3   13   17     -1.97     -1.06
    5   13   17      0.75     -0.53
    7   13   17     -1.96      1.81
    9   13   17     -2.54     -0.98
   11   13   17      1.78     -0.92
   13   13   17      0.54      0.44
   15   13   17      0.13     -1.83
   17   13   17      1.59      0.40
  -26   12   17      5.45     -0.36
  -24   12   17     -1.56      0.35
  -22   12   17      2.21     -0.69
  -20   12   17     -3.88      2.14
  -18   12   17      0.60      0.99
  -16   12   17     -0.72     -0.55
  -14   12   17     -2.15      0.15
  -12   12   17      2.74      3.09
  -10   12   17     -0.42     -1.49
   -8   12   17      1.02     -1.51
   -6   12   17     -0.63     -0.90
   -4   12   17      1.27      0.05
   -2   12   17      1.34      0.55
    0   12   17     -2.37     -0.84
    2   12   17      3.17      0.92
    4   12   17     -2.84      2.12
    6   12   17      1.34     -0.35
    8   12   17     -3.82     -2.09
   10   12   17      2.29      0.20
   12   12   17     -2.21     -1.63
   14   12   17      2.80     -1.34
   16   12   17     -1.04      0.77
   18   12   17      3.22      0.93
   20   12   17     -1.33      1.02
  -29   11   17     -0.55     -5.37
  -27   11   17      1.30     -0.67
  -25   11   17      0.44      2.85
  -23   11   17      3.74      1.38
  -21   11   17     -2.04      0.62
  -19   11   17     -2.20      1.82
  -17   11   17     -1.12     -0.63
  -15   11   17     -0.15      0.85
  -13   11   17     -1.72     -1.30
  -11   11   17      0.55     -0.07
   -9   11   17      1.69     -0.69
   -7   11   17      1.26     -0.99
   -5   11   17     -1.19     -0.45
   -3   11   17      0.68     -0.52
   -1   11   17      1.90      0.87
    1   11   17     -0.23      3.66
    3   11   17     -1.03     -1.30
    5   11   17     -1.94      3.27
    7   11   17      1.57     -3.92
    9   11   17     -0.90      0.17
   11   11   17      0.06     -3.54
   13   11   17      1.30      0.29
   15   11   17      0.36      0.06
   17   11   17     -0.21      2.06
   19   11   17      1.83      0.63
   21   11   17     -1.32     -0.36
  -30   10   17     -0.60     -0.73
  -28   10   17      4.25     -5.36
  -26   10   17     -2.38      3.04
  -24   10   17      3.99      2.52
  -22   10   17     -1.09      4.08
  -20   10   17      1.02     -1.41
  -18   10   17     -1.92      0.89
  -16   10   17     -2.99     -0.09
  -14   10   17      0.70      0.36
  -12   10   17     -1.70     -3.07
  -10   10   17      3.53      0.46
   -8   10   17      0.69      0.51
   -6   10   17     -0.01     -1.52
   -4   10   17      1.94     -1.45
   -2   10   17     -1.01      0.19
    0   10   17     -2.79      4.90
    2   10   17     -0.18      0.49
    4   10   17      2.82      1.37
    6   10   17     -4.35     -1.84
    8   10   17      0.75     -2.23
   10   10   17      1.87     -2.25
   12   10   17      1.83     -0.88
   14   10   17     -0.28      2.73
   16   10   17     -1.46     -0.88
   18   10   17     -0.30      2.92
   20   10   17      0.68     -2.02
   22   10   17      0.87     -1.57
   24   10   17     -1.12      0.82
  -33    9   17     -0.99     -2.39
  -31    9   17     -4.26     -1.41
  -29    9   17      0.57     -3.59
  -27    9   17      3.67      1.95
  -25    9   17     -0.85      0.04
  -23    9   17      0.63      4.46
  -21    9   17      1.95      1.95
  -19    9   17     -0.94     -1.29
  -17    9   17     -0.61      2.61
  -15    9   17     -3.00     -3.62
  -13    9   17      1.55      1.03
  -11    9   17      1.18     -1.30
   -9    9   17      2.19      0.55
   -7    9   17      1.14      1.69
   -5    9   17     -0.45     -1.60
   -3    9   17     -0.58      1.38
   -1    9   17     -2.30     -4.40
    1    9   17     -2.08      3.17
    3    9   17      1.00      4.44
    5    9   17      0.72     -0.69
    7    9   17     -2.60     -4.63
    9    9   17      1.36     -3.21
   11    9   17      1.54      2.47
   13    9   17      0.96      1.70
   15    9   17     -1.79     -1.29
   17    9   17     -1.63     -0.12
   19    9   17     -0.86      0.73
   21    9   17      4.64     -2.43
   23    9   17     -0.19      0.35
   25    9   17      0.43      1.74
  -34    8   17     -1.13      0.53
  -32    8   17     -4.05     -3.45
  -30    8   17     -0.41     -2.26
  -28    8   17     -1.30     -0.63
  -26    8   17      5.63      1.21
  -24    8   17     -3.51      0.51
  -22    8   17      3.14      2.46
  -20    8   17     -2.42      3.20
  -18    8   17      0.76     -1.83
  -16    8   17      0.21      2.42
  -14    8   17     -0.04     -4.10
  -12    8   17      1.22     -0.57
  -10    8   17      3.59      1.01
   -8    8   17     -2.20      3.68
   -6    8   17      0.45      3.26
   -4    8   17     -3.27     -3.86
   -2    8   17      0.44     -1.28
    0    8   17      0.40     -2.07
    2    8   17     -0.35      1.63
    4    8   17     -2.16      1.37
    6    8   17      2.32     -0.79
    8    8   17      0.18     -2.78
   10    8   17     -2.42     -1.44
   12    8   17      0.52      4.70
   14    8   17     -2.12     -2.65
   16    8   17      1.96     -1.73
   18    8   17     -0.56     -2.04
   20    8   17      0.58      2.89
   22    8   17      4.01      0.00
   24    8   17      0.61      0.63
   26    8   17     -2.30     -0.70
  -35    7   17      0.23     -1.53
  -33    7   17     -3.92      4.17
  -31    7   17     -0.85     -8.63
  -29    7   17      0.48      3.09
  -27    7   17      1.44     -2.56
  -25    7   17      0.16      0.94
  -23    7   17      1.97      1.70
  -21    7   17     -5.93      0.94
  -19    7   17      3.48      2.61
  -17    7   17     -1.79     -1.65
  -15    7   17      0.87      1.53
  -13    7   17      4.11     -6.85
  -11    7   17      2.44      1.72
   -9    7   17     -2.36      3.30
   -7    7   17     -4.18      3.30
   -5    7   17     -2.01      2.54
   -3    7   17      4.58     -0.94
   -1    7   17     -4.93     -4.94
    1    7   17      1.91      0.04
    3    7   17      4.30     -1.28
    5    7   17     -1.73      0.95
    7    7   17      1.24      1.02
    9    7   17     -0.38      0.04
   11    7   17     -4.92     -0.28
   13    7   17     -3.35     -2.86
   15    7   17      5.54     -0.54
   17    7   17     -0.93     -2.46
   19    7   17      4.63      1.55
   21    7   17     -3.76      2.39
   23    7   17      4.59      0.87
   25    7   17     -1.65     -1.32
   27    7   17      1.30     -1.27
  -36    6   17      1.82      1.43
  -34    6   17     -4.31     -2.42
  -32    6   17     -0.70      0.46
  -30    6   17      0.81      0.89
  -28    6   17      2.50     -2.27
  -26    6   17      0.14     -0.26
  -24    6   17      0.72      0.65
  -22    6   17     -4.68      0.72
  -20    6   17      0.68      3.04
  -18    6   17     -1.44     -0.79
  -16    6   17      1.60     -3.89
  -14    6   17     -0.12     -1.87
  -12    6   17      6.09     -2.74
  -10    6   17     -1.49      3.53
   -8    6   17     -1.95     -1.84
   -6    6   17     -2.81      6.74
   -4    6   17     -4.41      5.27
   -2    6   17      3.70     -2.33
    0    6   17     -0.85     -7.83
    2    6   17      1.97     -0.42
    4    6   17      5.14      5.62
    6    6   17     -1.50     -2.85
    8    6   17      2.05      4.54
   10    6   17     -5.68     -0.87
   12    6   17     -0.33     -5.23
   14    6   17     -2.19     -1.86
   16    6   17      3.41      0.24
   18    6   17      0.96      1.02
   20    6   17      2.18     -0.65
   22    6   17     -0.05      3.36
   24    6   17     -0.89     -1.67
   26    6   17      2.54      1.51
   28    6   17     -2.72     -2.67
  -37    5   17     -3.60      4.80
  -35    5   17      3.17     -1.80
  -33    5   17      1.85     -3.70
  -31    5   17     -6.56      4.96
  -29    5   17      2.26     -2.17
  -27    5   17      2.33      1.21
  -25    5   17      3.70      1.46
  -23    5   17     -5.65     -1.55
  -21    5   17     -0.27      1.49
  -19    5   17     -3.89      0.78
  -17    5   17      3.95     -2.23
  -15    5   17     -0.33     -9.60
  -13    5   17      1.35      3.44
  -11    5   17      1.34     -5.45
   -9    5   17      2.73      6.31
   -7    5   17     -0.67      2.96
   -5    5   17     -5.95      1.57
   -3    5   17     -5.77      2.55
   -1    5   17      7.09     -2.21
    1    5   17     -0.14     -3.39
    3    5   17      1.34     -0.30
    5    5   17     -0.77      6.88
    7    5   17      5.66     -1.43
    9    5   17     -4.51      1.95
   11    5   17      2.81     -2.26
   13    5   17     -2.66     -3.08
   15    5   17     -3.38     -3.04
   17    5   17      4.40     -0.15
   19    5   17     -2.45      2.09
   21    5   17      7.03      0.24
   23    5   17     -3.34      3.42
   25    5   17     -0.38     -2.90
   27    5   17     -0.93      2.54
   29    5   17      0.76     -2.83
  -38    4   17     -1.70     -9.06
  -36    4   17     -0.87      7.77
  -34    4   17      5.72      2.34
  -32    4   17     -2.19     -1.89
  -30    4   17     -4.62     -5.15
  -28    4   17      2.85      2.80
  -26    4   17      0.26      5.04
  -24    4   17      0.16      1.83
  -22    4   17      1.55     -3.19
  -20    4   17     -7.38     -0.86
  -18    4   17      3.05     -3.85
  -16    4   17      0.79      1.04
  -14    4   17      3.44     -9.05
  -12    4   17      1.71      3.28
  -10    4   17     -0.75      0.45
   -8    4   17      1.21      4.97
   -6    4   17     -2.06      1.10
   -4    4   17     -1.75     -1.16
   -2    4   17     -1.59     -0.20
    0    4   17     -1.67      1.11
    2    4   17      3.51     -1.44
    4    4   17     -2.40      1.82
    6    4   17      0.15     -0.05
    8    4   17      1.62      7.22
   10    4   17      6.08     -6.15
   12    4   17     -6.24      4.02
   14    4   17      2.63     -8.61
   16    4   17     -2.89      0.79
   18    4   17      3.07     -1.23
   20    4   17     -1.03      3.10
   22    4   17      2.67      1.71
   24    4   17     -1.63      1.07
   26    4   17     -2.21     -3.27
   28    4   17      1.76      3.65
   30    4   17     -2.78     -4.00
  -37    3   17      0.17      1.46
  -35    3   17     -1.04      3.93
  -33    3   17     -3.36      8.63
  -31    3   17      5.05    -14.59
  -29    3   17     -0.55      6.68
  -27    3   17     -1.59     -1.05
  -25    3   17     -2.80      3.51
  -23    3   17      1.67      2.04
  -21    3   17     -2.04     -4.25
  -19    3   17      0.53     -4.87
  -17    3   17     -0.73     -2.36
  -15    3   17      9.26      6.52
  -13    3   17     -3.12     -3.76
  -11    3   17      3.99      3.73
   -9    3   17     -4.88     -4.21
   -7    3   17      1.46      3.12
   -5    3   17      0.40      1.44
   -3    3   17     -2.98      1.65
   -1    3   17      0.09     -4.30
    1    3   17     -2.69     -0.89
    3    3   17      1.39      5.24
    5    3   17     -3.11     -5.25
    7    3   17      2.23      2.43
    9    3   17     -1.65      5.17
   11    3   17      5.11     -1.71
   13    3   17     -1.15     -2.42
   15    3   17      1.52     -2.81
   17    3   17     -3.23      0.59
   19    3   17      5.68      1.55
   21    3   17     -3.84     -0.97
   23    3   17      0.34      1.40
   25    3   17      0.49     -0.11
   27    3   17     -2.72     -1.46
   29    3   17      1.24      1.51
   31    3   17      0.47     -2.35
  -38    2   17      3.58      5.24
  -36    2   17     -6.23     -1.14
  -34    2   17     -0.61      4.80
  -32    2   17     -0.40     -1.49
  -30    2   17      5.09      1.71
  -28    2   17     -3.54      0.11
  -26    2   17      2.20     -1.00
  -24    2   17     -4.06     -0.04
  -22    2   17      0.20     -1.81
  -20    2   17     -6.91     -4.85
  -18    2   17     12.28     -0.74
  -16    2   17     -0.15      7.87
  -14    2   17     -0.68      3.00
  -12    2   17      3.01     -0.35
  -10    2   17      0.32     -4.79
   -8    2   17     -0.31     -0.22
   -6    2   17     -4.58      1.57
   -4    2   17     -0.91      2.55
   -2    2   17     -2.22     -1.24
    0    2   17      3.38      0.04
    2    2   17     -0.76     -5.53
    4    2   17     -3.14      4.84
    6    2   17      3.69     -6.89
    8    2   17     -2.18      4.61
   10    2   17     -4.50      2.20
   12    2   17      2.94      2.09
   14    2   17      4.99     -2.34
   16    2   17     -2.28     -2.83
   18    2   17      1.47      2.30
   20    2   17      2.27      0.19
   22    2   17     -0.85     -1.07
   24    2   17     -1.30     -2.49
   26    2   17     -0.51      1.13
   28    2   17     -1.65     -0.52
   30    2   17      3.85      2.03
  -39    1   17      3.18      2.57
  -37    1   17     -4.30     -3.32
  -35    1   17      0.73      3.84
  -33    1   17     -4.72     -0.30
  -31    1   17      4.46      5.29
  -29    1   17     -5.90     -1.22
  -27    1   17      9.36     -2.50
  -25    1   17     -5.08      3.17
  -23    1   17      0.02     -3.62
  -21    1   17     -3.23     -8.17
  -19    1   17      2.06      1.52
  -15    1   17      0.12     -4.64
  -13    1   17      5.11      0.55
  -11    1   17      0.89      1.47
   -9    1   17      0.06     -3.27
   -7    1   17     -3.26     -1.06
   -5    1   17     -5.73      0.06
   -3    1   17     -4.16      4.58
   -1    1   17      2.67     -3.80
    1    1   17      2.47      2.82
    3    1   17      3.89     -6.46
    5    1   17      3.25     -2.50
    7    1   17     -3.86      7.24
    9    1   17     -2.98     -6.72
   11    1   17     -8.17      9.35
   13    1   17      3.48     -4.69
   15    1   17      4.89      2.34
   17    1   17      3.61     -1.97
   19    1   17     -0.26     -2.83
   21    1   17      1.82      6.09
   23    1   17      0.06     -5.53
   25    1   17     -1.11     -1.10
   27    1   17     -0.69      0.36
   29    1   17     -0.92      2.81
   31    1   17      0.03      1.31
  -38    0   17     -1.41     -2.76
  -36    0   17      2.38      1.64
  -34    0   17     -6.37      0.01
  -32    0   17     -0.30      3.28
  -30    0   17     -1.18     -2.19
  -28    0   17      4.09      2.21
  -26    0   17      2.23      0.56
  -24    0   17     -4.86     -2.24
  -22    0   17      0.03     -0.11
  -20    0   17      6.79      0.33
  -18    0   17    -10.69      0.21
  -16    0   17     -1.52      0.36
  -14    0   17     15.84     -0.05
  -12    0   17     -4.22      0.12
  -10    0   17     -0.58     -0.51
   -8    0   17      1.60     -0.08
   -6    0   17     -6.12     -0.50
   -4    0   17     -7.42     -0.11
   -2    0   17     -0.84     -0.35
    0    0   17      1.94      0.31
    2    0   17      8.77     -0.10
    4    0   17      3.58      0.30
    6    0   17      5.18      0.22
   12    0   17     -5.93     -0.77
   14    0   17      2.19     -0.19
   16    0   17      9.28     -0.30
   18    0   17      1.86      0.13
   20    0   17      0.80      0.18
   22    0   17     -1.19      0.13
   24    0   17      1.81     -0.04
   26    0   17     -0.16     -0.29
   28    0   17     -2.65      0.46
   30    0   17     -2.56      0.06
   32    0   17      2.55     -0.07
  -17    1   17      1.47     13.71
  -13   15   18      2.06     -0.38
  -11   15   18      0.30     -1.80
   -9   15   18     -1.75     -0.21
   -7   15   18      0.06     -0.55
   -5   15   18     -0.68      2.23
   -3   15   18     -1.36     -0.54
   -1   15   18      2.83     -0.49
    1   15   18     -2.56      0.96
    3   15   18      2.53     -0.62
    5   15   18     -4.03      0.77
    7   15   18      1.41     -0.71
  -20   14   18     -0.85     -0.47
  -18   14   18      1.25      0.29
  -16   14   18     -1.52      0.30
  -14   14   18      3.12      2.35
  -12   14   18      1.28     -2.18
  -10   14   18     -0.70     -0.30
   -8   14   18      0.29     -2.70
   -6   14   18     -4.95      2.27
   -4   14   18      2.43     -1.93
   -2   14   18     -0.68      2.49
    0   14   18      1.61     -0.27
    2   14   18     -3.09      0.98
    4   14   18      0.48     -1.63
    6   14   18     -0.90     -0.57
    8   14   18     -0.22      1.87
   10   14   18      0.52     -0.66
   12   14   18      2.95      0.20
  -23   13   18     -1.31     -2.04
  -21   13   18     -0.37      3.46
  -19   13   18      1.31     -2.30
  -17   13   18     -1.51      1.19
  -15   13   18      1.37      0.97
  -13   13   18      2.53      1.01
  -11   13   18      0.47     -0.67
   -9   13   18     -0.50     -2.61
   -7   13   18     -2.26      0.03
   -5   13   18     -0.27     -1.94
   -3   13   18      2.12      1.60
   -1   13   18     -2.59      3.82
    1   13   18      0.33     -4.13
    3   13   18     -0.25      2.57
    5   13   18      0.41     -2.43
    7   13   18     -3.22      2.79
    9   13   18      1.44     -3.53
   11   13   18     -0.44      2.34
   13   13   18      2.48     -2.05
   15   13   18     -0.25      0.58
  -26   12   18      1.17      1.18
  -24   12   18      0.39     -1.35
  -22   12   18     -3.07      1.59
  -20   12   18      0.43      1.86
  -18   12   18     -0.37     -0.56
  -16   12   18      1.44     -0.97
  -14   12   18     -0.80      0.85
  -12   12   18      1.93      1.36
  -10   12   18      0.50     -2.55
   -8   12   18     -0.99     -0.59
   -6   12   18      0.11     -1.51
   -4   12   18      1.23      3.23
   -2   12   18     -2.24     -2.62
    0   12   18      1.43      2.56
    2   12   18     -1.09     -0.58
    4   12   18      1.61      2.37
    6   12   18     -3.94     -2.91
    8   12   18      1.06     -1.54
   10   12   18     -0.89      0.33
   12   12   18      0.54     -1.66
   14   12   18      2.21     -0.10
   16   12   18      1.60      2.79
   18   12   18     -0.21      0.31
  -29   11   18     -0.42     -5.64
  -27   11   18      2.25      5.81
  -25   11   18      0.26     -1.47
  -23   11   18      1.46      3.80
  -21   11   18     -3.72     -2.08
  -19   11   18     -1.25      1.90
  -17   11   18      1.26      0.58
  -15   11   18      0.50     -3.46
  -13   11   18     -1.51      2.36
  -11   11   18      2.10     -2.69
   -9   11   18      1.19      1.79
   -7   11   18     -0.01     -1.37
   -5   11   18     -1.41     -0.67
   -3   11   18      0.57      0.06
   -1   11   18      1.34      2.06
    1   11   18     -1.67      2.25
    3   11   18     -0.75     -0.29
    5   11   18     -0.15     -1.39
    7   11   18      0.88     -2.24
    9   11   18     -1.81     -2.76
   11   11   18      0.83     -0.33
   13   11   18      2.61      0.84
   15   11   18     -1.01      2.35
   17   11   18      1.83      1.85
   19   11   18     -0.84     -0.06
   21   11   18     -1.27     -0.85
  -30   10   18      2.18     -1.82
  -28   10   18      3.83     -0.33
  -26   10   18     -1.42      3.79
  -24   10   18      2.81      3.50
  -22   10   18     -0.83     -0.16
  -20   10   18     -3.06     -1.67
  -18   10   18      0.72      1.21
  -16   10   18     -3.54     -0.05
  -14   10   18      3.25     -2.14
  -12   10   18     -0.51     -0.38
  -10   10   18      1.62      0.58
   -8   10   18      0.43      0.97
   -6   10   18     -0.97     -2.53
   -4   10   18      2.34     -1.67
   -2   10   18     -3.26      2.68
    0   10   18     -2.60      3.53
    2   10   18      3.13      0.59
    4   10   18     -2.08     -2.45
    6   10   18      2.51     -1.05
    8   10   18     -2.98     -4.83
   10   10   18      5.13     -0.40
   12   10   18     -1.19      2.35
   14   10   18     -0.45      2.27
   16   10   18     -1.43      0.67
   18   10   18      1.47      1.54
   20   10   18     -0.70     -3.16
   22   10   18     -0.05      0.57
  -31    9   18     -0.66     -1.21
  -29    9   18      4.32      2.18
  -27    9   18      2.21      0.39
  -25    9   18     -0.02      6.03
  -23    9   18      0.36     -0.77
  -21    9   18      0.54      1.83
  -19    9   18     -2.53     -2.33
  -17    9   18     -0.84      0.07
  -15    9   18     -1.65     -0.35
  -13    9   18      2.90     -1.31
  -11    9   18      0.72      0.63
   -9    9   18      0.01      1.07
   -7    9   18      0.37     -1.57
   -5    9   18     -1.23      0.05
   -3    9   18      0.79     -1.78
   -1    9   18     -4.67     -0.90
    1    9   18      0.63      3.33
    3    9   18      0.56      4.24
    5    9   18      1.30     -5.55
    7    9   18     -0.43     -3.47
    9    9   18      1.52     -0.55
   11    9   18      2.56      1.91
   13    9   18     -3.11      3.13
   15    9   18     -0.24     -2.03
   17    9   18     -2.60      1.03
   19    9   18      3.38     -0.57
   21    9   18      2.19     -1.55
   23    9   18     -0.48      1.17
   25    9   18     -0.95      2.13
  -34    8   18     -0.13     -1.11
  -32    8   18     -6.14     -3.50
  -30    8   18      5.51      0.70
  -28    8   18      0.33      3.61
  -26    8   18      2.57      1.08
  -24    8   18     -0.45      1.47
  -22    8   18     -1.97      3.31
  -20    8   18      2.14     -2.24
  -18    8   18     -3.40      0.53
  -16    8   18      3.16     -2.10
  -14    8   18     -2.39     -1.24
  -12    8   18      3.34     -0.71
  -10    8   18      0.16      3.41
   -8    8   18     -2.26      1.80
   -6    8   18     -1.10     -1.44
   -4    8   18     -0.55     -3.77
   -2    8   18      1.31     -1.22
    0    8   18     -0.70      0.19
    2    8   18     -0.79      1.19
    4    8   18     -1.55      3.95
    6    8   18      2.83     -4.59
    8    8   18     -0.05     -1.95
   10    8   18     -0.19      1.83
   12    8   18     -1.72      1.59
   14    8   18      1.31     -2.36
   16    8   18     -1.13     -0.47
   18    8   18      1.54     -1.57
   20    8   18      2.97      4.64
   22    8   18      1.49     -1.25
   24    8   18     -1.46      1.24
   26    8   18     -1.46     -0.49
  -35    7   18     -2.33     -0.30
  -33    7   18     -1.28     -2.23
  -31    7   18      0.44     -0.84
  -29    7   18      0.77     -0.21
  -27    7   18      1.93      4.78
  -25    7   18     -0.29     -3.09
  -23    7   18     -2.10      5.01
  -21    7   18     -1.25     -1.67
  -19    7   18      2.17      0.45
  -17    7   18     -1.04     -2.02
  -15    7   18      3.19     -2.11
  -13    7   18      1.58     -2.99
  -11    7   18      1.21      5.22
   -9    7   18     -5.85      2.55
   -7    7   18     -1.90      1.46
   -5    7   18      2.04     -0.48
   -3    7   18      1.75     -5.26
   -1    7   18     -0.59     -0.32
    1    7   18      0.70     -1.46
    3    7   18      1.66      1.94
    5    7   18     -4.02      1.57
    7    7   18      2.29      0.07
    9    7   18     -1.29     -1.40
   11    7   18     -3.89     -0.78
   13    7   18      1.55     -3.21
   15    7   18      3.62      0.35
   17    7   18      2.21      0.78
   19    7   18     -0.16      2.07
   21    7   18      0.76      2.75
   23    7   18     -1.00      0.30
   25    7   18      0.49     -3.59
   27    7   18     -1.64      2.28
  -36    6   18     -0.47     -2.29
  -34    6   18     -5.36     -0.98
  -32    6   18      4.98      1.59
  -30    6   18     -2.74      0.12
  -28    6   18      3.09     -1.33
  -26    6   18     -0.40      0.19
  -24    6   18     -3.35      2.98
  -22    6   18     -1.64     -2.90
  -20    6   18      1.32      2.96
  -18    6   18      2.25     -4.87
  -16    6   18     -1.16     -3.59
  -14    6   18      6.39      0.12
  -12    6   18     -1.52      2.47
  -10    6   18     -1.40      2.88
   -8    6   18     -2.60      2.42
   -6    6   18     -3.35      2.59
   -4    6   18      1.27      3.71
   -2    6   18      4.42    -10.07
    0    6   18     -0.70     -1.59
    2    6   18      2.31      1.57
    4    6   18      0.65      2.52
    6    6   18     -2.94     -0.27
    8    6   18     -1.71      3.45
   10    6   18     -0.87     -6.71
   12    6   18     -0.51     -3.59
   14    6   18      2.30      2.21
   16    6   18      1.91     -1.57
   18    6   18      2.20      9.04
   20    6   18     -1.46     -5.02
   22    6   18      0.35      4.59
   24    6   18     -2.20     -3.40
   26    6   18      1.31      0.56
   28    6   18     -2.08     -0.80
  -37    5   18      2.43      3.40
  -35    5   18      2.50     -4.19
  -33    5   18     -3.15     -0.43
  -31    5   18     -3.78      3.94
  -29    5   18      4.18     -2.68
  -27    5   18      1.89      1.68
  -25    5   18     -2.96      0.33
  -23    5   18     -0.97     -3.70
  -21    5   18     -3.01      3.00
  -19    5   18      4.14     -5.09
  -17    5   18      2.65     -0.88
  -15    5   18     -1.31     -6.96
  -13    5   18      3.82      5.86
  -11    5   18     -3.19      2.66
   -9    5   18      3.66      4.13
   -7    5   18     -6.13      4.49
   -5    5   18     -4.18     -2.00
   -3    5   18      1.67      0.24
   -1    5   18      5.77     -3.11
    1    5   18      1.69     -4.81
    3    5   18     -1.25      6.31
    5    5   18      0.53     -1.10
    7    5   18      0.21      3.40
    9    5   18     -4.20     -7.53
   11    5   18      4.93      3.77
   13    5   18     -3.62     -8.06
   15    5   18      0.67      4.25
   17    5   18     -0.04      0.60
   19    5   18      1.38      5.32
   21    5   18      0.66     -0.78
   23    5   18     -0.56     -1.03
   25    5   18     -3.77     -0.03
   27    5   18      2.61     -2.51
   29    5   18     -2.48      1.21
  -36    4   18      4.06      3.21
  -34    4   18      5.13      4.73
  -32    4   18    -10.86    -11.32
  -30    4   18      4.65      3.38
  -28    4   18      0.05      1.95
  -26    4   18     -1.02      3.16
  -24    4   18      2.50     -3.58
  -22    4   18     -2.28     -1.78
  -20    4   18     -0.99     -2.83
  -18    4   18      1.87      0.75
  -16    4   18      6.78     -4.91
  -14    4   18     -5.04      1.45
  -12    4   18      5.58      1.93
  -10    4   18     -7.17      6.30
   -8    4   18      1.29      3.37
   -6    4   18     -3.01     -4.28
   -4    4   18     -1.45      1.61
   -2    4   18      0.90     -2.07
    0    4   18      1.36      0.61
    2    4   18      6.90     -0.63
    4    4   18     -8.16      1.78
    6    4   18      6.17      1.77
    8    4   18     -0.33     -2.38
   10    4   18      0.58     -0.14
   12    4   18     -1.57     -2.81
   14    4   18     -1.48     -2.88
   16    4   18      0.18      3.36
   18    4   18     -1.39     -2.17
   20    4   18      0.83      7.07
   22    4   18     -0.32     -1.26
   24    4   18      0.60     -2.63
   26    4   18     -2.86     -0.13
   28    4   18      2.50     -0.09
   30    4   18     -1.95     -2.19
  -37    3   18     -5.00      5.38
  -35    3   18      1.05      5.43
  -33    3   18     -0.93     -2.77
  -31    3   18      4.23     -8.98
  -29    3   18     -1.71      6.03
  -27    3   18     -1.34     -0.95
  -25    3   18     -0.48      1.83
  -23    3   18      1.43     -2.14
  -21    3   18     -1.63     -2.09
  -19    3   18      2.74     -4.19
  -17    3   18      1.98      4.49
  -15    3   18      5.96      2.99
  -13    3   18     -4.45     -0.44
  -11    3   18     -3.59     -1.17
   -9    3   18     -1.48      0.52
   -7    3   18     -1.08      0.83
   -5    3   18      0.06     -0.32
   -3    3   18     -1.25     -0.40
   -1    3   18      0.43     -2.13
    1    3   18      3.13      2.48
    3    3   18     -0.90      4.31
    5    3   18      0.29     -4.76
    9    3   18      5.56      3.12
   11    3   18     -2.56     -6.24
   13    3   18      2.47      0.12
   15    3   18     -4.56     -1.87
   17    3   18      1.25      2.26
   19    3   18     -0.36     -2.15
   21    3   18     -0.84      3.32
   23    3   18     -1.92     -1.22
   25    3   18      3.62     -0.60
   27    3   18     -4.19      1.13
   29    3   18      4.09     -2.19
  -38    2   18     -4.18      5.11
  -36    2   18     -0.08      1.42
  -34    2   18     -7.40      2.16
  -32    2   18     13.87     -3.64
  -30    2   18     -6.54      3.26
  -28    2   18      3.74     -5.08
  -26    2   18     -1.49      2.06
  -24    2   18     -2.17     -2.14
  -22    2   18     -3.84     -2.87
  -20    2   18      4.41     -0.11
  -18    2   18      7.95      3.27
  -16    2   18     -3.47     10.58
  -14    2   18      0.78     -3.99
  -12    2   18     -2.42     -2.74
  -10    2   18     -0.32     -5.45
   -8    2   18     -3.98     -0.41
   -6    2   18     -1.25      4.41
   -4    2   18     -0.89     -4.47
   -2    2   18      2.83      3.04
    0    2   18      2.85     -1.19
    2    2   18     -4.18      4.52
    4    2   18      1.81     -2.72
    6    2   18      0.82      1.14
    8    2   18     -4.61     -2.26
   10    2   18      5.40      5.00
   12    2   18     -1.19     -1.91
   14    2   18      4.84     -2.74
   16    2   18     -2.71     -3.19
   18    2   18     -1.36      3.12
   20    2   18      4.56     -2.31
   22    2   18     -5.14     -0.24
   24    2   18      0.17      0.98
   26    2   18     -0.57     -0.44
   28    2   18      1.02      2.39
   30    2   18      1.24      1.10
  -37    1   18     -0.24      0.14
  -35    1   18     -4.77      3.30
  -33    1   18      4.65      1.26
  -31    1   18     -1.04      1.30
  -29    1   18      3.16     -2.95
  -27    1   18      2.76     -0.60
  -25    1   18     -5.86     -0.58
  -23    1   18      0.14     -2.22
  -21    1   18     -1.13     -9.18
  -15    1   18      2.62     -7.32
  -13    1   18      0.20      2.33
  -11    1   18      0.14     -4.25
   -9    1   18     -3.07     -2.84
   -7    1   18     -3.70     -1.07
   -5    1   18     -1.66      1.97
   -3    1   18      2.17      0.45
   -1    1   18      1.42      1.05
    1    1   18      3.45      1.27
    3    1   18     -4.15     -1.92
    5    1   18      3.60     -0.22
    7    1   18     -5.37      3.34
    9    1   18     -0.33     -4.29
   11    1   18     -2.35      4.96
   13    1   18      6.06     -0.03
   15    1   18      4.85     -4.71
   17    1   18      2.20     -1.23
   19    1   18     -1.60      0.40
   21    1   18     -0.33      1.91
   23    1   18     -1.66     -2.62
   25    1   18     -1.89      0.01
   27    1   18     -0.35      1.87
   29    1   18     -0.57      4.12
   31    1   18     -0.28     -1.72
  -38    0   18     -1.26     -0.66
  -36    0   18     -1.62      1.71
  -34    0   18     -2.92      3.58
  -32    0   18      1.54     -1.12
  -30    0   18      1.92     -1.14
  -28    0   18      6.69      2.66
  -26    0   18     -7.44     -3.24
  -24    0   18     -1.36     -0.32
  -22    0   18      4.66     -0.52
  -20    0   18      0.89      1.29
  -16    0   18      9.39     -0.26
  -14    0   18      2.79      0.05
  -12    0   18     -2.16     -0.73
  -10    0   18     -3.15     -0.30
   -8    0   18      0.84      0.19
   -6    0   18     -5.31     -0.68
   -4    0   18     -0.33      0.58
   -2    0   18      2.85     -0.24
    0    0   18      0.81      0.71
    2    0   18      4.53      0.08
    4    0   18     -1.09      0.02
   10    0   18    -10.03     -0.62
   12    0   18      9.12     -0.28
   14    0   18      1.14     -0.36
   16    0   18      8.15      0.02
   18    0   18      5.37      0.46
   20    0   18    -10.02     -0.03
   22    0   18      3.08      0.36
   24    0   18     -2.02     -0.32
   26    0   18     -1.25      0.16
   28    0   18     -2.90      0.34
   30    0   18     -0.98     -0.13
  -19    1   18      5.67     15.30
  -17    1   18     -2.84      5.67
    7    3   18     -1.34      2.26
  -11   15   19      0.47     -0.24
   -9   15   19     -2.09     -1.13
   -7   15   19      0.29      3.29
   -5   15   19     -1.32     -1.29
   -3   15   19      0.87      0.53
   -1   15   19      1.07     -1.14
    1   15   19      0.48      1.45
    3   15   19     -0.54     -1.66
  -18   14   19      0.84      1.29
  -16   14   19     -0.32     -0.26
  -14   14   19      2.49      0.40
  -12   14   19     -0.17     -1.32
  -10   14   19     -1.93     -1.75
   -8   14   19     -1.17      1.68
   -6   14   19     -3.13      0.48
   -4   14   19      2.60     -1.47
   -2   14   19      2.06      3.48
    0   14   19     -3.01     -1.77
    2   14   19      2.26      1.23
    4   14   19     -2.08     -3.16
    6   14   19      1.93      1.85
    8   14   19     -2.08     -0.55
   10   14   19      3.67      1.99
  -21   13   19      1.44     -0.50
  -19   13   19      0.05     -0.19
  -17   13   19      0.64     -1.76
  -15   13   19      0.38      2.71
  -13   13   19      3.03     -1.06
  -11   13   19     -2.98     -1.39
   -9   13   19     -0.39      0.19
   -7   13   19     -4.05     -1.75
   -5   13   19      4.75      1.41
   -3   13   19     -3.05      2.39
   -1   13   19      1.55      0.44
    1   13   19     -1.94     -1.59
    3   13   19      2.46     -0.37
    5   13   19     -1.53      1.06
    7   13   19     -1.48     -1.88
    9   13   19      1.89      0.07
   11   13   19      0.44      1.66
   13   13   19      0.89     -1.69
  -24   12   19      1.45     -0.34
  -22   12   19     -4.08      1.82
  -20   12   19      3.51      1.12
  -18   12   19      1.24     -2.96
  -16   12   19     -0.39     -0.65
  -14   12   19      1.45      2.29
  -12   12   19     -1.59     -1.03
  -10   12   19      1.17     -0.60
   -8   12   19     -2.72     -1.54
   -6   12   19      1.86      1.56
   -4   12   19     -1.02      1.30
   -2   12   19     -1.40     -1.37
    0   12   19      1.63      1.74
    2   12   19     -0.27      0.69
    4   12   19     -0.89     -1.22
    6   12   19     -0.87     -2.60
    8   12   19     -0.08      0.10
   10   12   19      0.18     -0.27
   12   12   19      1.73     -0.19
   14   12   19      2.36      1.76
   16   12   19      0.49      1.93
  -27   11   19      0.01      3.56
  -25   11   19      1.38     -0.36
  -23   11   19     -2.16      0.19
  -21   11   19     -2.65      0.92
  -19   11   19      2.49     -0.59
  -17   11   19      1.37      0.48
  -15   11   19      0.19     -3.33
  -13   11   19     -1.76      2.16
  -11   11   19      1.52     -0.65
   -9   11   19      0.17      0.75
   -7   11   19     -0.52     -1.23
   -5   11   19     -2.16     -0.59
   -3   11   19      2.52     -0.43
   -1   11   19     -1.65      4.72
    1   11   19      0.15     -1.98
    3   11   19     -1.70      1.53
    5   11   19      3.16     -6.33
    7   11   19     -2.80      1.73
    9   11   19      0.23     -3.44
   11   11   19      1.69      2.22
   13   11   19      2.28      2.82
   15   11   19     -1.05      2.36
   17   11   19      0.95     -0.15
   19   11   19     -1.78     -0.10
  -30   10   19      5.20     -1.79
  -28   10   19     -0.70      3.33
  -26   10   19      2.42      1.48
  -24   10   19     -2.55      2.14
  -22   10   19     -0.15     -2.79
  -20   10   19     -3.29     -0.34
  -18   10   19      0.02      1.63
  -16   10   19      2.27     -1.06
  -14   10   19     -1.32     -1.95
  -12   10   19      2.12      0.56
  -10   10   19     -1.64      1.28
   -8   10   19     -0.15     -1.15
   -6   10   19      1.00     -2.65
   -4   10   19      0.80     -1.02
   -2   10   19     -4.05      5.26
    0   10   19     -0.06      0.35
    2   10   19      2.05      0.13
    4   10   19      1.15     -4.34
    6   10   19     -0.84     -0.83
    8   10   19      1.50     -3.78
   10   10   19      0.00      2.57
   12   10   19      1.21      4.92
   14   10   19     -3.03     -0.16
   16   10   19      1.57      2.55
   18   10   19     -0.10     -2.08
   20   10   19     -1.03     -1.48
   22   10   19     -0.65      0.40
  -31    9   19      3.40     -0.53
  -29    9   19      5.52      5.23
  -27    9   19     -0.46      0.47
  -25    9   19     -0.27      2.86
  -23    9   19     -1.59     -0.24
  -21    9   19     -0.94     -4.29
  -19    9   19     -3.04      2.75
  -17    9   19     -0.02     -4.01
  -15    9   19      0.86      3.60
  -13    9   19      1.11     -3.55
  -11    9   19      0.46      1.63
   -9    9   19     -1.42     -1.07
   -7    9   19      0.08     -1.99
   -5    9   19      1.35      0.47
   -3    9   19     -1.16     -1.34
   -1    9   19     -3.43      1.41
    1    9   19      1.12      4.07
    3    9   19      3.06     -1.16
    5    9   19     -0.08     -3.15
    7    9   19      1.07     -5.27
    9    9   19      1.92      4.66
   11    9   19     -1.78      1.53
   13    9   19     -1.63      1.99
   15    9   19     -1.13     -0.86
   17    9   19     -0.11      0.89
   19    9   19      4.10     -2.34
   21    9   19     -0.62      0.63
   23    9   19     -0.66      1.09
  -32    8   19      0.83      0.85
  -30    8   19      3.10      3.61
  -28    8   19      5.21      3.92
  -26    8   19     -4.70     -0.46
  -24    8   19      1.90      1.41
  -22    8   19     -4.07     -1.33
  -20    8   19      1.98     -2.59
  -18    8   19     -1.71      0.03
  -16    8   19      0.42     -2.58
  -14    8   19      0.10      0.69
  -12    8   19      1.93     -0.11
  -10    8   19     -1.64      2.41
   -8    8   19     -0.99     -1.00
   -6    8   19     -0.35     -3.15
   -4    8   19      0.83     -0.62
   -2    8   19      1.67     -0.45
    0    8   19     -2.40      2.05
    2    8   19     -1.57      2.51
    4    8   19      1.93      0.75
    6    8   19      1.42     -4.38
    8    8   19      0.77     -1.57
   10    8   19      0.39      4.30
   12    8   19     -3.40     -1.31
   14    8   19      2.17      0.11
   16    8   19     -1.15     -1.81
   18    8   19      2.66      2.56
   20    8   19      2.50      1.47
   22    8   19     -0.72      0.27
   24    8   19     -3.40     -0.55
  -33    7   19      0.00     -5.56
  -31    7   19      2.05      6.59
  -29    7   19     -0.22     -0.23
  -27    7   19      1.49      2.43
  -25    7   19     -1.25     -0.26
  -23    7   19     -3.96     -1.43
  -21    7   19      4.15     -0.06
  -19    7   19     -0.66     -3.33
  -17    7   19      1.42     -0.06
  -15    7   19      1.11     -3.62
  -13    7   19      2.03      3.18
  -11    7   19     -3.73      4.14
   -9    7   19     -2.18      0.33
   -7    7   19     -1.46     -1.04
   -5    7   19      5.67     -2.14
   -3    7   19     -1.05     -3.37
   -1    7   19     -0.17      1.58
    1    7   19      0.53      0.98
    3    7   19     -5.34      0.66
    5    7   19      2.28      2.42
    7    7   19      0.89     -2.69
    9    7   19     -0.36     -0.90
   11    7   19     -1.72     -1.60
   13    7   19      4.02     -0.13
   15    7   19     -0.72      0.58
   17    7   19      5.88      3.10
   19    7   19     -5.75      2.24
   21    7   19      2.55      0.64
   23    7   19     -2.61     -1.40
   25    7   19     -0.50     -1.92
  -34    6   19     -2.18      0.96
  -32    6   19      3.65      2.32
  -30    6   19     -1.22     -2.07
  -28    6   19     -0.63      1.11
  -26    6   19      0.70      0.61
  -24    6   19     -4.57     -1.98
  -22    6   19      3.23      0.46
  -20    6   19      2.09     -3.35
  -18    6   19      2.84     -1.40
  -16    6   19     -1.20     -1.66
  -14    6   19      4.88      3.01
  -12    6   19     -4.32      6.21
  -10    6   19     -2.07     -0.33
   -8    6   19     -1.29      1.88
   -6    6   19     -1.72      0.56
   -4    6   19      5.60     -3.28
   -2    6   19      0.65     -4.12
    0    6   19     -0.84     -2.85
    2    6   19     -0.15      5.83
    4    6   19     -3.48     -2.20
    6    6   19     -0.57      2.97
    8    6   19     -2.07     -1.28
   10    6   19      4.50     -6.13
   12    6   19     -1.05      0.12
   14    6   19      3.59      3.45
   16    6   19     -0.45      3.91
   18    6   19      0.85      3.40
   20    6   19     -2.55     -2.20
   22    6   19     -1.92     -1.48
   24    6   19      1.54     -0.73
   26    6   19     -2.34     -1.13
  -35    5   19      1.87     -3.60
  -33    5   19     -7.65      5.03
  -31    5   19      2.80     -2.60
  -29    5   19      3.10      0.11
  -27    5   19     -2.13      1.34
  -25    5   19     -1.86     -3.87
  -23    5   19      1.04     -1.00
  -21    5   19      1.50      0.91
  -19    5   19      4.05     -2.61
  -17    5   19      0.36     -2.67
  -15    5   19     -0.60      4.36
  -13    5   19     -0.48      2.69
  -11    5   19     -0.95      7.41
   -9    5   19     -0.23      0.53
   -7    5   19     -5.25     -1.32
   -5    5   19      0.21     -1.61
   -3    5   19      5.45     -2.47
   -1    5   19      2.35     -3.40
    1    5   19      1.00     -2.74
    3    5   19     -3.60      7.60
    5    5   19      0.53     -4.63
    7    5   19     -5.53      0.29
    9    5   19      5.05     -1.61
   11    5   19     -0.13     -1.57
   13    5   19     -0.89      1.84
   15    5   19      1.40      1.17
   17    5   19     -5.54      6.76
   19    5   19      6.07     -1.58
   21    5   19     -3.40     -0.59
   23    5   19     -0.31     -4.51
   25    5   19     -0.58      1.01
   27    5   19      1.17     -1.57
  -36    4   19      4.56      1.29
  -34    4   19     -0.82     -2.93
  -32    4   19     -7.27     -6.21
  -30    4   19      6.81      4.58
  -28    4   19     -1.61      1.31
  -26    4   19     -0.91     -2.49
  -24    4   19      3.87     -0.99
  -22    4   19     -2.86     -2.57
  -20    4   19      2.84      2.18
  -18    4   19     -0.39     -0.21
  -16    4   19      4.35     -2.99
  -14    4   19     -5.35      6.62
  -12    4   19     -0.87      2.12
  -10    4   19     -1.59      5.75
   -8    4   19     -2.51     -3.32
   -6    4   19      0.99     -2.77
   -4    4   19      0.97     -1.24
   -2    4   19      1.38      0.97
    0    4   19      7.21     -3.55
    2    4   19     -2.67      4.03
    8    4   19      4.69     -6.65
   10    4   19     -8.05      5.63
   12    4   19      4.61     -4.68
   14    4   19     -5.71      3.35
   16    4   19      2.30      0.39
   18    4   19     -4.27      1.77
   20    4   19      4.50      1.66
   22    4   19     -1.14     -1.21
   24    4   19      0.46     -5.53
   26    4   19      0.58      3.79
   28    4   19     -0.29     -2.88
  -37    3   19     -0.26      2.47
  -35    3   19     -2.56      7.25
  -33    3   19      6.15    -17.68
  -31    3   19     -0.88      7.53
  -29    3   19     -0.63     -1.99
  -27    3   19     -0.38     -0.46
  -25    3   19      1.09      2.17
  -23    3   19     -1.07     -1.54
  -21    3   19      1.42     -1.43
  -19    3   19     -0.74      0.94
  -17    3   19      5.79      5.65
  -15    3   19     -4.24     -2.87
  -13    3   19     -3.41      3.05
  -11    3   19     -4.90     -5.74
   -9    3   19     -0.39      3.97
   -7    3   19      5.43     -2.11
   -5    3   19     -5.84      0.71
   -3    3   19      7.15     -0.82
   -1    3   19     -0.90      0.40
    1    3   19      5.87      6.82
    3    3   19     -4.89     -5.65
    5    3   19      1.93      1.16
    9    3   19      1.08     -1.87
   11    3   19     -1.35      0.56
   13    3   19     -2.77     -3.21
   15    3   19     -3.00      2.73
   17    3   19      2.94     -0.33
   19    3   19     -2.37     -1.18
   21    3   19      0.57      3.12
   23    3   19      2.08     -1.11
   25    3   19     -0.76     -0.73
   27    3   19      0.87      1.46
   29    3   19      1.28     -1.11
  -38    2   19     -2.15      1.49
  -36    2   19     -3.12      3.81
  -34    2   19      4.24     -5.19
  -32    2   19      6.09      1.11
  -30    2   19     -3.14     -2.66
  -28    2   19      2.02     -1.23
  -26    2   19     -3.42      1.36
  -24    2   19     -0.58     -1.90
  -22    2   19     -5.57      0.78
  -20    2   19     12.35      0.83
  -18    2   19     -1.77      8.29
  -16    2   19     -4.03      1.11
  -14    2   19     -0.57     -6.22
  -12    2   19     -3.52     -7.71
  -10    2   19     -0.13      0.26
   -8    2   19     -2.08      1.29
   -6    2   19      2.02      2.54
   -4    2   19      1.25     -1.11
   -2    2   19      2.48      3.54
    0    2   19      2.35      4.07
    2    2   19     -5.92      1.49
    4    2   19      4.76     -3.81
    6    2   19     -1.05     -2.79
    8    2   19     -1.51      0.21
   10    2   19      4.63      1.04
   12    2   19     -1.25     -0.76
   14    2   19     -0.05     -4.76
   16    2   19     -2.33     -0.52
   18    2   19      1.32      2.08
   20    2   19     -0.18     -0.09
   22    2   19     -2.47     -0.33
   24    2   19      0.38      4.01
   26    2   19     -0.49     -1.85
   28    2   19      3.15      3.99
   30    2   19     -2.29     -0.81
  -37    1   19      1.27      2.29
  -35    1   19     -1.65     -0.08
  -33    1   19      7.05      3.01
  -31    1   19     -2.91     -5.07
  -29    1   19      6.33     -0.91
  -27    1   19     -6.25      0.97
  -25    1   19     -2.77     -1.40
  -23    1   19     -0.35     -5.37
  -21    1   19      3.95      4.10
  -19    1   19      1.44     11.73
  -15    1   19      0.94     -4.97
  -13    1   19      0.18     -4.77
  -11    1   19     -2.24     -0.19
   -9    1   19      0.07     -4.36
   -7    1   19     -5.05      5.17
   -5    1   19      7.07     -1.32
   -3    1   19     -2.95      5.52
   -1    1   19      3.26      1.04
    1    1   19     -4.60      0.58
    3    1   19      0.45      0.61
    5    1   19      0.74     -2.29
    7    1   19      2.17     -3.93
    9    1   19     -1.52      4.90
   11    1   19      1.57     -3.54
   13    1   19      4.86      2.78
   15    1   19      3.46     -5.86
   17    1   19     -2.12     -3.69
   19    1   19     -2.16      8.73
   21    1   19     -2.61     -3.89
   23    1   19     -1.86      1.28
   25    1   19     -0.54      0.78
   27    1   19     -0.27      3.32
   29    1   19     -0.64      1.04
  -38    0   19     -1.36      3.67
  -36    0   19     -1.38     -0.65
  -34    0   19      1.36      5.36
  -32    0   19      3.16     -7.20
  -30    0   19      3.09      2.69
  -28    0   19     -0.97     -0.63
  -26    0   19     -7.55     -2.98
  -24    0   19      0.20      0.21
  -22    0   19      9.51      1.26
  -20    0   19     -7.32      0.21
  -16    0   19     11.22     -0.71
  -14    0   19     -5.33     -0.34
  -12    0   19      0.19     -0.47
  -10    0   19     -1.81      0.32
   -8    0   19     -0.21      0.47
   -6    0   19     -0.84     -0.10
   -4    0   19      1.28      0.17
   -2    0   19      0.37      1.01
    0    0   19     -2.05     -0.26
    2    0   19     -0.10      0.23
    4    0   19     -1.15     -0.11
    6    0   19      0.03     -0.22
    8    0   19      4.46      0.50
   10    0   19     -4.07     -1.11
   12    0   19      5.16      0.10
   14    0   19      6.03     -0.23
   16    0   19      4.46      0.42
   18    0   19     -3.94      0.19
   20    0   19     -7.08      0.34
   22    0   19     -0.76     -0.24
   24    0   19      0.21      0.02
   26    0   19     -2.61      0.26
   28    0   19     -2.05     -0.14
   30    0   19      1.65      0.03
  -17    1   19     -2.83     -2.96
    7    3   19     -0.20     -1.65
    4    4   19     -1.43     -2.40
    6    4   19     -0.93      1.63
   -9   15   20      0.63      0.71
   -7   15   20     -0.90      1.96
   -5   15   20     -0.55     -2.26
   -3   15   20      3.18     -0.28
   -1   15   20     -0.83      0.94
    1   15   20      2.16     -0.93
  -16   14   20      1.79      1.81
  -14   14   20      0.50     -2.65
  -12   14   20     -1.41      1.22
  -10   14   20     -0.86     -1.23
   -8   14   20     -3.03      3.22
   -6   14   20      1.92     -2.76
   -4   14   20      2.27      1.71
   -2   14   20      0.84      0.16
    0   14   20     -1.51      0.73
    2   14   20      1.13     -2.28
    4   14   20      0.15     -0.29
    6   14   20     -1.16      0.60
    8   14   20      0.95      0.99
  -21   13   20      2.24     -3.02
  -19   13   20     -1.06     -0.48
  -17   13   20      0.77     -0.46
  -15   13   20      1.25      2.04
  -13   13   20     -0.92     -0.20
  -11   13   20     -1.35     -1.17
   -9   13   20     -3.32      1.55
   -7   13   20      1.77     -2.23
   -5   13   20      2.78      3.26
   -3   13   20     -2.53      1.46
   -1   13   20      1.28     -2.33
    1   13   20     -0.19      0.31
    3   13   20      0.96     -0.97
    5   13   20     -1.24      0.16
    7   13   20      0.24     -1.81
    9   13   20      0.74      2.58
   11   13   20      1.10     -0.01
   13   13   20      0.08     -0.97
  -24   12   20     -1.16      0.84
  -22   12   20      1.36      1.63
  -20   12   20      2.05     -2.22
  -18   12   20      2.43     -2.02
  -16   12   20     -2.84      0.06
  -14   12   20      0.42      4.09
  -12   12   20     -1.87     -2.30
  -10   12   20     -0.51      0.89
   -8   12   20      0.24     -2.46
   -6   12   20      0.88      5.03
   -4   12   20     -2.01     -3.90
   -2   12   20      1.26      2.92
    0   12   20     -0.39     -1.34
    2   12   20      1.46      1.32
    4   12   20     -2.79     -3.82
    6   12   20      2.25     -0.14
    8   12   20     -0.94      0.78
   10   12   20      0.09      0.43
   12   12   20      3.54      0.30
   14   12   20      0.26      2.85
   16   12   20     -1.46     -0.50
  -27   11   20     -0.88     -1.06
  -25   11   20      0.85      2.25
  -23   11   20     -2.63     -2.27
  -21   11   20     -0.03      2.47
  -19   11   20      4.68     -1.01
  -17   11   20     -0.10     -2.71
  -15   11   20     -2.62      2.12
  -13   11   20     -1.28     -1.31
  -11   11   20      0.36      2.79
   -9   11   20      0.87     -2.00
   -7   11   20     -1.40     -0.22
   -5   11   20     -0.48     -2.13
   -3   11   20      1.99      2.94
   -1   11   20     -2.42      1.36
    1   11   20      0.90     -0.23
    3   11   20      0.38     -4.28
    5   11   20      1.77      0.56
    7   11   20     -3.19     -2.15
    9   11   20      1.52      2.40
   11   11   20      2.82      0.83
   13   11   20     -0.48      4.80
   15   11   20      0.27     -0.88
   17   11   20     -1.28     -0.59
   19   11   20     -1.97     -0.78
  -28   10   20     -2.77      1.82
  -26   10   20      1.07      0.77
  -24   10   20     -2.85      0.01
  -22   10   20     -2.53     -3.31
  -20   10   20      0.99      3.34
  -18   10   20     -0.50     -1.62
  -16   10   20      3.75      0.67
  -14   10   20     -4.02     -3.09
  -12   10   20      1.75      2.00
  -10   10   20     -2.49     -0.35
   -8   10   20      1.56     -1.43
   -6   10   20      1.66     -3.22
   -4   10   20     -0.06      2.63
   -2   10   20     -5.06      3.82
    0   10   20      4.17     -0.52
    2   10   20     -0.71     -2.88
    4   10   20      4.96     -0.68
    6   10   20     -6.14     -3.21
    8   10   20      5.23      1.61
   10   10   20     -2.85      3.63
   12   10   20      0.70      3.79
   14   10   20     -1.49     -0.88
   16   10   20      1.86      0.90
   18   10   20     -2.02     -2.79
   20   10   20     -0.79     -1.11
  -31    9   20      5.21      2.69
  -29    9   20      2.47      0.85
  -27    9   20     -2.34      2.10
  -25    9   20     -2.68     -1.98
  -23    9   20     -2.36     -0.92
  -21    9   20     -1.25     -3.11
  -19    9   20     -1.49      1.22
  -17    9   20      1.35      0.64
  -15    9   20      1.10     -0.94
  -13    9   20      0.30     -1.03
  -11    9   20     -0.86     -0.57
   -9    9   20     -0.17     -2.06
   -7    9   20      1.05      0.50
   -5    9   20      2.68      0.91
   -3    9   20     -4.02     -0.22
   -1    9   20     -0.55      2.76
    1    9   20      1.34      2.05
    3    9   20      4.22     -3.30
    5    9   20     -1.81     -2.82
    7    9   20      1.54     -0.54
    9    9   20      0.07      3.40
   11    9   20     -3.96      4.10
   13    9   20      1.09     -2.27
   15    9   20     -2.43      1.83
   17    9   20      3.52     -1.56
   19    9   20      0.74     -1.75
   21    9   20     -1.00      0.78
   23    9   20     -1.36      0.91
  -32    8   20      6.83      2.97
  -30    8   20      0.74      5.24
  -28    8   20      1.97     -0.95
  -26    8   20     -4.21     -0.94
  -24    8   20     -3.76     -1.54
  -22    8   20      2.60     -3.28
  -20    8   20     -3.22     -1.16
  -18    8   20      3.30     -0.06
  -16    8   20     -3.78     -0.16
  -14    8   20      3.96     -0.81
  -12    8   20     -0.96      2.26
  -10    8   20     -0.23     -1.90
   -8    8   20     -0.65      0.32
   -6    8   20      1.34     -2.17
   -4    8   20      0.85      2.64
   -2    8   20     -0.49      0.00
    0    8   20     -2.03      1.77
    2    8   20     -1.28      3.31
    4    8   20      4.23     -4.19
    6    8   20      0.53     -2.35
    8    8   20      0.55      1.39
   10    8   20     -1.52      2.21
   12    8   20     -1.61     -0.14
   14    8   20     -0.05     -0.20
   16    8   20      1.34     -1.36
   18    8   20      2.39      3.88
   20    8   20     -0.08     -0.74
   22    8   20     -1.59     -0.67
   24    8   20     -3.05     -0.03
  -33    7   20      1.90     -0.52
  -31    7   20      0.27      4.12
  -29    7   20      0.57      3.84
  -27    7   20     -0.26     -5.47
  -25    7   20     -3.30      1.70
  -23    7   20      1.24     -5.25
  -21    7   20      2.17      0.37
  -19    7   20      1.09     -1.88
  -17    7   20     -0.72     -0.09
  -15    7   20      1.09     -0.44
  -13    7   20      0.08      4.55
  -11    7   20     -3.24      1.67
   -9    7   20     -1.48     -1.96
   -7    7   20      2.73     -0.47
   -5    7   20      1.85     -2.97
   -3    7   20      0.31      2.41
   -1    7   20     -3.73     -0.44
    1    7   20     -0.54      2.02
    3    7   20     -3.68      0.17
    5    7   20      4.30     -0.47
    7    7   20      3.11     -1.63
    9    7   20     -2.36     -0.47
   11    7   20      1.01     -0.73
   13    7   20      0.88      1.83
   15    7   20      1.25      1.00
   17    7   20      0.63      3.04
   19    7   20     -3.02      0.32
   21    7   20     -0.06     -0.31
   23    7   20     -1.09     -3.97
   25    7   20     -0.67      1.44
  -34    6   20      3.33      2.18
  -32    6   20     -2.26      0.95
  -30    6   20      1.25     -3.09
  -28    6   20     -1.55      3.52
  -26    6   20     -0.82     -3.13
  -24    6   20      0.94     -2.44
  -22    6   20      4.23      0.46
  -20    6   20      1.62     -1.98
  -18    6   20      0.77      0.51
  -16    6   20     -0.52      1.11
  -14    6   20      0.17      6.00
  -12    6   20     -3.29      1.68
  -10    6   20     -1.45     -0.44
   -8    6   20     -1.42     -2.51
   -6    6   20      2.55      0.77
   -4    6   20      3.47     -4.57
   -2    6   20     -2.54     -1.19
    0    6   20     -2.45      0.31
    2    6   20     -0.34      1.09
    4    6   20     -4.09      1.46
    6    6   20      2.09      0.56
    8    6   20      3.28     -2.40
   10    6   20      1.07     -2.58
   12    6   20      2.29      3.75
   14    6   20     -1.86      1.22
   16    6   20      1.10      8.75
   18    6   20     -3.13     -6.82
   20    6   20     -0.58      0.79
   22    6   20     -1.28     -3.56
   24    6   20      1.84     -0.73
   26    6   20     -0.68      1.11
  -35    5   20     -2.65     -2.60
  -33    5   20     -3.19      5.56
  -31    5   20      4.70     -4.89
  -29    5   20     -0.46      0.56
  -27    5   20     -3.51      1.33
  -25    5   20      3.85     -5.75
  -23    5   20     -0.46      3.21
  -21    5   20      6.80     -0.40
  -19    5   20     -3.35      2.12
  -17    5   20      0.74     -2.75
  -15    5   20     -1.26      8.99
  -13    5   20     -2.71      1.19
  -11    5   20      2.03      2.87
   -9    5   20     -3.90     -3.01
   -7    5   20     -0.14     -4.14
   -5    5   20      2.24     -1.95
   -3    5   20      3.35     -0.57
   -1    5   20      1.02     -6.60
    1    5   20     -3.36      5.97
    3    5   20     -1.51     -0.86
    5    5   20     -2.64      0.31
    7    5   20     -1.55     -3.99
    9    5   20      7.28      6.63
   11    5   20     -2.21     -4.36
   13    5   20      0.10      6.50
   15    5   20     -2.43     -0.34
   17    5   20     -1.76      4.64
   19    5   20      3.26     -5.79
   21    5   20     -1.04     -2.38
   23    5   20     -0.67     -1.36
   25    5   20      2.12     -0.30
   27    5   20     -0.44      1.94
  -36    4   20      5.48      2.42
  -34    4   20     -9.63    -10.20
  -32    4   20      5.91      3.52
  -30    4   20      0.34      2.14
  -28    4   20     -3.53     -2.72
  -26    4   20      4.79     -0.02
  -24    4   20     -0.54     -0.19
  -22    4   20     -0.35      2.06
  -20    4   20      0.13      2.50
  -18    4   20     -0.06     -1.78
  -16    4   20     -2.03      1.88
  -14    4   20      0.36      4.06
  -12    4   20     -5.41      2.88
  -10    4   20      3.70     -0.32
   -8    4   20     -1.35     -7.42
   -6    4   20      2.32      1.44
   -4    4   20      2.19     -3.50
   -2    4   20      2.37      0.92
    0    4   20      4.97     -1.76
    2    4   20     -9.71      2.83
    4    4   20      3.89     -2.27
    6    4   20     -3.11     -3.28
    8    4   20     -0.38      2.90
   10    4   20     -0.93      1.34
   12    4   20     -3.03      1.88
   14    4   20      2.43      1.09
   16    4   20     -3.69     -1.81
   18    4   20      2.34      2.73
   20    4   20      2.17     -2.09
   22    4   20      1.33     -3.11
   24    4   20     -0.79      0.33
   26    4   20      1.60      1.16
   28    4   20     -0.86     -0.19
  -37    3   20      0.74      3.37
  -35    3   20      0.58     -4.16
  -33    3   20      5.35     -7.88
  -31    3   20     -3.38      5.88
  -29    3   20      0.68     -1.82
  -27    3   20     -0.57     -1.01
  -25    3   20     -0.35      4.36
  -23    3   20     -0.60      0.68
  -21    3   20     -1.97     -1.94
  -19    3   20      1.44      3.02
  -17    3   20      1.65      1.68
  -15    3   20     -5.57     -3.57
  -13    3   20     -3.22      0.41
  -11    3   20      0.52     -1.26
   -9    3   20      3.38      0.73
   -7    3   20      2.96      0.29
   -5    3   20     -0.01      0.09
   -3    3   20      2.09      0.22
   -1    3   20      6.43      2.15
    1    3   20     -5.89      1.40
    3    3   20      1.43     -5.42
    5    3   20     -3.46     -1.71
    7    3   20      3.57      1.53
    9    3   20     -6.03     -3.81
   11    3   20      0.94      5.04
   13    3   20     -5.01     -3.45
   15    3   20      2.09      3.55
   17    3   20      1.75     -3.48
   19    3   20      0.59      3.03
   21    3   20     -0.85     -0.30
   23    3   20      5.05      0.64
   25    3   20     -4.63      0.38
   27    3   20      4.19     -0.17
   29    3   20     -1.97      1.21
  -36    2   20     -4.49      0.52
  -34    2   20     13.91     -4.95
  -32    2   20     -7.22      1.64
  -30    2   20      3.31     -3.62
  -28    2   20     -1.67      1.60
  -26    2   20     -4.85      2.16
  -24    2   20     -2.46     -1.26
  -22    2   20      3.34      2.18
  -20    2   20      3.84      1.11
  -18    2   20     -2.50      4.81
  -16    2   20     -3.29     -5.90
  -14    2   20     -3.23     -7.75
  -12    2   20      3.05     -1.87
  -10    2   20     -2.38      1.95
   -8    2   20      4.09      9.02
   -6    2   20     -0.15     -6.06
   -4    2   20      4.09      9.36
   -2    2   20     -0.56     -2.59
    0    2   20     -0.86      6.77
    2    2   20      0.28     -7.09
    4    2   20      0.05     -3.13
    6    2   20      0.37     -4.22
    8    2   20      1.23      1.86
   10    2   20     -3.50      2.58
   12    2   20      2.65     -3.72
   14    2   20     -3.44     -2.36
   16    2   20     -1.57      2.29
   18    2   20      5.26      1.15
   20    2   20     -4.79      1.48
   22    2   20      0.63      1.51
   24    2   20      0.19      1.21
   26    2   20      0.94      0.81
   28    2   20      0.57      0.91
  -37    1   20     -2.53     -1.94
  -35    1   20      8.46      2.51
  -33    1   20     -3.58     -3.55
  -31    1   20      4.02     -2.27
  -29    1   20     -2.97      0.66
  -27    1   20     -6.06      0.54
  -25    1   20     -0.41     -0.24
  -23    1   20      1.59     -5.71
  -21    1   20      6.88     11.81
  -19    1   20     -5.05      2.32
  -17    1   20      0.62     -9.29
  -15    1   20     -1.23     -1.97
  -13    1   20      1.60     -5.20
  -11    1   20     -2.02      3.24
   -9    1   20     -0.15      0.69
   -7    1   20      0.05      5.13
   -5    1   20      2.88      1.19
   -3    1   20     -1.81      3.53
   -1    1   20     -1.59      1.90
    1    1   20     -1.55     -3.69
    3    1   20      2.70      0.72
    5    1   20      4.19     -6.87
    7    1   20      1.42     -0.96
    9    1   20     -2.54      4.09
   11    1   20      1.16     -1.07
   13    1   20      3.12     -1.48
   15    1   20      0.97     -4.46
   17    1   20     -5.52      3.11
   19    1   20     -1.53      4.52
   21    1   20     -2.36     -1.05
   23    1   20     -0.77      0.09
   25    1   20      0.96      1.98
   27    1   20     -0.56      2.53
   29    1   20      0.20     -2.50
  -38    0   20      1.57      1.84
  -36    0   20     -1.09      2.46
  -34    0   20      3.36     -3.68
  -32    0   20      2.99     -2.36
  -30    0   20     -1.83      0.74
  -28    0   20     -6.72     -0.91
  -26    0   20     -2.89     -1.32
  -24    0   20      6.43      0.66
  -22    0   20      3.95      2.47
  -20    0   20     -6.14     -1.06
  -18    0   20      2.43     -0.01
  -16    0   20      2.81     -0.47
  -14    0   20      0.02     -0.85
  -12    0   20     -5.98      1.14
  -10    0   20      5.89      0.51
   -8    0   20     -6.76      0.77
   -6    0   20      7.11     -0.50
   -4    0   20     -8.29      0.55
   -2    0   20      4.25      0.56
    0    0   20     -4.38     -0.45
    2    0   20     -0.56     -0.45
    4    0   20      6.95      0.12
    6    0   20      3.43     -0.31
    8    0   20     -1.49     -0.04
   10    0   20      1.13     -0.31
   12    0   20     -0.33     -0.35
   14    0   20      5.76      0.43
   16    0   20      1.96      0.35
   18    0   20    -13.86      0.01
   20    0   20      0.30      0.24
   22    0   20     -0.66     -0.33
   24    0   20     -0.21      0.06
   26    0   20     -1.15      0.33
   28    0   20     -0.27     -0.52
  -14   14   21     -0.92     -0.33
  -12   14   21     -1.15     -0.60
  -10   14   21     -0.33      2.63
   -8   14   21     -1.72     -1.29
   -6   14   21      4.59     -1.55
   -4   14   21      0.89      2.22
   -2   14   21     -1.26     -0.77
    0   14   21      0.44      0.67
    2   14   21     -0.33     -2.38
    4   14   21      0.12      0.52
    6   14   21     -1.83      0.76
  -19   13   21      0.12     -1.41
  -17   13   21     -0.96      3.08
  -15   13   21      2.63      1.05
  -13   13   21     -3.66      0.19
  -11   13   21      0.10      0.38
   -9   13   21     -2.22     -1.48
   -7   13   21      5.95      0.97
   -5   13   21     -2.30      1.35
   -3   13   21      0.79     -0.11
   -1   13   21     -1.29     -1.79
    1   13   21      1.89     -0.48
    3   13   21     -0.90      0.80
    5   13   21     -0.22     -2.79
    7   13   21      0.59      2.04
    9   13   21      0.15      2.23
   11   13   21     -0.04     -1.52
  -24   12   21     -1.32      0.82
  -22   12   21      3.86      0.69
  -20   12   21      1.09     -4.39
  -18   12   21     -0.96      0.54
  -16   12   21     -1.93      3.41
  -14   12   21     -2.55      1.90
  -12   12   21      0.91     -0.38
  -10   12   21     -0.80     -2.44
   -8   12   21      3.14      1.71
   -6   12   21     -2.18      0.91
   -4   12   21     -0.02     -2.81
   -2   12   21      0.63      2.50
    0   12   21      0.64     -1.25
    2   12   21     -1.03     -1.04
    4   12   21      1.72     -1.78
    6   12   21     -0.75      1.24
    8   12   21      0.40      1.17
   10   12   21     -0.47      0.45
   12   12   21      3.31      1.04
   14   12   21     -2.05      0.74
  -25   11   21     -0.45      0.97
  -23   11   21     -1.21      0.07
  -21   11   21      3.39      0.12
  -19   11   21      1.50     -0.84
  -17   11   21     -0.82     -1.70
  -15   11   21     -6.74      3.25
  -13   11   21      2.41     -1.05
  -11   11   21     -1.00      1.70
   -9   11   21      4.09     -2.23
   -7   11   21     -4.61     -0.96
   -5   11   21      3.88     -1.57
   -3   11   21     -2.30      5.04
   -1   11   21      0.54     -2.29
    1   11   21      0.02      0.55
    3   11   21      3.45     -4.87
    5   11   21     -3.25      4.41
    7   11   21      0.61     -2.37
    9   11   21      0.02      2.45
   11   11   21      3.33      3.22
   13   11   21     -2.74      0.46
   15   11   21      0.68     -1.56
   17   11   21     -1.68     -0.81
  -28   10   21     -1.25     -0.47
  -26   10   21     -2.21      2.02
  -24   10   21     -1.19     -2.07
  -22   10   21     -1.41     -0.60
  -20   10   21      1.61      2.91
  -18   10   21      2.77     -1.90
  -16   10   21     -2.97     -0.34
  -14   10   21     -0.33     -2.08
  -12   10   21     -1.29      1.75
  -10   10   21      0.70     -1.08
   -8   10   21      2.42     -1.36
   -6   10   21      2.08     -1.98
   -4   10   21     -3.89      5.28
   -2   10   21     -0.28      0.38
    0   10   21      2.07     -0.34
    2   10   21      2.96     -3.39
    4   10   21     -2.15      1.63
    6   10   21     -0.54     -2.43
    8   10   21     -0.08      3.69
   10   10   21      0.91      3.96
   12   10   21     -2.82     -0.93
   14   10   21      2.39      1.00
   16   10   21     -0.75     -2.63
   18   10   21     -2.20     -1.61
   20   10   21      0.22     -0.92
  -29    9   21     -2.42     -2.71
  -27    9   21     -3.22      0.86
  -25    9   21     -4.70     -1.05
  -23    9   21      0.85     -4.14
  -21    9   21     -2.77      2.68
  -19    9   21      3.90     -1.95
  -17    9   21     -1.60      4.59
  -15    9   21      2.57     -6.07
  -13    9   21     -1.05      2.26
  -11    9   21     -0.55     -3.89
   -9    9   21      1.68      2.17
   -7    9   21      1.69      0.43
   -5    9   21      1.45      2.54
   -3    9   21     -5.49     -0.94
   -1    9   21      2.17      3.64
    1    9   21      2.11     -1.99
    3    9   21      1.47     -1.04
    5    9   21     -1.57     -4.01
    7    9   21      0.57      5.48
    9    9   21     -2.29      0.12
   11    9   21     -1.31      2.88
   13    9   21      0.28     -2.38
   15    9   21     -0.09      1.30
   17    9   21      2.25     -3.12
   19    9   21     -0.22     -0.22
   21    9   21     -1.91     -0.40
  -32    8   21      3.74      3.71
  -30    8   21      2.65      1.65
  -28    8   21     -6.18     -3.99
  -26    8   21     -1.92     -1.39
  -24    8   21     -3.52     -3.55
  -22    8   21      3.45     -0.59
  -20    8   21     -0.50     -0.79
  -18    8   21     -0.18      2.58
  -16    8   21     -0.22     -1.25
  -14    8   21      2.17      0.50
  -12    8   21      0.01     -0.09
  -10    8   21     -0.25     -0.01
   -8    8   21      0.47      0.02
   -6    8   21      0.55      2.24
   -4    8   21      1.17      0.84
   -2    8   21     -3.33      0.80
    0    8   21     -0.98      0.42
    2    8   21      2.39      0.83
    4    8   21      1.39     -4.10
    6    8   21      1.42     -1.22
    8    8   21     -1.02      4.36
   10    8   21     -3.14     -0.95
   12    8   21      1.07      1.48
   14    8   21     -1.87     -2.58
   16    8   21      3.65      1.95
   18    8   21      0.07      0.50
   20    8   21     -0.35     -1.10
   22    8   21     -3.03     -1.24
  -33    7   21      2.30      5.36
  -31    7   21     -2.25     -0.16
  -29    7   21      2.33      1.70
  -27    7   21     -3.62     -5.91
  -25    7   21     -0.93     -2.79
  -23    7   21      3.50     -0.08
  -21    7   21      1.06     -1.08
  -19    7   21      0.03      1.55
  -17    7   21     -2.53     -0.31
  -15    7   21      2.78      2.06
  -13    7   21     -3.11      2.84
  -11    7   21      0.64     -0.61
   -9    7   21     -2.94     -1.03
   -7    7   21      5.41     -0.62
   -5    7   21     -1.63      0.35
   -3    7   21     -1.14      1.67
   -1    7   21     -2.53     -0.08
    1    7   21     -3.51     -1.52
    3    7   21      4.90      2.51
    5    7   21      1.51     -3.64
    7    7   21      4.10      1.20
    9    7   21     -4.04      0.18
   11    7   21      1.21     -0.04
   13    7   21     -1.70      1.31
   15    7   21      3.88      1.53
   17    7   21     -4.65      0.96
   19    7   21      0.88     -1.31
   21    7   21     -0.26     -1.44
   23    7   21     -1.82     -2.85
  -34    6   21      4.72      1.85
  -32    6   21     -3.46     -1.92
  -30    6   21     -1.39      0.26
  -28    6   21      3.15      1.02
  -26    6   21     -3.00     -5.09
  -24    6   21      6.10      1.01
  -22    6   21      1.62     -1.38
  -20    6   21      0.41      4.15
  -18    6   21     -2.92     -2.34
  -16    6   21      1.01      5.01
  -14    6   21     -2.94      2.54
  -12    6   21     -0.88     -0.69
  -10    6   21     -2.14     -3.36
   -8    6   21      0.83     -0.83
   -6    6   21      2.70     -1.21
   -4    6   21      0.15      0.48
   -2    6   21     -4.62     -4.27
    0    6   21     -0.39      4.38
    2    6   21     -1.01     -2.79
    4    6   21      0.46      3.75
    6    6   21      3.11      0.52
    8    6   21      4.83     -3.03
   10    6   21     -1.87      1.84
   12    6   21      0.84      1.94
   14    6   21     -2.73      2.83
   16    6   21     -0.16      2.04
   18    6   21     -1.79     -6.51
   20    6   21     -0.45     -0.23
   22    6   21      2.55     -2.29
   24    6   21     -0.85      0.78
   26    6   21      1.46      0.96
  -35    5   21     -5.05      3.45
  -33    5   21      2.27     -2.79
  -31    5   21      3.69      0.00
  -29    5   21     -7.15      0.89
  -27    5   21      5.10     -2.15
  -25    5   21      0.70      0.22
  -23    5   21      4.24      2.77
  -21    5   21     -0.57      1.30
  -19    5   21     -3.01      2.34
  -17    5   21     -0.24     -1.09
  -15    5   21     -1.44      5.05
  -13    5   21     -0.02      1.08
  -11    5   21     -0.52     -4.33
   -9    5   21     -1.75     -4.06
   -7    5   21      1.54     -2.47
   -5    5   21      1.56     -0.17
   -3    5   21      0.34     -2.30
   -1    5   21     -1.08     -1.91
    1    5   21     -2.30      6.93
    3    5   21     -1.83     -4.13
    5    5   21     -1.16      1.50
    7    5   21      3.80      2.43
    9    5   21      3.13      1.25
   11    5   21     -1.09      3.47
   13    5   21     -1.18     -2.61
   15    5   21     -4.67      4.44
   17    5   21      4.09     -4.72
   19    5   21     -0.10     -2.65
   21    5   21      0.49     -2.65
   23    5   21      2.09      1.81
   25    5   21     -0.58      0.88
  -36    4   21      1.73     -2.99
  -34    4   21     -5.37     -4.25
  -32    4   21      5.41      4.87
  -30    4   21     -1.58     -1.03
  -28    4   21     -5.67     -2.12
  -26    4   21      9.22      3.50
  -24    4   21     -4.32      0.51
  -22    4   21     -0.22      5.88
  -20    4   21     -2.88     -3.24
  -18    4   21      2.59      0.00
  -16    4   21     -3.20      2.07
  -14    4   21      2.29      1.55
  -12    4   21     -1.87      0.84
  -10    4   21      2.16     -6.83
   -8    4   21      1.70     -1.78
   -6    4   21      1.14     -1.91
   -4    4   21     -0.08      1.46
   -2    4   21      4.74     -4.02
    0    4   21     -6.75      5.10
    2    4   21     -1.15     -1.78
    4    4   21     -1.61     -0.71
    6    4   21      2.57     -2.34
    8    4   21     -6.24      8.73
   10    4   21      4.46     -1.52
   12    4   21     -4.01      3.26
   14    4   21      4.60     -3.50
   16    4   21     -4.23     -0.99
   18    4   21      6.03     -0.01
   20    4   21     -0.64     -1.07
   22    4   21      2.08     -1.96
   24    4   21     -0.92      3.80
   26    4   21      0.00     -0.73
  -37    3   21      0.11      5.11
  -35    3   21      4.71    -13.50
  -33    3   21     -0.61      7.88
  -31    3   21     -3.00     -2.33
  -29    3   21      0.21     -2.64
  -27    3   21     -1.23      7.00
  -25    3   21     -1.81      0.42
  -23    3   21     -0.88      1.29
  -21    3   21     -2.86     -1.33
  -19    3   21      4.13     -0.94
  -17    3   21     -0.93     -0.31
  -15    3   21     -2.70     -0.14
  -13    3   21     -0.29     -2.80
  -11    3   21      3.93      3.73
   -9    3   21      5.69     -1.52
   -7    3   21     -3.46      0.82
   -5    3   21      5.06     -0.59
   -3    3   21     -1.93      0.51
   -1    3   21      3.66      0.77
    1    3   21     -8.55     -4.13
    3    3   21      2.47     -0.32
    5    3   21     -1.94     -2.07
    7    3   21     -1.59      1.33
    9    3   21     -1.95      4.21
   11    3   21     -2.80     -2.79
   13    3   21      2.00      3.08
   15    3   21      2.80     -1.72
   17    3   21      1.68     -2.22
   19    3   21     -0.03      3.89
   21    3   21      0.97     -0.46
   23    3   21     -0.06      0.88
   25    3   21     -0.42      0.49
   27    3   21      0.68     -0.37
  -36    2   21      5.82     -4.73
  -34    2   21      1.64      2.46
  -32    2   21     -3.00     -4.66
  -30    2   21     -0.67      2.95
  -28    2   21     -2.04     -0.28
  -26    2   21     -4.75      3.73
  -24    2   21     -1.82     -0.80
  -22    2   21      8.52     -2.45
  -20    2   21     -2.71      3.93
  -18    2   21     -1.67     -3.51
  -16    2   21     -0.58     -4.26
  -14    2   21     -1.62     -4.97
  -12    2   21      4.64      5.79
  -10    2   21     -0.33      5.05
   -8    2   21      3.22      4.28
   -6    2   21     -0.12     -2.28
   -4    2   21      1.19      2.27
   -2    2   21     -0.24      1.78
    0    2   21     -2.94     -5.73
    2    2   21      3.50     -1.78
    4    2   21     -2.71     -7.20
    6    2   21      0.19      3.22
    8    2   21     -1.38      1.43
   10    2   21     -2.68      3.04
   12    2   21      1.73     -4.78
   14    2   21     -2.07      0.23
   16    2   21      2.46      3.75
   18    2   21      0.97      0.75
   20    2   21     -2.17      0.25
   22    2   21     -0.52      3.42
   24    2   21      1.02     -2.44
   26    2   21      1.61      2.45
   28    2   21     -1.63     -2.08
  -37    1   21     -0.50     -1.29
  -35    1   21      5.35      0.93
  -33    1   21     -4.78     -6.23
  -31    1   21      0.98      3.02
  -29    1   21     -4.20      1.07
  -27    1   21     -5.02     -0.42
  -25    1   21      4.28     -1.98
  -23    1   21      5.22      1.43
  -21    1   21      1.49      4.45
  -19    1   21     -3.39     -2.01
  -17    1   21     -1.78     -7.38
  -15    1   21      2.21     -3.20
  -13    1   21     -1.25      6.25
  -11    1   21      1.24     -0.78
   -9    1   21     -3.48      8.73
   -7    1   21      5.52     -2.54
   -5    1   21     -5.07      6.61
   -3    1   21      3.25     -5.92
   -1    1   21     -3.81      2.23
    1    1   21      3.52     -3.64
    3    1   21      3.82     -5.42
    5    1   21      2.21     -1.26
    7    1   21     -1.79      1.52
    9    1   21     -5.28      2.23
   11    1   21      2.93      1.16
   13    1   21      1.70     -3.48
   15    1   21     -2.90     -3.17
   17    1   21     -3.00      9.92
   19    1   21     -1.96     -2.40
   21    1   21      0.66     -0.10
   23    1   21     -0.22      1.34
   25    1   21      1.47      0.54
   27    1   21     -0.55     -0.02
  -36    0   21     -1.24      3.86
  -34    0   21      3.03    -10.19
  -32    0   21     -1.17      4.51
  -30    0   21     -6.27     -1.44
  -28    0   21     -3.35      0.33
  -26    0   21      2.15     -0.05
  -24    0   21     10.71      1.84
  -22    0   21     -1.75      0.91
  -20    0   21     -4.77     -0.72
  -18    0   21      5.89     -0.62
  -16    0   21     -4.92     -0.32
  -14    0   21      2.19      0.33
  -12    0   21     -4.53      1.32
  -10    0   21      3.01      1.42
   -8    0   21     -3.29     -1.13
   -6    0   21      1.69     -0.15
   -4    0   21     -3.85      0.61
   -2    0   21      2.06     -0.65
    0    0   21      1.54     -0.21
    2    0   21     -0.39     -0.66
    4    0   21     11.28     -0.15
    6    0   21     -2.41      0.51
    8    0   21     -4.23     -0.80
   10    0   21     -1.28      0.45
   12    0   21      1.46     -0.41
   14    0   21      4.19      0.56
   16    0   21     -7.15      0.39
   18    0   21     -5.87     -0.29
   20    0   21     -0.20      0.05
   22    0   21      3.96     -0.04
   24    0   21     -2.11     -0.03
   26    0   21      0.20      0.10
   28    0   21      1.84     -0.24
  -12   14   22     -0.42     -0.39
  -10   14   22     -0.64      1.49
   -8   14   22      1.51     -2.78
   -6   14   22      2.66      0.45
   -4   14   22     -0.68      1.11
   -2   14   22     -1.62      0.64
    0   14   22      0.14     -1.55
    2   14   22      0.46     -0.06
    4   14   22     -2.52     -0.39
  -19   13   22      0.36      0.89
  -17   13   22      0.31      3.50
  -15   13   22      0.15      0.91
  -13   13   22     -1.13     -0.95
  -11   13   22     -1.68      0.06
   -9   13   22      3.36     -2.91
   -7   13   22      2.07      2.89
   -5   13   22     -3.21     -0.84
   -3   13   22      1.18     -0.73
   -1   13   22     -1.32     -0.79
    1   13   22      1.47      0.41
    3   13   22     -0.51     -1.14
    5   13   22     -0.23     -0.34
    7   13   22      0.21      2.68
    9   13   22     -0.49      1.12
  -22   12   22      1.27     -1.68
  -20   12   22      0.72     -1.76
  -18   12   22     -3.71      2.10
  -16   12   22     -1.24      6.30
  -14   12   22     -1.19     -2.60
  -12   12   22      1.57      0.59
  -10   12   22      2.78     -5.11
   -8   12   22     -0.77      5.64
   -6   12   22     -1.20     -5.69
   -4   12   22     -0.14      2.84
   -2   12   22      0.73     -1.08
    0   12   22      0.55      0.45
    2   12   22     -0.69     -2.33
    4   12   22      2.83      1.34
    6   12   22     -2.15      0.93
    8   12   22     -1.47      1.51
   10   12   22      2.48     -0.73
   12   12   22     -0.77      1.36
  -25   11   22     -0.84     -0.44
  -23   11   22      0.06      0.90
  -21   11   22      4.00     -0.77
  -19   11   22     -1.97     -1.60
  -17   11   22     -3.77      3.01
  -15   11   22     -3.81     -0.50
  -13   11   22      3.02      1.22
  -11   11   22      2.89     -1.53
   -9   11   22      0.50     -0.96
   -7   11   22     -2.30     -3.09
   -5   11   22      2.20      2.90
   -3   11   22     -2.15      1.41
   -1   11   22      1.25     -0.57
    1   11   22      1.68     -2.47
    3   11   22      0.76      2.32
    5   11   22     -3.15     -0.22
    7   11   22      0.72      1.04
    9   11   22      0.93     -0.06
   11   11   22      0.18      3.72
   13   11   22     -0.79     -3.15
   15   11   22     -0.50     -1.03
  -28   10   22     -0.25      0.36
  -26   10   22     -1.86      1.96
  -24   10   22     -0.70     -2.83
  -22   10   22      1.36      2.85
  -20   10   22      1.21     -1.68
  -18   10   22      1.47      2.50
  -16   10   22     -5.71     -5.78
  -14   10   22      2.95      3.34
  -12   10   22     -2.62     -2.31
  -10   10   22      5.26      2.28
   -8   10   22     -0.24     -4.20
   -6   10   22      1.99      2.55
   -4   10   22     -6.23      3.50
   -2   10   22      4.58     -0.97
    0   10   22     -0.74     -0.65
    2   10   22      3.56     -0.34
    4   10   22     -6.92     -0.40
    6   10   22      4.40      1.31
    8   10   22     -2.99      1.02
   10   10   22      1.17      2.93
   12   10   22     -1.15     -3.13
   14   10   22      2.08      0.95
   16   10   22     -2.39     -2.69
   18   10   22     -0.69     -2.07
  -29    9   22     -4.18     -0.61
  -27    9   22     -4.49     -0.43
  -25    9   22     -1.19     -0.57
  -23    9   22      1.90     -1.46
  -21    9   22     -0.78      0.95
  -19    9   22      4.32      2.79
  -17    9   22     -3.02     -1.85
  -15    9   22      3.19     -2.32
  -13    9   22     -2.39     -0.35
  -11    9   22      2.16     -0.80
   -9    9   22      0.53      3.30
   -7    9   22      3.13      1.36
   -5    9   22     -3.23     -0.05
   -3    9   22     -1.76      1.62
   -1    9   22      1.09      0.23
    1    9   22      3.15     -2.04
    3    9   22     -2.49     -0.86
    5    9   22     -0.35     -0.35
    7    9   22     -0.09      3.18
    9    9   22     -2.83      0.73
   11    9   22      2.12     -2.16
   13    9   22     -2.02      1.78
   15    9   22      2.80     -2.24
   17    9   22     -0.89     -1.75
   19    9   22      0.02     -0.63
  -30    8   22      0.58     -3.53
  -28    8   22     -7.31     -2.50
  -26    8   22     -3.18     -2.33
  -24    8   22      4.16     -0.40
  -22    8   22     -0.81     -0.72
  -20    8   22      3.58      3.37
  -18    8   22     -4.62      0.50
  -16    8   22      4.26     -1.19
  -14    8   22     -0.84      1.00
  -12    8   22      2.17     -1.99
  -10    8   22     -1.92      4.16
   -8    8   22      1.57     -1.61
   -6    8   22     -0.05      4.86
   -4    8   22     -0.83     -2.90
   -2    8   22     -2.60      1.01
    0    8   22      0.12     -0.53
    2    8   22      4.27     -1.71
    4    8   22     -1.39     -1.29
    6    8   22      0.89      0.68
    8    8   22     -1.49      2.43
   10    8   22     -2.04     -0.47
   12    8   22      0.25     -0.82
   14    8   22      0.40     -0.91
   16    8   22      2.13      1.34
   18    8   22     -0.82     -0.76
   20    8   22      0.00     -2.70
   22    8   22     -3.13      1.00
  -33    7   22     -0.73      3.73
  -31    7   22     -0.62      1.68
  -29    7   22      0.23     -6.69
  -27    7   22     -3.49     -0.52
  -25    7   22      2.21     -4.38
  -23    7   22      1.99      3.64
  -21    7   22      2.05      0.30
  -19    7   22     -5.39      1.69
  -17    7   22      1.91      0.04
  -15    7   22     -0.54      2.04
  -13    7   22      0.75      0.75
  -11    7   22     -2.96     -0.58
   -9    7   22      2.03     -0.07
   -7    7   22      0.93     -0.19
   -5    7   22      0.11      1.99
   -3    7   22     -4.62     -1.80
   -1    7   22      0.85     -0.74
    1    7   22     -0.96     -0.56
    3    7   22      5.11      0.46
    5    7   22      3.59     -0.49
    7    7   22     -2.45      1.07
    9    7   22     -0.81      0.18
   11    7   22     -2.04      0.18
   13    7   22      1.11     -0.75
   15    7   22      0.63      2.66
   17    7   22     -2.39     -2.58
   19    7   22      1.70      0.15
   21    7   22     -0.90     -3.58
   23    7   22     -0.30      0.76
  -34    6   22     -1.74      0.65
  -32    6   22      0.63     -3.51
  -30    6   22     -3.18      5.71
  -28    6   22      4.39     -6.66
  -26    6   22      0.18      0.78
  -24    6   22      3.32     -0.73
  -22    6   22      0.09      3.40
  -20    6   22     -1.53      1.50
  -18    6   22     -4.70     -1.60
  -16    6   22      2.55      4.34
  -14    6   22     -2.48     -1.22
  -12    6   22     -1.23     -1.00
  -10    6   22     -1.25     -4.29
   -8    6   22      2.40      1.86
   -6    6   22      0.91     -0.24
   -4    6   22     -2.67     -0.64
   -2    6   22     -2.21     -1.63
    0    6   22      2.24      0.09
    2    6   22     -0.89      2.97
    4    6   22      3.94     -0.56
    6    6   22      3.30      4.13
    8    6   22     -0.28     -4.28
   10    6   22      0.10      3.08
   12    6   22     -3.79     -1.02
   14    6   22      0.60      4.04
   16    6   22     -1.83     -5.43
   18    6   22      1.23     -1.39
   20    6   22      0.25     -0.37
   22    6   22      2.39     -2.21
   24    6   22     -0.97      3.60
  -35    5   22     -1.20      4.55
  -33    5   22      2.39     -4.13
  -31    5   22     -1.25     -0.06
  -29    5   22     -4.22      5.72
  -27    5   22      7.55     -7.34
  -25    5   22     -0.24      6.40
  -23    5   22      3.67      0.78
  -21    5   22     -6.94      2.34
  -19    5   22      1.53     -2.32
  -17    5   22     -1.71      1.60
  -15    5   22      0.69     -0.41
  -13    5   22     -0.32      0.20
  -11    5   22     -2.36     -7.21
   -9    5   22      1.49     -0.99
   -7    5   22     -0.77     -0.82
   -5    5   22      1.02      2.29
   -3    5   22     -0.93     -5.17
   -1    5   22     -1.66      6.77
    1    5   22      1.76     -0.49
    3    5   22     -2.75      0.22
    5    5   22      1.85      0.39
    7    5   22      5.12      6.34
    9    5   22     -1.41     -2.32
   11    5   22      0.62      2.19
   13    5   22     -3.89     -4.32
   15    5   22     -0.89      2.23
   17    5   22      3.85     -5.53
   19    5   22     -0.64     -0.25
   21    5   22      2.47      0.60
   23    5   22      0.00      1.38
   25    5   22     -0.80      2.06
  -34    4   22      4.66      1.84
  -32    4   22     -3.01      3.97
  -30    4   22     -4.65     -6.11
  -28    4   22      4.01      6.44
  -26    4   22      0.77     -0.48
  -24    4   22      0.41      5.17
  -22    4   22     -3.97     -0.22
  -20    4   22     -0.60     -4.13
  -18    4   22      4.57      0.04
  -16    4   22     -0.34      1.20
  -14    4   22     -1.15      1.32
  -12    4   22      2.22     -4.87
  -10    4   22     -0.98     -3.80
   -8    4   22      1.48     -0.19
   -6    4   22     -0.90     -0.67
   -4    4   22      0.71      0.32
   -2    4   22     -0.91     -0.05
    0    4   22     -5.99      5.20
    2    4   22      3.34     -2.90
    4    4   22     -0.91      0.10
    6    4   22     -0.85      2.76
    8    4   22      0.95      5.06
   10    4   22     -2.67     -0.10
   12    4   22      6.29     -2.92
   14    4   22     -3.12     -2.66
   16    4   22      1.30     -1.28
   18    4   22      2.70      0.95
   20    4   22     -0.26     -0.84
   22    4   22      0.63      3.28
   24    4   22     -1.05     -0.41
   26    4   22     -0.53      0.59
  -35    3   22      3.16     -3.61
  -33    3   22     -5.87      3.28
  -31    3   22      0.30     -0.19
  -29    3   22     -3.48     -4.67
  -27    3   22      1.75     12.83
  -25    3   22     -2.73     -3.24
  -23    3   22     -1.91     -2.12
  -21    3   22      3.08     -0.95
  -19    3   22      2.76     -2.12
  -17    3   22      1.07      0.08
  -15    3   22     -2.36      2.26
  -13    3   22      2.69     -1.52
  -11    3   22      3.70      1.61
   -9    3   22      0.35     -0.36
   -7    3   22     -1.29     -1.94
   -5    3   22     -0.95     -0.17
   -3    3   22      3.04      0.23
   -1    3   22     -8.36     -2.14
    1    3   22      1.89      0.02
    3    3   22     -2.40     -0.42
    5    3   22      2.60      2.34
    7    3   22     -6.09      1.05
    9    3   22      2.96      3.23
   11    3   22     -2.49     -3.11
   13    3   22      6.22      1.81
   15    3   22      0.93     -3.92
   17    3   22      0.92      1.87
   19    3   22     -2.49      0.62
   21    3   22      2.26      3.22
   23    3   22     -2.91     -1.82
   25    3   22      2.43      0.29
   27    3   22     -0.95     -0.62
  -36    2   22      8.33     -3.50
  -34    2   22     -8.53      2.35
  -32    2   22      2.21     -2.83
  -30    2   22     -1.40      1.25
  -28    2   22     -5.86      4.45
  -26    2   22      1.22     -1.31
  -24    2   22      1.74     -0.96
  -22    2   22      3.48     -3.65
  -20    2   22      1.04      2.19
  -18    2   22     -3.37     -1.60
  -16    2   22      0.72     -3.73
  -14    2   22      2.99      3.84
  -12    2   22      0.01      5.44
  -10    2   22      2.05      5.36
   -8    2   22      0.03     -4.78
   -6    2   22      0.24      1.70
   -4    2   22     -2.49     -4.80
   -2    2   22      1.48      1.38
    0    2   22     -2.00     -6.87
    2    2   22      0.22      0.52
    4    2   22     -1.04     -1.34
    6    2   22     -1.63      3.26
    8    2   22     -3.61      5.11
   10    2   22      3.92     -4.02
   12    2   22     -0.84     -0.69
   14    2   22     -0.50      1.10
   16    2   22      5.87      2.19
   18    2   22     -5.13      0.72
   20    2   22      0.19     -0.55
   22    2   22      0.15      2.21
   24    2   22      1.08     -2.07
   26    2   22      0.72      0.40
  -37    1   22      4.84      2.73
  -35    1   22     -6.23     -5.03
  -33    1   22      2.92      0.21
  -31    1   22     -6.21      3.30
  -29    1   22      1.44      0.24
  -27    1   22     -2.35     -0.41
  -25    1   22      7.28     -3.49
  -23    1   22      6.30      4.24
  -21    1   22     -6.51     -0.49
  -19    1   22      0.10     -4.70
  -17    1   22     -3.94      0.25
  -15    1   22      4.25     -0.94
  -13    1   22     -2.26      8.96
  -11    1   22      0.90     -0.16
   -9    1   22     -1.40      4.50
   -7    1   22      1.88     -3.46
   -5    1   22     -0.99      0.84
   -3    1   22      0.47     -5.86
   -1    1   22      2.51     -1.14
    1    1   22     -0.38      0.85
    3    1   22      4.30     -7.52
    5    1   22     -3.60      5.56
    7    1   22     -4.50      0.95
    9    1   22     -1.78      3.05
   11    1   22      3.49     -2.05
   13    1   22      1.35     -2.95
   15    1   22     -4.62      3.02
   17    1   22      0.10      3.50
   19    1   22     -0.14     -0.90
   21    1   22      0.46     -2.52
   23    1   22      1.38      2.96
   25    1   22      0.19     -0.63
   27    1   22      0.34     -2.00
  -36    0   22      0.67     -3.37
  -34    0   22      0.97     -1.85
  -32    0   22     -6.89      1.37
  -30    0   22     -1.45      3.16
  -28    0   22      1.52     -1.88
  -26    0   22      7.60      1.55
  -24    0   22      6.33      1.77
  -22    0   22     -3.74     -1.08
  -20    0   22     -4.51     -0.11
  -18    0   22      0.54     -0.88
  -16    0   22     -0.13     -0.17
  -14    0   22     -5.72      2.09
  -12    0   22      5.92      0.18
  -10    0   22     -5.47      1.57
   -8    0   22      3.82     -3.69
   -6    0   22     -5.52      1.50
   -4    0   22      8.15     -0.66
   -2    0   22     -2.22     -0.37
    0    0   22      2.05     -0.76
    2    0   22      5.23      0.40
    4    0   22     -1.37     -0.66
    6    0   22     -1.51      1.14
    8    0   22     -7.87     -0.69
   10    0   22      1.74      0.00
   12    0   22      2.78      0.54
   14    0   22      2.27     -0.02
   16    0   22    -10.62      0.35
   18    0   22      2.53     -0.35
   20    0   22      2.82     -0.03
   22    0   22     -0.76      0.19
   24    0   22      1.63     -0.01
   26    0   22     -0.94     -0.25
  -10   14   23     -0.94     -1.92
   -8   14   23      3.34     -0.90
   -6   14   23     -1.04      1.48
   -4   14   23     -0.76      0.34
   -2   14   23     -1.57      0.88
    0   14   23      0.97     -1.80
  -17   13   23      2.12      1.89
  -15   13   23     -2.14     -0.57
  -13   13   23      0.34     -1.31
  -11   13   23     -0.80     -2.70
   -9   13   23      4.30      0.97
   -7   13   23     -3.03     -0.21
   -5   13   23     -0.44      1.00
   -3   13   23     -0.84     -2.03
   -1   13   23      1.11      1.19
    1   13   23     -0.16      0.24
    3   13   23      0.38     -2.58
    5   13   23     -0.76      2.92
    7   13   23     -0.36      1.48
  -20   12   23     -1.86      1.80
  -18   12   23     -1.88      3.75
  -16   12   23     -1.54      2.64
  -14   12   23      1.96     -3.09
  -12   12   23      2.13     -3.49
  -10   12   23      2.02     -0.04
   -8   12   23     -3.79      1.12
   -6   12   23     -0.07     -3.28
   -4   12   23      0.48      3.28
   -2   12   23      0.38     -0.76
    0   12   23      0.46     -0.40
    2   12   23      1.49     -0.06
    4   12   23     -0.50      1.14
    6   12   23     -1.89      0.93
    8   12   23     -1.87      0.39
   10   12   23      3.13     -0.84
   12   12   23     -1.82     -0.31
  -23   11   23      0.77     -0.64
  -21   11   23      1.12     -0.07
  -19   11   23     -2.18      0.16
  -17   11   23     -6.85      2.97
  -15   11   23      4.48     -2.25
  -13   11   23      0.05      0.79
  -11   11   23      7.57     -2.44
   -9   11   23     -7.73     -1.40
   -7   11   23      4.06     -1.47
   -5   11   23     -3.17      4.50
   -3   11   23      1.53     -0.72
   -1   11   23      0.60      0.30
    1   11   23      2.23     -1.27
    3   11   23     -3.08      3.85
    5   11   23      0.01     -2.90
    7   11   23     -1.67      0.32
    9   11   23      2.94      1.85
   11   11   23     -2.45     -1.01
   13   11   23      1.80     -1.62
   15   11   23     -1.12     -0.62
  -26   10   23      0.00     -0.73
  -24   10   23      0.52     -1.03
  -22   10   23      0.40      2.24
  -20   10   23      2.80     -1.82
  -18   10   23     -4.91      1.65
  -16   10   23      0.12     -5.27
  -14   10   23      0.80      3.72
  -12   10   23      1.52     -1.96
  -10   10   23      2.88      1.70
   -8   10   23      0.42     -3.76
   -6   10   23     -3.25      4.71
   -4   10   23      0.17      1.08
   -2   10   23      1.09     -0.58
    0   10   23      1.26     -0.21
    2   10   23     -2.70      0.35
    4   10   23     -1.26     -0.82
    6   10   23      1.58      0.33
    8   10   23     -0.43      0.89
   10   10   23     -1.25     -0.90
   12   10   23      2.41     -0.07
   14   10   23     -0.77     -1.34
   16   10   23     -1.93     -1.01
  -29    9   23     -3.16      1.29
  -27    9   23     -3.20      1.34
  -25    9   23      3.67     -2.50
  -23    9   23     -0.71      2.32
  -21    9   23      4.29     -1.28
  -19    9   23     -2.93      4.74
  -17    9   23      2.24     -6.99
  -15    9   23     -1.20      2.59
  -13    9   23      0.73     -4.14
  -11    9   23      1.52      6.00
   -9    9   23      0.49     -1.30
   -7    9   23      2.09      3.10
   -5    9   23     -5.41     -2.20
   -3    9   23      1.81      3.15
   -1    9   23     -0.83     -2.80
    1    9   23      2.06     -0.60
    3    9   23     -3.31     -1.18
    5    9   23      1.02      3.04
    7    9   23     -0.77     -2.00
    9    9   23     -0.01      0.90
   11    9   23      0.46     -1.88
   13    9   23     -0.13      2.12
   15    9   23      0.20     -3.14
   17    9   23      0.43     -0.48
   19    9   23     -1.65     -1.29
  -30    8   23     -5.93     -3.80
  -28    8   23     -2.35     -1.02
  -26    8   23     -1.46     -0.13
  -24    8   23      5.63      1.15
  -22    8   23      0.43     -0.97
  -20    8   23     -0.83      6.50
  -18    8   23     -1.18     -4.97
  -16    8   23      2.63      2.41
  -14    8   23      0.18     -3.44
  -12    8   23      0.78      3.88
  -10    8   23     -1.32      0.21
   -8    8   23      1.26      1.84
   -6    8   23      0.31     -0.08
   -4    8   23     -3.88     -1.27
   -2    8   23      0.10     -1.73
    0    8   23      2.52      0.25
    2    8   23      0.16     -1.01
    4    8   23      0.30     -0.81
    6    8   23     -0.93      3.13
    8    8   23     -0.68     -1.94
   10    8   23      0.04      1.05
   12    8   23     -2.34     -2.46
   14    8   23      3.79      1.60
   16    8   23     -1.74     -1.19
   18    8   23      1.55     -0.99
   20    8   23     -1.93     -1.29
  -31    7   23      1.91      2.25
  -29    7   23     -3.63     -8.43
  -27    7   23      0.52      0.77
  -25    7   23      1.37      1.26
  -23    7   23      3.18      0.97
  -21    7   23     -2.46      2.91
  -19    7   23     -3.99      0.02
  -17    7   23      3.48     -0.54
  -15    7   23     -1.00      1.20
  -13    7   23      1.87      0.24
  -11    7   23     -4.58      0.09
   -9    7   23      4.98     -0.21
   -7    7   23     -1.49      0.97
   -5    7   23     -0.76     -1.08
   -3    7   23     -2.43     -2.42
   -1    7   23      0.76     -1.43
    1    7   23      4.38      2.88
    3    7   23     -0.40     -2.02
    5    7   23      5.10      3.06
    7    7   23     -6.53     -0.50
    9    7   23      0.75     -0.59
   11    7   23     -1.83     -1.24
   13    7   23      2.02      0.76
   15    7   23     -1.36      0.15
   17    7   23      0.54     -1.97
   19    7   23      1.71      0.36
   21    7   23     -3.07     -2.82
  -32    6   23     -1.55     -0.02
  -30    6   23      4.32      2.74
  -28    6   23     -2.44     -6.11
  -26    6   23      5.41      1.74
  -24    6   23     -1.74      1.13
  -22    6   23     -0.10      4.16
  -20    6   23     -4.20     -3.06
  -18    6   23     -0.80      1.44
  -16    6   23      1.20     -0.10
  -14    6   23     -0.01      0.70
  -12    6   23     -3.69     -3.91
  -10    6   23      2.25      0.26
   -8    6   23      0.87      1.40
   -6    6   23      0.39      0.70
   -4    6   23     -3.11     -4.02
   -2    6   23      2.41      1.93
    0    6   23      1.64     -1.84
    2    6   23      0.95      4.74
    4    6   23      2.79      1.25
    6    6   23      1.24     -0.22
    8    6   23     -2.42     -0.47
   10    6   23     -0.63     -1.94
   12    6   23     -2.18      1.26
   14    6   23     -0.14     -0.01
   16    6   23      1.14     -4.12
   18    6   23     -0.11      1.53
   20    6   23      2.51     -1.75
   22    6   23     -1.44      1.03
  -33    5   23      2.68      2.21
  -31    5   23     -9.08     -0.73
  -29    5   23      9.36      3.19
  -27    5   23     -1.80     -3.04
  -25    5   23      5.95      2.33
  -23    5   23     -5.43      3.18
  -21    5   23     -2.13     -0.96
  -19    5   23      1.06     -4.80
  -17    5   23     -0.14      2.60
  -15    5   23      0.59     -0.35
  -13    5   23     -3.31     -3.83
  -11    5   23      0.43     -2.31
   -9    5   23     -0.03      0.05
   -7    5   23     -0.02      2.03
   -5    5   23     -0.30     -1.00
   -3    5   23      0.55      0.73
   -1    5   23      1.58      4.51
    1    5   23      0.07     -1.61
    3    5   23      1.12      0.65
    5    5   23     -0.87      3.76
    7    5   23      5.09      0.01
    9    5   23     -3.15      1.52
   11    5   23     -0.13     -6.63
   13    5   23     -2.97      1.99
   15    5   23      1.37     -2.62
   17    5   23      2.27     -0.80
   19    5   23     -1.01      0.81
   21    5   23      4.23      1.50
   23    5   23     -4.72      0.98
  -34    4   23      1.21      3.05
  -32    4   23     -1.95     -0.38
  -30    4   23     -8.76     -1.41
  -28    4   23     14.86      4.77
  -26    4   23     -6.09      1.14
  -24    4   23      1.35      2.23
  -22    4   23     -2.38     -4.65
  -20    4   23      2.27     -2.06
  -18    4   23      3.60     -0.53
  -16    4   23     -0.24      2.86
  -14    4   23     -3.96     -1.79
  -12    4   23      1.19     -5.38
  -10    4   23     -0.43      0.96
   -8    4   23     -1.16     -2.12
   -6    4   23      0.14      3.56
   -4    4   23      0.66     -2.59
   -2    4   23     -4.92      6.67
    0    4   23      3.16      1.01
    2    4   23      0.65     -2.29
    4    4   23      1.85      0.44
    6    4   23     -3.45      5.38
    8    4   23      2.26     -1.32
   10    4   23     -0.41      0.71
   12    4   23      4.58     -7.00
   14    4   23     -4.50      0.59
   16    4   23      2.93     -0.66
   18    4   23     -1.23      1.79
   20    4   23      2.42      2.08
   22    4   23     -2.18      0.69
   24    4   23     -0.20     -0.89
  -35    3   23     -1.10      5.50
  -33    3   23     -6.06     -3.40
  -31    3   23      1.55     -2.04
  -29    3   23     -2.05      6.82
  -27    3   23      2.97      1.29
  -25    3   23     -2.11      0.84
  -23    3   23     -0.14     -6.41
  -21    3   23      6.15     -1.40
  -19    3   23      2.10      2.42
  -17    3   23     -1.23      0.38
  -15    3   23     -2.56      1.53
  -13    3   23      3.41     -0.44
  -11    3   23     -1.03     -1.02
   -9    3   23     -0.45     -2.26
   -7    3   23     -1.94     -0.55
   -5    3   23     -0.10      0.27
   -3    3   23     -1.15     -0.83
   -1    3   23     -5.25      1.44
    1    3   23      4.40      1.80
    3    3   23     -0.76      0.91
    5    3   23      0.11      0.59
    7    3   23     -1.91      4.15
    9    3   23      0.52     -6.37
   11    3   23      3.96      3.72
   13    3   23      1.21     -3.22
   15    3   23      1.26     -3.03
   17    3   23     -2.78      5.24
   19    3   23     -0.68     -0.82
   21    3   23      0.23      3.09
   23    3   23      0.36     -3.26
   25    3   23      0.79     -0.15
  -36    2   23     -1.61      1.99
  -34    2   23     -2.72     -3.95
  -32    2   23     -0.66      4.14
  -30    2   23      1.96     -3.63
  -28    2   23     -5.92      8.93
  -26    2   23      4.50     -6.49
  -24    2   23      4.53     -3.36
  -22    2   23     -1.77      2.01
  -20    2   23      2.45     -1.13
  -18    2   23     -2.33      3.85
  -16    2   23     -0.68     -3.29
  -14    2   23      3.61      7.30
  -12    2   23     -2.10      1.27
  -10    2   23      1.38     -0.60
   -8    2   23     -0.87     -5.27
   -6    2   23     -0.61     -1.89
   -4    2   23     -2.27     -0.31
   -2    2   23      1.11     -4.29
    0    2   23     -0.68      4.13
    2    2   23     -2.39     -2.09
    4    2   23      0.91      4.90
    6    2   23     -3.73      0.98
    8    2   23      2.92      1.92
   10    2   23      1.34     -5.78
   12    2   23      1.22      1.18
   14    2   23      0.13      1.34
   16    2   23      1.58      1.06
   18    2   23     -2.81     -1.39
   20    2   23     -2.33      2.58
   22    2   23      4.15     -1.99
   24    2   23     -0.16      0.39
   26    2   23      0.30     -1.34
  -35    1   23     -5.31     -4.34
  -33    1   23      0.53      5.71
  -31    1   23      1.20      0.67
  -29    1   23     -1.99     -1.18
  -27    1   23      5.81     -0.29
  -25    1   23      4.67     -2.41
  -23    1   23      0.13      1.02
  -21    1   23     -6.22      1.32
  -19    1   23     -3.69     -3.03
  -17    1   23      2.73      1.62
  -15    1   23     -0.09      6.52
  -13    1   23      0.94     -0.83
  -11    1   23     -1.14      2.79
   -9    1   23      0.87     -2.84
   -7    1   23     -0.28     -1.98
   -5    1   23      2.60     -5.92
   -3    1   23     -0.51      0.60
   -1    1   23      1.17     -0.25
    1    1   23     -1.32     -0.27
    3    1   23     -1.50      1.47
    5    1   23     -2.26      0.87
    7    1   23     -5.37      4.01
    9    1   23      5.93     -1.23
   11    1   23      1.97     -2.52
   13    1   23     -1.04     -2.38
   15    1   23     -1.32      7.21
   17    1   23     -0.54     -3.40
   19    1   23      2.39     -0.72
   21    1   23     -1.64      1.63
   23    1   23      2.53     -1.11
   25    1   23     -0.87      0.76
  -36    0   23      1.67     -6.42
  -34    0   23     -2.20      5.60
  -32    0   23     -5.32     -0.48
  -30    0   23      5.44      3.58
  -28    0   23      3.96     -2.22
  -26    0   23      7.79      0.60
  -24    0   23     -0.55      1.24
  -22    0   23     -7.87     -1.64
  -20    0   23     -1.53     -0.39
  -18    0   23     -4.78     -0.43
  -16    0   23      4.83      0.95
  -14    0   23     -4.81      1.28
  -12    0   23      6.26      1.02
  -10    0   23     -4.76     -2.56
   -8    0   23      3.07     -1.32
   -6    0   23     -1.02      0.58
   -4    0   23      8.32     -0.23
   -2    0   23     -2.97     -0.38
    0    0   23     -2.90     -0.30
    2    0   23      5.22      0.51
    4    0   23     -8.04      0.31
    6    0   23     -1.08      0.12
    8    0   23     -3.58      0.24
   10    0   23      5.72     -0.54
   12    0   23      2.52      0.87
   14    0   23     -3.15      0.09
   16    0   23     -2.32     -0.52
   18    0   23      1.66      0.38
   20    0   23      4.41     -0.24
   22    0   23     -4.10      0.18
   24    0   23      2.11      0.05
   26    0   23      0.17     -0.40
  -15   13   24     -1.35     -2.16
  -13   13   24     -0.61     -1.61
  -11   13   24      1.74     -2.01
   -9   13   24      0.61      2.61
   -7   13   24     -3.57     -0.81
   -5   13   24      1.65      0.85
   -3   13   24     -1.37     -0.42
   -1   13   24      1.96      0.87
    1   13   24     -0.49     -1.16
    3   13   24     -0.31     -0.56
    5   13   24     -0.58      2.37
  -20   12   24     -2.76      2.67
  -18   12   24     -0.08      3.88
  -16   12   24     -0.34     -3.33
  -14   12   24      2.74     -1.68
  -12   12   24      2.49     -5.43
  -10   12   24     -3.31      5.45
   -8   12   24     -1.20     -4.71
   -6   12   24     -0.94      3.86
   -4   12   24      2.82     -0.25
   -2   12   24     -1.10      1.30
    0   12   24      1.65     -1.76
    2   12   24      0.96      1.52
    4   12   24     -2.75     -0.36
    6   12   24     -2.24      1.12
    8   12   24      1.36     -1.03
   10   12   24      0.53     -0.34
  -23   11   24      1.00      0.39
  -21   11   24     -1.21     -0.88
  -19   11   24     -2.51      3.53
  -17   11   24     -2.95     -2.01
  -15   11   24      5.51     -0.86
  -13   11   24      2.23     -1.05
  -11   11   24      1.02     -1.26
   -9   11   24     -5.54     -2.19
   -7   11   24      2.53      3.14
   -5   11   24     -1.11      2.02
   -3   11   24      0.59      0.12
   -1   11   24      2.77     -0.23
    1   11   24     -2.14      1.16
    3   11   24     -0.93     -0.34
    5   11   24     -1.10     -2.50
    7   11   24      0.00      0.03
    9   11   24      1.40      2.07
   11   11   24     -0.39     -2.55
   13   11   24      1.12     -0.12
  -26   10   24     -0.15     -2.28
  -24   10   24      1.22      0.64
  -22   10   24     -0.67     -0.28
  -20   10   24      1.06      2.11
  -18   10   24     -5.30     -5.01
  -16   10   24      4.37      2.08
  -14   10   24     -1.62     -2.34
  -12   10   24      5.33      3.86
  -10   10   24     -2.75     -4.42
   -8   10   24      1.75      2.35
   -6   10   24     -4.70      2.48
   -4   10   24      3.70      0.69
   -2   10   24     -1.61      0.20
    0   10   24      0.26     -0.88
    2   10   24     -3.70     -0.46
    4   10   24      3.74     -1.03
    6   10   24     -1.58     -1.34
    8   10   24      0.70      1.35
   10   10   24     -0.44     -1.42
   12   10   24      1.98      1.34
   14   10   24     -2.28     -1.00
   16   10   24     -0.08     -1.46
  -27    9   24      1.74      1.84
  -25    9   24      2.62     -1.76
  -23    9   24     -1.19     -0.11
  -21    9   24      4.24      2.96
  -19    9   24     -6.52     -2.33
  -17    9   24      6.17     -2.56
  -15    9   24     -5.01      0.07
  -13    9   24      5.22     -0.14
  -11    9   24     -2.49      4.26
   -9    9   24      3.57     -1.22
   -7    9   24     -2.85      0.25
   -5    9   24     -1.64      2.46
   -3    9   24     -0.48     -1.60
   -1    9   24      0.37     -1.72
    1    9   24     -0.23     -0.36
    3    9   24     -1.29      0.09
    5    9   24      2.28      1.03
    7    9   24     -1.32     -2.64
    9    9   24      1.61     -0.42
   11    9   24     -1.65      2.82
   13    9   24      0.89     -1.72
   15    9   24     -1.51     -0.63
   17    9   24      1.40     -1.57
  -30    8   24     -6.11     -1.13
  -28    8   24     -0.35      0.30
  -26    8   24      4.30      1.93
  -24    8   24      0.45     -1.64
  -22    8   24      2.92      3.13
  -20    8   24     -5.31      1.03
  -18    8   24      3.21     -3.41
  -16    8   24     -0.43      0.40
  -14    8   24      2.71     -2.09
  -12    8   24     -2.64      5.84
  -10    8   24      2.14     -2.87
   -8    8   24     -0.13      3.07
   -6    8   24     -1.66     -2.87
   -4    8   24     -3.31     -0.26
   -2    8   24      1.88     -2.25
    0    8   24      3.01      0.92
    2    8   24     -3.18      0.72
    4    8   24      2.23     -0.76
    6    8   24     -1.01      1.05
    8    8   24      0.56     -1.04
   10    8   24     -1.98     -1.22
   12    8   24      0.20      1.33
   14    8   24      1.02     -0.99
   16    8   24     -0.60     -0.23
   18    8   24      1.99     -1.91
   20    8   24     -2.72      1.95
  -31    7   24      0.75     -4.70
  -29    7   24     -2.64     -0.14
  -27    7   24      0.90     -2.00
  -25    7   24      2.88      5.02
  -23    7   24      1.58     -1.36
  -21    7   24     -6.12      3.21
  -19    7   24      2.10     -2.33
  -17    7   24      0.16      0.08
  -15    7   24      3.73     -0.61
  -13    7   24     -4.40      2.18
  -11    7   24      1.90     -0.89
   -9    7   24      1.39      0.47
   -7    7   24     -0.19     -0.19
   -5    7   24     -3.59     -3.90
   -3    7   24      1.89     -0.66
   -1    7   24      0.94      1.15
    1    7   24      1.98      1.74
    3    7   24      1.63      0.57
    5    7   24     -1.92      0.81
    7    7   24     -0.91     -0.71
    9    7   24     -2.43     -1.76
   11    7   24      1.43     -1.74
   13    7   24     -0.22      3.27
   15    7   24      0.06     -3.55
   17    7   24      1.35      2.17
   19    7   24     -0.56     -2.00
   21    7   24     -1.49      0.72
  -32    6   24     -4.24      5.07
  -30    6   24      8.23     -6.15
  -28    6   24     -4.42      1.79
  -26    6   24      3.16     -2.72
  -24    6   24      0.06      6.48
  -22    6   24     -2.68     -1.77
  -20    6   24     -3.92     -1.53
  -18    6   24      3.68      0.46
  -16    6   24      0.01      0.07
  -14    6   24     -1.14      0.50
  -12    6   24     -1.76     -3.31
  -10    6   24      2.53      2.71
   -8    6   24      0.61      0.45
   -6    6   24     -0.70     -1.88
   -4    6   24      0.59     -2.46
   -2    6   24      2.21      1.23
    0    6   24      1.14      2.73
    2    6   24      0.35     -0.04
    4    6   24      0.89      6.20
    6    6   24     -1.66     -7.01
    8    6   24     -0.39      2.10
   10    6   24     -2.09     -3.81
   12    6   24      0.13      2.18
   14    6   24     -0.10     -1.67
   16    6   24      1.60     -0.70
   18    6   24     -0.67      2.24
   20    6   24      1.47     -3.59
   22    6   24     -2.31      4.42
  -33    5   24     -0.51      0.51
  -31    5   24     -3.89      6.23
  -29    5   24      8.98     -7.98
  -27    5   24     -0.39      5.12
  -25    5   24      0.46     -1.37
  -23    5   24     -3.70      2.67
  -21    5   24     -1.00     -2.76
  -19    5   24      1.37     -3.58
  -17    5   24      0.56      2.80
  -15    5   24     -2.89      0.71
  -13    5   24     -1.57     -4.98
  -11    5   24      1.60      1.29
   -9    5   24     -1.27      0.92
   -7    5   24      2.53      0.97
   -5    5   24     -0.86     -0.98
   -3    5   24      2.81      4.05
   -1    5   24      3.16      0.03
    1    5   24     -2.63     -0.37
    3    5   24      0.69      0.68
    5    5   24     -0.03      2.83
    7    5   24      0.15     -1.68
    9    5   24      0.78     -1.57
   11    5   24     -3.80     -4.23
   13    5   24      0.76      1.89
   15    5   24      0.76     -1.07
   17    5   24     -0.24      0.73
   19    5   24      2.69      1.29
   21    5   24     -1.64      0.07
   23    5   24     -1.88      0.80
  -34    4   24     -4.71      4.08
  -32    4   24     -1.32     -6.33
  -30    4   24      1.57      8.31
  -28    4   24      6.94     -4.40
  -26    4   24      0.52      6.58
  -24    4   24     -5.77     -4.75
  -22    4   24      2.82     -2.60
  -20    4   24      2.53     -1.21
  -18    4   24     -0.20      1.67
  -16    4   24     -3.60      2.69
  -14    4   24     -2.30     -5.77
  -12    4   24     -0.50      0.58
  -10    4   24      1.17     -2.04
   -8    4   24     -0.33      2.79
   -6    4   24      1.24     -0.07
   -4    4   24     -1.74      3.61
   -2    4   24      0.74      3.99
    0    4   24      3.56     -1.34
    2    4   24      0.99     -1.72
    4    4   24     -2.59     -0.59
    6    4   24      1.27      4.68
    8    4   24     -4.22     -3.56
   10    4   24      7.82     -2.21
   12    4   24     -4.35     -2.06
   14    4   24     -1.45     -1.13
   16    4   24      2.32      3.49
   18    4   24     -1.87     -0.44
   20    4   24      3.21      4.34
   22    4   24     -3.50     -4.62
   24    4   24      0.79      0.53
  -35    3   24     -4.81      1.00
  -33    3   24     -0.24     -0.12
  -31    3   24     -1.34     -5.58
  -29    3   24      6.27     14.73
  -27    3   24     -2.48     -7.06
  -25    3   24      0.55     -0.99
  -23    3   24      1.83     -1.95
  -21    3   24      3.49     -2.73
  -19    3   24      0.89      5.71
  -17    3   24     -6.66      0.85
  -15    3   24      0.42     -2.00
  -13    3   24      0.28     -0.69
  -11    3   24     -0.63     -1.93
   -9    3   24      0.11     -2.81
   -7    3   24     -1.68      2.98
   -5    3   24      1.64      0.28
   -3    3   24     -4.91      1.06
   -1    3   24      2.88      3.88
    1    3   24      2.29      0.19
    3    3   24      0.91     -0.18
    5    3   24     -2.49      0.50
    7    3   24      1.32     -2.31
    9    3   24     -1.44     -1.76
   11    3   24      5.79      0.39
   13    3   24     -3.69     -1.90
   15    3   24      1.83      0.19
   17    3   24     -4.29      2.14
   19    3   24      1.97      4.12
   21    3   24     -0.03     -4.47
   23    3   24      1.50      0.12
   25    3   24      0.46     -1.65
  -34    2   24      2.70     -2.03
  -32    2   24      0.68      0.82
  -30    2   24     -1.58      3.11
  -28    2   24      2.63      1.09
  -26    2   24      0.04     -5.22
  -24    2   24      3.11     -3.12
  -22    2   24     -0.86      4.40
  -20    2   24     -2.31      2.30
  -18    2   24      0.39     -0.58
  -16    2   24     -1.24      1.59
  -14    2   24      0.74      1.81
  -12    2   24     -0.91     -2.14
  -10    2   24      2.36     -2.93
   -8    2   24     -2.94     -3.82
   -6    2   24      0.12      0.40
   -4    2   24     -0.74      0.63
   -2    2   24     -0.40      0.42
    0    2   24     -0.46      4.70
    2    2   24     -0.35      0.20
    4    2   24     -0.32      1.00
    6    2   24     -0.91      1.59
    8    2   24      6.20     -6.26
   10    2   24     -2.71     -0.19
   12    2   24      0.78      0.13
   14    2   24      2.82      1.84
   16    2   24     -5.06      0.32
   18    2   24      1.18     -1.25
   20    2   24     -0.92      3.28
   22    2   24      3.41     -3.46
   24    2   24      0.29      0.99
  -35    1   24      1.57      1.47
  -33    1   24     -2.31      4.54
  -31    1   24      7.52     -1.34
  -29    1   24     -4.32     -1.51
  -27    1   24      6.86     -1.78
  -25    1   24      1.76     -0.38
  -23    1   24     -8.56     -0.17
  -21    1   24     -1.35      1.96
  -19    1   24     -4.42      1.22
  -17    1   24      7.46     -0.45
  -15    1   24     -2.43      5.98
  -13    1   24      2.18     -5.49
  -11    1   24     -1.72      1.52
   -9    1   24      0.85     -4.35
   -7    1   24      1.57     -1.22
   -5    1   24      0.09     -4.82
   -3    1   24      0.76      4.85
   -1    1   24     -4.46      2.48
    1    1   24      0.07     -1.77
    3    1   24     -2.49      4.60
    5    1   24     -1.29     -2.12
    7    1   24      2.44      2.92
    9    1   24      4.87     -5.47
   11    1   24      1.01      0.28
   13    1   24     -3.08      0.03
   15    1   24      0.25      3.43
   17    1   24      1.09     -2.17
   19    1   24     -1.09     -1.71
   21    1   24      1.10      4.19
   23    1   24      0.15     -2.52
   25    1   24     -0.10      0.26
  -34    0   24     -4.60      2.26
  -32    0   24      4.01      3.89
  -30    0   24      5.17     -2.89
  -28    0   24      3.69     -0.57
  -26    0   24      2.18     -0.35
  -24    0   24     -5.85      0.40
  -22    0   24     -8.79     -0.91
  -20    0   24     -0.17     -0.62
  -18    0   24      1.72      0.20
  -16    0   24     -0.28      2.05
  -14    0   24      5.92     -0.54
  -12    0   24     -2.56      1.15
  -10    0   24     -1.02     -5.51
   -8    0   24      2.03      2.26
   -6    0   24      4.34     -0.41
   -4    0   24      0.23      0.30
   -2    0   24     -4.37     -0.10
    0    0   24     -2.08      0.44
    2    0   24     -3.22      0.08
    4    0   24      1.92      1.19
    6    0   24     -5.50     -0.81
    8    0   24      7.85      0.29
   10    0   24      2.51      0.15
   12    0   24      0.97      0.06
   14    0   24     -5.40      0.28
   16    0   24      3.26     -0.68
   18    0   24      1.38      0.32
   20    0   24     -2.63      0.16
   22    0   24      1.62     -0.32
   24    0   24     -1.88      0.11
  -11   13   25      1.77      1.14
   -9   13   25     -2.32      0.50
   -7   13   25      0.04      1.96
   -5   13   25     -0.03     -2.03
   -3   13   25      1.12      2.43
   -1   13   25     -0.40     -1.72
    1   13   25      0.52     -1.26
  -18   12   25     -0.92      0.42
  -16   12   25      1.47     -3.80
  -14   12   25      2.29     -2.54
  -12   12   25     -0.60     -0.10
  -10   12   25     -3.91      2.93
   -8   12   25      0.38     -2.06
   -6   12   25      1.45      4.05
   -4   12   25      0.63     -0.24
   -2   12   25      0.95     -0.98
    0   12   25     -0.03      0.09
    2   12   25     -0.05     -0.72
    4   12   25     -3.37      0.73
    6   12   25     -0.71      0.18
    8   12   25      2.64     -0.91
  -21   11   25     -1.29     -0.40
  -19   11   25     -3.13      2.11
  -17   11   25      3.34     -3.99
  -15   11   25      0.95      0.25
  -13   11   25      4.71     -1.22
  -11   11   25     -7.75     -0.27
   -9   11   25      2.49     -0.07
   -7   11   25     -1.74      4.04
   -5   11   25      2.70      0.89
   -3   11   25     -0.45     -0.90
   -1   11   25      1.74      0.49
    1   11   25     -3.15     -0.21
    3   11   25      0.53     -3.11
    5   11   25     -1.97     -0.72
    7   11   25      1.96      1.63
    9   11   25     -0.06     -0.17
   11   11   25      1.68     -0.50
  -24   10   25     -1.19      0.62
  -22   10   25      1.95     -0.52
  -20   10   25     -4.18      2.02
  -18   10   25      1.71     -6.50
  -16   10   25      1.18      4.29
  -14   10   25      1.01     -3.07
  -12   10   25      1.34      4.09
  -10   10   25     -1.58     -4.78
   -8   10   25     -1.54      5.39
   -6   10   25      1.60      1.05
   -4   10   25     -0.92     -0.20
   -2   10   25     -0.19      0.50
    0   10   25     -2.02     -3.34
    2   10   25      0.91      0.41
    4   10   25      2.52     -2.92
    6   10   25     -1.76      0.75
    8   10   25     -0.17      0.70
   10   10   25      1.66      0.69
   12   10   25     -0.90      0.74
   14   10   25     -1.13     -0.42
  -27    9   25      3.44     -1.50
  -25    9   25     -1.06      0.65
  -23    9   25      1.10     -2.68
  -21    9   25     -1.77      4.75
  -19    9   25     -0.04     -6.78
  -17    9   25      0.84      2.18
  -15    9   25      0.05     -3.33
  -13    9   25      1.88      6.06
  -11    9   25     -0.51     -2.53
   -9    9   25      1.33      2.28
   -7    9   25     -3.06      0.01
   -5    9   25     -0.76      2.80
   -3    9   25     -1.71     -3.91
   -1    9   25      1.74     -1.86
    1    9   25     -0.79      1.41
    3    9   25      1.79     -0.19
    5    9   25      0.15     -1.90
    7    9   25      0.99     -0.75
    9    9   25     -2.24      1.63
   11    9   25      1.03      2.30
   13    9   25     -2.45     -2.03
   15    9   25      1.80     -0.26
  -28    8   25     -0.84      2.14
  -26    8   25      5.54     -0.82
  -24    8   25     -1.46     -2.38
  -22    8   25      0.22      5.88
  -20    8   25     -2.98     -6.33
  -18    8   25      3.08      2.68
  -16    8   25     -0.42     -5.79
  -14    8   25      2.37      6.53
  -12    8   25     -2.12     -1.04
  -10    8   25      2.74      1.15
   -8    8   25     -1.25     -0.69
   -6    8   25     -5.72      0.03
   -4    8   25      1.52     -2.74
   -2    8   25      2.22      0.14
    0    8   25     -0.22      2.06
    2    8   25     -0.27     -1.19
    4    8   25      0.56      1.08
    6    8   25      1.48     -2.84
    8    8   25     -1.27      1.54
   10    8   25     -3.35     -0.96
   12    8   25      2.99      1.76
   14    8   25     -2.51     -1.96
   16    8   25      3.53      0.28
   18    8   25     -0.60     -0.13
  -29    7   25      0.36      3.73
  -27    7   25      0.00     -0.59
  -25    7   25      5.11      0.37
  -23    7   25     -3.40      1.69
  -21    7   25     -2.92      0.10
  -19    7   25      3.05     -3.13
  -17    7   25      0.83      0.47
  -15    7   25      2.46      0.25
  -13    7   25     -5.06      2.07
  -11    7   25      4.76     -0.29
   -9    7   25     -0.81     -0.20
   -7    7   25     -2.28     -2.51
   -5    7   25     -1.69     -3.10
   -3    7   25      2.32      2.67
   -1    7   25      1.87      2.14
    1    7   25     -2.60      0.23
    3    7   25      4.97      1.68
    5    7   25     -5.69     -2.17
    7    7   25      1.97     -0.07
    9    7   25     -2.01     -3.52
   11    7   25      0.18      2.55
   13    7   25      0.50     -0.33
   15    7   25      0.47     -0.85
   17    7   25      1.32      2.53
   19    7   25     -2.64     -2.29
  -32    6   25      3.48      2.65
  -30    6   25     -1.08     -5.58
  -28    6   25      2.68      0.72
  -26    6   25     -1.90      2.43
  -24    6   25      2.92      0.99
  -22    6   25     -5.11     -0.14
  -20    6   25     -0.08     -2.77
  -18    6   25      3.31      0.76
  -16    6   25      0.73      1.94
  -14    6   25     -3.95     -2.54
  -12    6   25      1.72      1.00
  -10    6   25      1.31      1.02
   -8    6   25      0.10     -1.27
   -6    6   25      0.51     -3.00
   -4    6   25      0.94      0.78
   -2    6   25      1.20      1.53
    0    6   25     -0.58      2.88
    2    6   25     -0.49      1.57
    4    6   25     -0.65     -0.37
    6    6   25     -0.89     -2.43
    8    6   25     -0.29     -3.26
   10    6   25     -0.28      1.67
   12    6   25     -1.38     -0.83
   14    6   25      2.47      0.48
   16    6   25     -1.84      1.27
   18    6   25      1.50     -0.68
   20    6   25     -1.64     -0.32
  -33    5   25     -5.44     -2.07
  -31    5   25      8.66      6.21
  -29    5   25     -2.26     -8.43
  -27    5   25      6.66      3.73
  -25    5   25     -7.93      3.48
  -23    5   25      2.26     -2.49
  -21    5   25     -3.37     -2.01
  -19    5   25      3.38     -0.47
  -17    5   25     -2.22      2.68
  -15    5   25     -2.83     -1.33
  -13    5   25      1.68     -1.88
  -11    5   25      0.14      0.35
   -9    5   25      1.71      1.17
   -7    5   25      0.86     -0.31
   -5    5   25      2.40      1.90
   -3    5   25      1.19      1.13
   -1    5   25      1.28      0.48
    1    5   25     -2.83     -1.84
    3    5   25     -3.62      2.64
    5    5   25      4.19     -1.93
    7    5   25     -3.44      1.46
    9    5   25      2.05     -6.11
   11    5   25     -2.48      2.09
   13    5   25     -0.35      0.07
   15    5   25      1.81      0.11
   17    5   25     -2.30      1.32
   19    5   25      5.15     -0.35
   21    5   25     -6.20      0.46
  -32    4   25     -4.69     -1.77
  -30    4   25     14.02      3.68
  -28    4   25     -4.19      0.18
  -26    4   25      1.06      0.17
  -24    4   25     -3.42     -0.80
  -22    4   25     -1.09     -4.06
  -20    4   25      4.25      1.94
  -18    4   25     -4.76      3.04
  -16    4   25     -4.15     -2.22
  -14    4   25      1.16     -2.48
  -12    4   25      1.59     -0.25
  -10    4   25      0.80     -0.81
   -8    4   25      3.43      4.09
   -6    4   25     -2.54     -0.31
   -4    4   25      1.58      5.65
   -2    4   25      2.02      0.33
    0    4   25      1.66     -4.31
    2    4   25     -1.75     -0.91
    4    4   25     -2.26      0.05
    6    4   25     -1.35      0.91
    8    4   25      0.57     -0.62
   10    4   25      2.88     -4.66
   12    4   25     -3.94      3.12
   14    4   25      0.28     -2.29
   16    4   25      0.24      3.23
   18    4   25      2.64      1.54
   20    4   25     -1.88     -1.40
   22    4   25     -0.28     -1.55
  -33    3   25      3.05     -0.27
  -31    3   25     -0.03      2.59
  -29    3   25      7.10      3.68
  -27    3   25     -6.55     -0.98
  -25    3   25      1.27     -6.90
  -23    3   25      1.56      3.25
  -21    3   25      0.52     -0.31
  -19    3   25     -3.69      2.81
  -17    3   25     -5.07      0.78
  -15    3   25      2.95     -4.16
  -13    3   25     -1.07     -0.71
  -11    3   25      4.55     -2.47
   -9    3   25     -2.88      2.82
   -7    3   25      2.66      1.55
   -5    3   25     -3.10      2.43
   -3    3   25      0.22      1.95
   -1    3   25      3.10      1.21
    1    3   25      1.55     -2.10
    3    3   25     -0.49     -1.87
    5    3   25     -2.51      0.99
    7    3   25     -0.30     -7.62
    9    3   25      1.34      6.48
   11    3   25     -0.28     -3.63
   13    3   25      0.26     -0.88
   15    3   25     -1.70      4.61
   17    3   25      0.25     -1.70
   19    3   25      0.83      4.65
   21    3   25      1.32     -6.87
   23    3   25      0.27      1.52
  -34    2   25      2.07      1.99
  -32    2   25      3.74     -3.25
  -30    2   25     -4.42      8.32
  -28    2   25      3.94     -7.31
  -26    2   25     -0.85     -3.35
  -24    2   25     -3.66      2.26
  -22    2   25      3.35      2.04
  -20    2   25     -4.90      4.33
  -18    2   25      0.46     -5.27
  -16    2   25      1.08      3.73
  -14    2   25     -1.52     -3.13
  -12    2   25      2.97     -1.61
  -10    2   25      0.43     -1.67
   -8    2   25     -1.44     -0.32
   -6    2   25     -1.56      3.29
   -4    2   25      0.88     -0.01
   -2    2   25     -0.75      3.86
    0    2   25     -0.19      0.86
    2    2   25      1.99     -1.09
    4    2   25     -2.03     -0.02
    6    2   25      4.68     -3.74
    8    2   25     -1.32     -4.24
   10    2   25      0.67      2.32
   12    2   25     -2.44      0.37
   14    2   25      3.08      3.17
   16    2   25     -3.57     -2.77
   18    2   25     -0.92      3.74
   20    2   25      4.71     -2.27
   22    2   25     -0.97     -0.06
   24    2   25      0.60     -0.01
  -35    1   25      1.34      4.58
  -33    1   25      4.44     -0.02
  -31    1   25      0.17     -2.39
  -29    1   25     -0.06     -0.82
  -27    1   25      1.31     -3.55
  -25    1   25     -2.56      0.93
  -23    1   25     -7.33      2.31
  -21    1   25     -0.76      0.22
  -19    1   25      4.31      1.64
  -17    1   25      2.21      1.01
  -15    1   25      0.37     -2.70
  -13    1   25     -0.26     -0.79
  -11    1   25     -1.69     -0.12
   -9    1   25      1.98     -3.25
   -7    1   25      0.56      0.56
   -5    1   25     -1.37     -0.05
   -3    1   25     -0.90      4.40
   -1    1   25     -3.96      1.31
    1    1   25      0.61      0.83
    3    1   25      1.32     -2.52
    5    1   25     -0.59      2.46
    7    1   25      8.00     -4.47
    9    1   25     -0.86     -2.21
   11    1   25     -1.08      1.36
   13    1   25     -1.97      3.24
   15    1   25     -0.05     -1.97
   17    1   25      1.59      0.30
   19    1   25     -3.06      1.19
   21    1   25      2.87     -0.35
   23    1   25     -1.30      0.85
  -34    0   25     -1.61      0.06
  -32    0   25      8.01      2.07
  -30    0   25      1.94     -4.19
  -28    0   25     -0.33     -2.41
  -26    0   25     -3.09      3.03
  -24    0   25     -7.57     -1.39
  -22    0   25     -3.27      0.16
  -20    0   25      1.54     -0.32
  -18    0   25      7.52      1.10
  -16    0   25     -2.84      0.75
  -14    0   25      6.58      0.26
  -12    0   25     -6.80     -2.77
  -10    0   25      0.99     -1.68
   -8    0   25      2.05      1.83
   -6    0   25      4.05      0.76
   -4    0   25     -5.58     -0.25
   -2    0   25     -4.76      0.38
    0    0   25      0.52      0.71
    2    0   25     -1.96     -0.05
    4    0   25      3.95      0.59
    6    0   25      0.95     -0.61
    8    0   25      7.25     -0.13
   10    0   25     -1.63      0.65
   12    0   25     -1.95     -0.37
   14    0   25     -2.11     -0.24
   16    0   25      2.35      0.02
   18    0   25     -0.15     -0.08
   20    0   25     -3.99      0.17
   22    0   25      2.55     -0.20
   24    0   25     -1.12     -0.23
  -16   12   26      2.36     -1.71
  -14   12   26      0.35     -1.65
  -12   12   26     -2.54      3.81
  -10   12   26     -1.18     -1.17
   -8   12   26      0.86      2.67
   -6   12   26      3.17     -0.14
   -4   12   26     -2.14      0.48
   -2   12   26      2.32     -3.12
    0   12   26     -1.48      1.26
    2   12   26     -1.39     -1.37
    4   12   26     -1.62      1.76
  -19   11   26     -1.30     -2.92
  -17   11   26      3.31     -1.11
  -15   11   26      0.24      0.36
  -13   11   26      0.20      0.12
  -11   11   26     -5.34      0.01
   -9   11   26      3.85      2.60
   -7   11   26     -0.17      1.49
   -5   11   26      0.72     -0.27
   -3   11   26      1.90     -1.17
   -1   11   26     -3.21     -0.73
    1   11   26      1.07     -1.20
    3   11   26     -2.22     -2.67
    5   11   26      0.55      1.93
    7   11   26      1.14      1.52
    9   11   26      0.65     -0.71
  -22   10   26      2.50      0.97
  -20   10   26     -3.93     -2.79
  -18   10   26      4.26     -0.59
  -16   10   26     -1.43     -0.40
  -14   10   26      2.53      2.76
  -12   10   26     -2.86     -1.66
  -10   10   26      1.10      1.87
   -8   10   26     -1.00      2.35
   -6   10   26      2.09      0.93
   -4   10   26     -1.85     -1.51
   -2   10   26     -1.58     -1.75
    0   10   26      0.92     -2.29
    2   10   26      2.28     -0.63
    4   10   26     -0.89     -0.76
    6   10   26     -0.79      1.14
    8   10   26     -0.06      2.21
   12   10   26     -1.76      1.38
  -25    9   26     -2.25     -0.65
  -23    9   26      2.63      0.88
  -21    9   26     -5.31     -0.93
  -19    9   26      6.43     -2.32
  -17    9   26     -5.08      0.24
  -15    9   26      6.08      0.28
  -13    9   26     -3.56      3.95
  -11    9   26      3.36     -2.06
   -9    9   26     -3.19      2.09
   -7    9   26     -0.37      4.06
   -5    9   26     -2.51     -4.13
   -3    9   26      0.18     -2.40
   -1    9   26      2.58     -1.01
    1    9   26     -0.60      1.24
    3    9   26      2.75     -0.60
    5    9   26     -1.78     -2.65
    7    9   26      0.34      1.95
    9    9   26     -1.92      3.55
   11    9   26     -0.11     -1.41
   13    9   26     -0.84      0.26
   15    9   26      2.54     -1.89
  -28    8   26      1.35      1.01
  -26    8   26      0.12     -3.96
  -24    8   26      1.64      0.97
  -22    8   26     -3.92      2.10
  -20    8   26      1.86     -4.63
  -18    8   26      0.37      1.27
  -16    8   26      2.31     -2.49
  -14    8   26     -0.95      7.05
  -12    8   26      2.02     -2.62
  -10    8   26     -1.01      1.51
   -8    8   26     -4.06      0.38
   -6    8   26     -3.94     -1.53
   -4    8   26      4.32     -1.66
   -2    8   26      1.95      0.59
    0    8   26     -2.49      2.68
    2    8   26      3.04     -3.31
    4    8   26     -0.81      0.07
    6    8   26      2.25     -0.28
    8    8   26     -5.38     -0.56
   10    8   26      1.07      3.66
   12    8   26     -0.47     -2.97
   14    8   26      1.00      0.77
   16    8   26      3.33      0.02
  -29    7   26     -0.09     -1.20
  -27    7   26      3.54      2.62
  -25    7   26      0.96     -4.26
  -23    7   26     -3.59      5.19
  -21    7   26      0.22     -4.20
  -19    7   26      1.18     -0.27
  -17    7   26      3.95     -1.33
  -15    7   26     -3.88      4.38
  -13    7   26      1.32      0.07
  -11    7   26      0.76      0.19
   -9    7   26     -1.33     -1.09
   -7    7   26     -4.64     -4.95
   -5    7   26      2.26      2.91
   -3    7   26      1.67      2.40
   -1    7   26     -0.86      1.14
    1    7   26      1.45      0.09
    3    7   26     -0.54     -1.25
    5    7   26      0.95     -0.92
    7    7   26     -3.24     -1.43
    9    7   26      1.52     -1.43
   11    7   26     -2.16      4.00
   13    7   26      2.21     -3.23
   15    7   26      0.40      3.56
   17    7   26      0.15     -0.43
  -30    6   26     -6.06      0.42
  -28    6   26      4.56     -2.83
  -26    6   26      0.68      6.93
  -24    6   26     -1.27     -4.60
  -22    6   26     -3.43      2.56
  -20    6   26      3.05     -4.90
  -18    6   26      0.64      3.48
  -16    6   26      0.55      0.19
  -14    6   26     -3.87     -1.60
  -12    6   26      2.42      1.95
  -10    6   26      0.41     -0.99
   -8    6   26      0.19     -2.52
   -6    6   26      0.90     -1.33
   -4    6   26     -1.37      3.87
   -2    6   26      1.92      1.26
    0    6   26     -3.29      0.72
    2    6   26      1.12      3.29
    4    6   26     -1.49     -6.58
    6    6   26      1.09      1.74
    8    6   26     -0.38     -3.69
   10    6   26     -0.86      2.23
   12    6   26      0.08      0.22
   14    6   26      0.65      0.49
   16    6   26     -1.43      2.14
   18    6   26      1.61     -3.16
   20    6   26     -1.42      2.93
  -31    5   26      6.89     -4.31
  -29    5   26     -0.57      1.51
  -27    5   26     -1.20      0.42
  -25    5   26      0.32      3.70
  -23    5   26     -5.37     -2.04
  -21    5   26      3.73     -4.33
  -19    5   26     -0.87      3.26
  -17    5   26     -2.27      0.99
  -15    5   26      0.91     -2.88
  -13    5   26      0.48     -0.64
  -11    5   26      1.50      0.50
   -9    5   26      2.16     -0.89
   -7    5   26     -0.22      3.33
   -5    5   26      2.56     -0.76
   -3    5   26     -0.53      2.11
   -1    5   26     -2.08     -1.61
    1    5   26     -3.27      0.03
    3    5   26     -1.21     -0.19
    5    5   26      1.77      0.10
    7    5   26      0.81     -1.56
    9    5   26     -2.03     -1.34
   11    5   26      1.46      0.74
   13    5   26     -2.04      1.18
   15    5   26      0.63     -0.62
   17    5   26      1.65      1.00
   19    5   26     -0.33     -0.49
  -32    4   26     -0.69      5.24
  -30    4   26      9.12     -4.69
  -28    4   26     -3.53      7.85
  -26    4   26     -6.17     -6.05
  -24    4   26      2.95      3.25
  -22    4   26     -4.56     -5.25
  -20    4   26      3.59      4.81
  -18    4   26     -4.60     -0.49
  -16    4   26     -0.52     -3.36
  -14    4   26      3.25     -0.04
  -12    4   26      3.40     -2.78
  -10    4   26      1.65      4.08
   -8    4   26     -0.35      0.62
   -6    4   26     -0.85      4.28
   -4    4   26      1.49     -0.18
   -2    4   26      0.67     -0.30
    0    4   26     -1.37     -5.80
    2    4   26     -3.04     -0.69
    4    4   26     -0.18      2.70
    6    4   26     -4.36     -1.50
    8    4   26      6.67      0.49
   10    4   26     -3.48     -0.80
   12    4   26     -0.84     -0.57
   14    4   26      2.53      1.83
   16    4   26     -1.63     -1.02
   18    4   26      4.45      4.03
   20    4   26     -4.64     -5.08
   22    4   26      1.78      1.26
  -33    3   26      1.61     -2.76
  -31    3   26      4.65      8.73
  -29    3   26     -2.98     -4.62
  -27    3   26     -3.29     -0.71
  -25    3   26     -1.47      0.18
  -23    3   26      2.31     -3.10
  -21    3   26     -2.10      6.09
  -19    3   26     -4.48     -1.72
  -17    3   26      1.84     -1.74
  -15    3   26      2.09     -1.34
  -13    3   26      4.02     -2.23
  -11    3   26      1.78      1.64
   -9    3   26     -1.31      4.34
   -7    3   26     -0.43      0.27
   -5    3   26     -1.97      3.25
   -3    3   26      0.74     -1.72
   -1    3   26      3.61     -0.84
    1    3   26     -2.03     -4.35
    3    3   26      0.19      0.93
    5    3   26     -3.82     -3.65
    7    3   26     -0.52      0.48
    9    3   26      2.82      2.43
   11    3   26     -3.33     -0.20
   13    3   26      4.89     -0.90
   15    3   26     -4.09      2.64
   17    3   26      3.51      2.37
   19    3   26     -1.00     -3.86
   21    3   26      0.91     -0.20
  -34    2   26      1.87     -0.82
  -32    2   26      0.63      0.86
  -30    2   26     -1.47      2.54
  -28    2   26     -2.95     -8.09
  -26    2   26      0.68     -0.14
  -24    2   26     -4.10      4.58
  -22    2   26      2.23      1.84
  -20    2   26     -0.33     -1.13
  -18    2   26     -1.03     -1.19
  -16    2   26      2.45      0.17
  -14    2   26      0.65     -2.00
  -12    2   26      3.75      1.26
  -10    2   26     -2.95     -0.76
   -8    2   26      1.07      3.44
   -6    2   26     -4.03      1.38
   -4    2   26      2.07     -0.82
   -2    2   26     -0.53      2.10
    0    2   26      2.16     -2.26
    2    2   26     -0.88     -1.35
    4    2   26      1.11     -0.82
    6    2   26      2.53     -6.44
    8    2   26     -5.19      2.45
   10    2   26      2.33      1.26
   12    2   26     -0.15      3.04
   14    2   26     -1.17      0.33
   16    2   26      1.26     -1.03
   18    2   26     -2.16      2.79
   20    2   26      4.35     -3.61
   22    2   26     -1.50      1.60
  -33    1   26      5.49     -2.68
  -31    1   26     -4.77     -3.01
  -29    1   26     -0.80     -1.18
  -27    1   26      0.87     -1.15
  -25    1   26     -7.58     -0.03
  -23    1   26      1.07      5.44
  -21    1   26      0.43     -1.95
  -19    1   26      7.95      0.61
  -17    1   26     -2.86      1.27
  -15    1   26      1.06     -5.24
  -13    1   26     -2.06      3.40
  -11    1   26     -0.85     -0.59
   -9    1   26      2.90     -0.28
   -7    1   26     -2.60      0.03
   -5    1   26      0.32      2.07
   -3    1   26     -2.69      2.15
   -1    1   26     -0.10     -1.35
    1    1   26      2.35      0.78
    3    1   26      0.47     -3.04
    5    1   26      4.71      0.06
    7    1   26      1.53     -4.64
    9    1   26     -1.81      2.31
   11    1   26     -3.34      1.30
   13    1   26     -0.10      3.15
   15    1   26      1.48     -3.03
   17    1   26     -2.48      0.87
   19    1   26      1.10      2.09
   21    1   26     -0.02     -1.81
   23    1   26     -0.56      1.03
  -34    0   26      3.76      1.57
  -32    0   26      4.26     -3.51
  -30    0   26     -2.20     -2.53
  -28    0   26     -2.77     -0.47
  -26    0   26     -4.94      3.58
  -24    0   26     -4.49     -0.70
  -22    0   26      4.14     -0.47
  -20    0   26      3.81      0.48
  -18    0   26      3.07      1.31
  -16    0   26      1.04     -0.81
  -14    0   26     -3.36      0.55
  -12    0   26     -3.51     -4.52
  -10    0   26      2.41      2.52
   -8    0   26      1.53      0.99
   -6    0   26      0.00      0.58
   -4    0   26     -3.75     -0.06
   -2    0   26     -3.51      0.20
    0    0   26      1.79      0.47
    2    0   26      5.22      0.09
    4    0   26     -2.20     -0.58
    6    0   26      9.82     -0.01
    8    0   26     -2.51     -0.01
   10    0   26     -3.28      0.11
   12    0   26     -2.48     -0.25
   14    0   26      1.58     -0.42
   16    0   26     -0.29      0.13
   18    0   26     -2.75      0.19
   20    0   26      1.01     -0.34
   22    0   26     -1.15      0.18
   21    5   26     -1.50      0.51
   10   10   26      1.24     -0.01
  -12   12   27     -1.46      2.18
  -10   12   27      0.48     -1.48
   -8   12   27      1.95      2.38
   -6   12   27      0.26     -1.60
   -4   12   27     -0.32     -1.58
   -2   12   27     -0.45     -0.56
    0   12   27     -0.09     -0.28
  -17   11   27      0.62      0.90
  -15   11   27      0.67      0.89
  -13   11   27     -3.05      0.71
  -11   11   27      0.95      0.11
   -9   11   27      1.81      1.97
   -7   11   27      1.14     -0.36
   -5   11   27     -0.87     -2.47
   -3   11   27      0.92      0.33
   -1   11   27     -3.04     -2.04
    1   11   27      1.22     -0.63
    3   11   27     -1.97      0.63
    5   11   27      1.15      2.04
    7   11   27      1.16      0.42
  -22   10   27     -1.36      1.00
  -20   10   27      1.58     -4.59
  -18   10   27      0.18      2.90
  -16   10   27      0.10     -1.53
  -14   10   27      0.13      4.11
  -12   10   27     -1.32     -2.75
  -10   10   27      1.14      4.51
   -8   10   27      2.21     -0.80
   -6   10   27     -2.13     -0.92
   -4   10   27     -0.73     -1.63
   -2   10   27     -0.97     -3.80
    0   10   27      2.22      1.28
    2   10   27      0.73     -1.67
    4   10   27     -2.57      2.19
    6   10   27      0.12      1.35
   10   10   27     -0.65      0.71
  -23    9   27      0.73      4.01
  -21    9   27     -0.71     -4.74
  -19    9   27      2.42      2.08
  -17    9   27     -0.97     -1.66
  -15    9   27      2.19      4.44
  -13    9   27     -0.94     -0.92
  -11    9   27     -0.12      1.54
   -9    9   27     -1.15      2.85
   -7    9   27     -2.03      0.10
   -5    9   27     -0.47     -5.46
   -3    9   27      1.34     -3.17
   -1    9   27      2.50      3.21
    1    9   27     -0.12     -1.67
    3    9   27     -0.51     -0.15
    5    9   27      0.59     -0.68
    7    9   27     -3.88      4.12
    9    9   27      3.01      0.71
   11    9   27     -3.67     -0.90
   13    9   27      3.60     -0.38
  -26    8   27     -2.75     -3.13
  -24    8   27      2.56      4.14
  -22    8   27     -3.34     -3.23
  -20    8   27      2.95      1.80
  -18    8   27     -0.43     -3.97
  -16    8   27      2.97      6.29
  -14    8   27     -1.43      0.40
  -12    8   27      1.22      0.93
  -10    8   27     -3.24     -0.47
   -8    8   27     -7.50      1.69
   -6    8   27      4.73     -4.12
   -4    8   27      2.38     -0.41
   -2    8   27      0.74      2.05
    0    8   27     -0.23     -1.54
    2    8   27      1.05     -0.82
    4    8   27      1.49     -2.36
    6    8   27     -2.66      3.73
    8    8   27     -3.34     -0.62
   10    8   27      2.54      2.12
   12    8   27     -1.58     -2.56
   14    8   27      4.38      1.26
  -27    7   27      4.95     -0.65
  -25    7   27     -3.28      0.37
  -23    7   27     -1.19      2.11
  -21    7   27      0.32     -4.01
  -19    7   27      1.70      1.43
  -17    7   27      2.29     -0.27
  -15    7   27     -4.46      5.58
  -13    7   27      2.86     -0.73
  -11    7   27     -1.72     -0.89
   -9    7   27     -4.44     -3.03
   -7    7   27     -0.81     -1.79
   -5    7   27      3.21      5.77
   -3    7   27      1.49     -0.59
   -1    7   27     -2.24      0.46
    1    7   27      4.95     -1.69
    3    7   27     -3.13     -1.60
    5    7   27      1.76      0.72
    7    7   27     -2.97     -2.76
    9    7   27     -0.83      3.52
   11    7   27      1.13     -0.92
   13    7   27      1.11      0.43
   15    7   27      0.71      2.85
   17    7   27     -0.59     -2.01
  -30    6   27      0.30     -0.25
  -28    6   27      0.30      2.42
  -26    6   27      3.97     -1.38
  -24    6   27     -5.84      2.54
  -22    6   27     -0.02     -5.06
  -20    6   27      2.08      1.10
  -18    6   27      1.18      2.03
  -16    6   27     -2.88     -0.81
  -14    6   27     -1.03      1.42
  -12    6   27      1.58     -1.05
  -10    6   27     -1.09     -1.06
   -8    6   27      2.39     -2.41
   -6    6   27     -3.22      2.62
   -4    6   27      1.46      3.50
   -2    6   27     -0.48     -0.52
    0    6   27     -1.09      1.41
    2    6   27      0.61     -2.39
    4    6   27      0.61     -0.91
    6    6   27     -0.32     -2.93
    8    6   27      1.04      2.94
   10    6   27     -3.11     -2.05
   12    6   27      2.75      2.92
   14    6   27     -2.21      0.06
   16    6   27      1.50      0.31
   18    6   27      0.26     -1.30
  -31    5   27     -0.87     -7.50
  -29    5   27      4.21      5.08
  -27    5   27     -7.14      2.10
  -25    5   27      5.62     -2.00
  -23    5   27     -9.51     -0.20
  -21    5   27      9.10     -4.34
  -19    5   27     -6.16      3.03
  -17    5   27      2.50      0.47
  -15    5   27     -0.04     -3.38
  -13    5   27      0.68     -0.34
  -11    5   27      1.78      0.25
   -9    5   27      0.10      2.02
   -7    5   27      1.11      1.40
   -5    5   27     -2.10      0.00
   -3    5   27      1.24      1.49
   -1    5   27     -5.48     -2.44
    1    5   27     -1.17      0.85
    3    5   27      2.25     -1.94
    5    5   27     -0.29      2.44
    7    5   27      1.98     -3.10
    9    5   27     -0.98      1.46
   11    5   27     -0.71      0.05
   13    5   27      0.66     -0.53
   15    5   27     -1.58      1.18
   17    5   27      4.69     -0.55
   19    5   27     -3.49      0.87
  -32    4   27      5.52      2.31
  -30    4   27     -1.45      0.01
  -28    4   27     -2.82      1.39
  -26    4   27     -2.07      1.20
  -24    4   27     -3.02     -5.18
  -22    4   27      4.01      2.25
  -20    4   27     -1.72     -0.06
  -18    4   27     -0.31     -2.19
  -16    4   27      3.23     -0.40
  -14    4   27      2.53     -3.25
  -12    4   27      2.91      2.15
  -10    4   27     -0.10      2.57
   -8    4   27     -5.06      2.29
   -6    4   27      3.93      1.62
   -4    4   27     -3.66     -1.24
   -2    4   27      1.45     -3.67
    0    4   27     -4.51     -2.24
    2    4   27      0.49     -0.58
    4    4   27     -2.25      3.60
    6    4   27      0.89     -0.49
    8    4   27      2.94     -0.58
   10    4   27     -1.25      2.09
   12    4   27      0.22     -3.75
   14    4   27      1.31      2.86
   16    4   27      1.54      0.01
   18    4   27     -1.33      0.68
   20    4   27     -0.46     -1.34
  -31    3   27      3.64      3.98
  -29    3   27    -10.06     -1.85
  -27    3   27      1.73     -3.86
  -25    3   27     -1.97      6.02
  -23    3   27      3.15     -6.08
  -21    3   27     -2.97      5.44
  -19    3   27      1.19     -2.06
  -17    3   27      3.90     -2.78
  -15    3   27      2.77     -0.37
  -13    3   27      4.84      0.33
  -11    3   27     -3.53      4.28
   -9    3   27     -0.70      0.07
   -7    3   27     -3.45      3.10
   -5    3   27     -0.08     -2.80
   -3    3   27      0.57     -1.35
   -1    3   27      1.54     -4.44
    1    3   27     -1.34      0.68
    3    3   27     -1.98     -0.45
    5    3   27     -2.26     -2.85
    7    3   27      0.94      6.10
    9    3   27      0.85     -1.69
   11    3   27      1.85      0.67
   13    3   27      0.80      1.46
   15    3   27     -0.02     -1.42
   17    3   27     -0.25      4.49
   19    3   27     -0.01     -6.39
   21    3   27     -0.26      2.67
  -32    2   27     -3.28      2.61
  -30    2   27     -1.51     -3.04
  -28    2   27     -2.26     -5.16
  -26    2   27     -3.74      5.07
  -24    2   27      6.15      2.49
  -22    2   27     -3.30      0.78
  -20    2   27      4.62     -3.13
  -18    2   27     -0.47      1.92
  -16    2   27      0.90     -1.31
  -14    2   27      4.46      0.74
  -12    2   27     -1.82      2.42
  -10    2   27     -0.96     -0.52
   -8    2   27     -2.58      3.05
   -6    2   27     -1.82     -2.68
   -4    2   27      2.21     -2.01
   -2    2   27     -0.16      0.70
    0    2   27      2.81     -3.18
    2    2   27     -2.59      2.14
    4    2   27      2.34     -5.33
    6    2   27     -2.60     -0.19
    8    2   27     -0.91      3.14
   10    2   27     -0.02      1.94
   12    2   27      3.59      3.35
   14    2   27     -3.05     -3.72
   16    2   27      0.26      3.70
   18    2   27      1.06     -3.07
   20    2   27     -0.05      0.57
  -33    1   27     -0.59     -3.35
  -31    1   27     -4.99     -1.57
  -29    1   27     -0.20     -1.88
  -27    1   27     -0.79      2.32
  -25    1   27     -3.25      1.62
  -23    1   27      3.79      1.91
  -21    1   27      4.85      0.75
  -19    1   27      1.00     -1.29
  -17    1   27     -2.44     -0.34
  -15    1   27     -0.88     -0.07
  -13    1   27     -1.84      2.04
  -11    1   27      1.42      0.02
   -9    1   27      0.80      0.72
   -7    1   27     -2.99     -1.72
   -5    1   27      2.65     -0.34
   -3    1   27     -3.12      1.73
   -1    1   27      3.51     -1.70
    1    1   27      0.71     -1.54
    3    1   27      0.55      1.78
    5    1   27      4.98     -6.05
    7    1   27     -4.61      1.44
    9    1   27     -0.84      3.71
   11    1   27     -2.78      1.13
   13    1   27      1.86     -0.18
   15    1   27      0.06     -0.58
   17    1   27     -2.69      0.23
   19    1   27      2.32      0.46
   21    1   27     -1.27      0.53
  -32    0   27      0.39     -2.80
  -30    0   27     -5.93     -3.45
  -28    0   27     -1.80      6.73
  -26    0   27     -1.79     -0.65
  -24    0   27     -0.29      0.63
  -22    0   27      8.01     -1.10
  -20    0   27      1.62      0.79
  -18    0   27     -2.66      0.26
  -16    0   27      0.98     -0.04
  -14    0   27     -6.80     -2.05
  -12    0   27      0.16     -0.85
  -10    0   27      3.91      2.55
   -8    0   27     -0.65      0.83
   -6    0   27      1.28     -0.45
   -4    0   27     -4.55     -0.15
   -2    0   27      2.93      0.52
    0    0   27     -0.13     -0.38
    2    0   27      4.65      0.14
    4    0   27      1.10     -0.94
    6    0   27      2.96      0.38
    8    0   27     -4.48      0.03
   10    0   27     -4.28     -0.27
   12    0   27      0.79     -0.26
   14    0   27      1.45     -0.14
   16    0   27     -1.88      0.22
   18    0   27     -1.81      0.04
   20    0   27      1.64     -0.03
   22    0   27     -1.12     -0.07
    8   10   27      1.11      1.15
  -15   11   28     -0.05      0.52
  -13   11   28     -1.23      0.36
  -11   11   28      3.41     -0.58
   -9   11   28     -0.16      0.12
   -7   11   28     -0.04     -1.66
   -5   11   28     -0.29     -1.25
   -3   11   28     -1.95     -0.05
   -1   11   28      0.43      0.14
    1   11   28     -1.44     -0.08
    3   11   28      0.64      2.58
  -20   10   28      2.33     -1.06
  -18   10   28     -1.12      0.79
  -16   10   28      0.16      1.84
  -14   10   28     -0.36      0.30
  -12   10   28      0.80      0.56
  -10   10   28      2.17      1.01
   -8   10   28     -0.25     -2.04
   -6   10   28     -1.92     -2.13
   -4   10   28     -2.26     -1.55
   -2   10   28      2.65     -1.24
    0   10   28     -0.30      1.64
    2   10   28     -0.98      0.84
    4   10   28     -0.86      0.88
    6   10   28      0.74      2.66
    8   10   28      0.98     -1.71
  -23    9   28     -1.60      1.04
  -21    9   28      3.82     -1.33
  -19    9   28     -2.87      0.76
  -17    9   28      3.38      0.92
  -15    9   28     -1.85      2.68
  -13    9   28      1.04     -0.90
  -11    9   28     -2.16      2.03
   -9    9   28      0.28      2.97
   -7    9   28     -1.96     -7.20
   -5    9   28      0.67     -2.75
   -3    9   28      2.85     -0.51
   -1    9   28     -0.20      2.41
    1    9   28      0.10     -0.77
    3    9   28     -1.89     -0.81
    5    9   28      0.52      3.26
    7    9   28     -1.39      2.29
    9    9   28      0.84     -1.49
   11    9   28     -0.24      0.52
  -24    8   28     -0.76      2.91
  -22    8   28      0.64     -2.40
  -20    8   28      0.34      1.76
  -18    8   28      1.46     -1.42
  -16    8   28      0.71      6.22
  -14    8   28     -0.19     -0.90
  -12    8   28     -2.17     -0.26
  -10    8   28     -5.76      1.73
   -8    8   28     -1.10     -3.15
   -6    8   28      6.35     -2.03
   -4    8   28      1.97     -1.32
   -2    8   28     -1.74      3.13
    0    8   28      2.37     -4.40
    2    8   28     -0.83      0.59
    4    8   28      0.97      1.40
    6    8   28     -5.51      1.11
    8    8   28      1.97      3.17
   10    8   28     -0.59     -3.60
   12    8   28      2.16      1.14
   14    8   28      2.64      0.79
  -27    7   28      0.56     -3.99
  -25    7   28     -1.63      6.16
  -23    7   28     -1.73     -3.06
  -21    7   28      0.99      0.12
  -19    7   28      2.58     -0.29
  -17    7   28     -1.71      4.56
  -15    7   28     -0.56      2.31
  -13    7   28     -0.88     -1.81
  -11    7   28     -2.13     -0.90
   -9    7   28     -4.81     -5.74
   -7    7   28      4.48      6.46
   -5    7   28      2.86     -0.31
   -3    7   28     -0.31     -0.51
   -1    7   28      1.87     -1.42
    1    7   28      0.26     -1.87
    3    7   28      1.68      0.76
    5    7   28     -5.55      0.16
    7    7   28      2.20     -0.81
    9    7   28     -3.47      3.36
   11    7   28      4.05     -2.81
   13    7   28     -0.06      3.07
   15    7   28      0.60      0.11
  -28    6   28      0.56      4.13
  -26    6   28     -0.49     -5.14
  -24    6   28     -4.18      5.49
  -22    6   28      1.50     -8.64
  -20    6   28     -0.36      6.70
  -18    6   28      3.04     -1.13
  -16    6   28     -6.22      1.54
  -14    6   28      2.13     -0.17
  -12    6   28     -0.70     -1.19
  -10    6   28      0.96     -1.93
   -8    6   28     -0.57      0.67
   -6    6   28     -1.67      4.67
   -4    6   28      3.16     -0.68
   -2    6   28     -1.90     -0.07
    0    6   28      2.19     -0.47
    2    6   28     -1.27     -2.84
    4    6   28      1.75      0.98
    6    6   28     -1.07     -1.48
    8    6   28     -0.57      1.22
   10    6   28     -0.35      0.20
   12    6   28      0.46      0.75
   14    6   28     -0.25      1.23
   16    6   28      1.75     -1.64
  -29    5   28     -1.23      2.10
  -27    5   28      1.97      0.98
  -25    5   28     -5.87     -1.85
  -23    5   28      3.38     -4.05
  -21    5   28     -0.41      0.50
  -19    5   28     -1.01      1.55
  -17    5   28      2.31     -0.59
  -15    5   28     -2.15     -2.01
  -13    5   28      2.64     -0.14
  -11    5   28     -1.21      1.25
   -9    5   28      0.60      4.80
   -7    5   28     -0.70     -3.34
   -5    5   28     -1.76      3.93
   -3    5   28      0.15     -2.36
   -1    5   28     -3.71     -0.46
    1    5   28      1.38     -1.29
    3    5   28      1.91      0.90
    5    5   28      1.21      0.01
    7    5   28     -0.55      0.46
    9    5   28      1.57     -1.43
   11    5   28     -2.48      1.21
   13    5   28      1.12     -1.21
   15    5   28      0.72      1.29
   17    5   28      1.49      0.30
  -30    4   28     -4.50      5.54
  -28    4   28     -2.84     -5.12
  -26    4   28      3.63      5.05
  -24    4   28     -6.48     -9.82
  -22    4   28      8.78      7.03
  -20    4   28     -2.95     -6.26
  -18    4   28      2.09      2.24
  -16    4   28      2.38     -2.32
  -14    4   28      2.54     -1.00
  -12    4   28     -1.16      4.13
  -10    4   28     -4.67      1.66
   -8    4   28     -0.02      2.39
   -6    4   28     -0.62     -2.11
   -4    4   28     -0.92     -0.12
   -2    4   28     -2.46     -5.07
    0    4   28      0.38      0.65
    2    4   28     -0.26      1.31
    4    4   28     -0.67      1.97
    6    4   28      3.33      0.52
    8    4   28      0.41      0.30
   10    4   28     -0.12     -1.40
   12    4   28      2.07     -0.33
   14    4   28     -1.91     -0.29
   16    4   28      3.35      3.32
   18    4   28     -3.80     -2.20
  -31    3   28     -2.38     -0.15
  -29    3   28     -5.70     -1.23
  -27    3   28      2.07      3.01
  -25    3   28      2.92     -3.96
  -23    3   28     -0.34      3.17
  -21    3   28      1.91     -2.42
  -19    3   28      3.12     -0.03
  -17    3   28      2.34     -0.60
  -15    3   28      3.29     -2.14
  -13    3   28     -1.39      6.20
  -11    3   28     -4.33     -0.89
   -9    3   28     -3.23      0.31
   -7    3   28     -0.91      1.41
   -5    3   28     -1.45     -6.13
   -3    3   28      3.01      0.38
   -1    3   28     -1.50     -3.56
    1    3   28      1.54      3.87
    3    3   28     -4.18     -1.58
    5    3   28      1.00      1.05
    7    3   28      1.66      3.73
    9    3   28      0.12     -0.49
   11    3   28      5.00     -1.41
   13    3   28     -3.88      1.63
   15    3   28      2.70      0.70
   17    3   28     -3.53     -0.84
   19    3   28      1.25     -0.93
  -32    2   28     -3.61      1.68
  -30    2   28     -2.98     -5.73
  -28    2   28      1.51      2.49
  -26    2   28     -2.45      4.48
  -24    2   28      7.81      0.93
  -22    2   28     -0.62     -2.22
  -20    2   28      1.20      0.33
  -18    2   28      1.43      0.81
  -16    2   28      0.86     -0.24
  -14    2   28      0.61      2.52
  -12    2   28     -2.92     -0.14
  -10    2   28     -0.66     -0.46
   -8    2   28     -5.09     -0.06
   -6    2   28      1.96     -6.64
   -4    2   28      1.42      1.66
   -2    2   28      1.73     -1.67
    0    2   28     -1.06      2.45
    2    2   28      0.89     -0.60
    4    2   28     -1.58     -3.79
    6    2   28     -2.18      3.89
    8    2   28      2.48      1.24
   10    2   28     -0.12      3.66
   12    2   28      1.76     -1.47
   14    2   28     -1.25     -0.76
   16    2   28     -2.76      1.44
   18    2   28      3.05     -2.46
   20    2   28     -1.26      1.61
  -31    1   28     -5.81      0.60
  -29    1   28      5.41      0.75
  -27    1   28     -4.58      0.89
  -25    1   28      4.54      6.08
  -23    1   28      2.74     -4.96
  -21    1   28      3.38      4.58
  -19    1   28     -4.39     -2.55
  -17    1   28     -1.49     -0.48
  -15    1   28     -0.98      2.68
  -13    1   28     -1.10      0.20
  -11    1   28      3.73     -0.57
   -9    1   28     -3.80     -0.39
   -7    1   28      2.68     -5.53
   -5    1   28     -0.31      2.62
   -3    1   28      0.71     -2.13
   -1    1   28      1.19      3.68
    1    1   28     -0.67     -2.94
    3    1   28      2.41      0.32
    5    1   28     -0.98     -2.80
    7    1   28     -2.26      2.75
    9    1   28     -2.17      3.69
   11    1   28      0.99     -0.20
   13    1   28      1.03     -1.67
   15    1   28     -2.35      0.31
   17    1   28      0.26      0.39
   19    1   28      0.53      0.06
  -32    0   28     -3.93     -1.32
  -30    0   28     -3.04      0.84
  -28    0   28     -0.67      5.65
  -26    0   28      1.88     -0.89
  -24    0   28      5.08     -2.09
  -22    0   28      1.40      0.67
  -20    0   28     -0.09      0.03
  -18    0   28     -5.61     -0.20
  -16    0   28     -1.37      0.19
  -14    0   28     -1.84     -2.67
  -12    0   28      1.63      2.07
  -10    0   28      3.12      1.32
   -8    0   28     -0.28     -0.15
   -6    0   28      3.54     -1.05
   -4    0   28     -5.99      0.45
   -2    0   28      5.54     -0.07
    0    0   28     -1.12      0.05
    2    0   28     -0.43     -0.89
    4    0   28      6.76      0.20
    6    0   28     -6.92      0.03
    8    0   28     -2.02      0.03
   10    0   28     -1.37     -0.36
   12    0   28      1.89     -0.07
   14    0   28     -0.58      0.00
   16    0   28     -1.63      0.50
   18    0   28      0.27     -0.23
   20    0   28     -0.47      0.17
  -11   11   29      2.50     -0.69
   -9   11   29     -2.01     -0.86
   -7   11   29     -0.52     -1.19
   -5   11   29     -0.43      1.25
   -3   11   29     -1.48     -0.14
   -1   11   29      0.78      1.47
  -18   10   29     -0.03      0.06
  -16   10   29      0.11      1.58
  -14   10   29      0.21     -0.67
  -12   10   29      2.42      0.66
  -10   10   29      0.84     -1.95
   -8   10   29     -2.73     -2.21
   -6   10   29     -1.78     -0.59
   -4   10   29     -0.05     -0.75
   -2   10   29      1.26      1.97
    0   10   29     -0.54      0.92
    2   10   29     -1.39      1.44
    4   10   29      1.44      0.48
    6   10   29      1.07      0.26
  -21    9   29      1.11      1.84
  -19    9   29     -0.60     -0.61
  -17    9   29      0.57      2.15
  -15    9   29      0.28      0.19
  -13    9   29     -1.68     -0.24
  -11    9   29      0.64      2.77
   -9    9   29     -1.33     -3.76
   -7    9   29      0.10     -4.98
   -5    9   29      0.50     -2.29
   -3    9   29      2.43      5.17
   -1    9   29     -1.66     -1.75
    1    9   29     -1.05      1.33
    3    9   29      1.02      0.77
    5    9   29     -2.14      3.44
    7    9   29      3.14     -0.81
    9    9   29     -2.82     -0.45
  -24    8   29     -2.02      0.14
  -22    8   29      1.27      0.77
  -20    8   29     -0.30     -1.05
  -18    8   29      1.82      3.19
  -16    8   29     -0.25      1.80
  -14    8   29     -1.98     -0.69
  -12    8   29     -2.31     -0.70
  -10    8   29     -6.61      0.31
   -8    8   29      9.20     -4.51
   -6    8   29      0.81     -1.88
   -4    8   29      1.65      1.57
   -2    8   29     -1.42     -0.54
    0    8   29      1.04     -0.82
    2    8   29      0.19     -0.15
    4    8   29     -3.42      5.62
    6    8   29     -1.50     -1.66
    8    8   29      2.19      1.82
   10    8   29     -0.64     -3.09
   12    8   29      2.98      1.35
  -25    7   29      0.12      3.57
  -23    7   29     -2.33     -2.74
  -21    7   29      2.35      1.78
  -19    7   29      1.28     -0.44
  -17    7   29     -2.10      6.64
  -15    7   29     -0.58     -2.41
  -13    7   29     -1.38     -1.18
  -11    7   29     -4.40     -3.95
   -9    7   29      2.08      0.47
   -7    7   29      4.47      3.72
   -5    7   29      2.64     -2.42
   -3    7   29     -1.24     -1.37
   -1    7   29      2.95     -1.35
    1    7   29     -1.41      1.03
    3    7   29     -1.07      0.85
    5    7   29     -3.60      0.05
    7    7   29     -0.06      1.15
    9    7   29      1.33     -0.73
   11    7   29      1.50      0.25
   13    7   29      0.28      1.46
  -26    6   29     -4.92      2.61
  -24    6   29     -0.68     -3.38
  -22    6   29      0.45      0.54
  -20    6   29      1.52      2.89
  -18    6   29     -0.77      0.65
  -16    6   29     -3.22      1.11
  -14    6   29      1.44     -2.42
  -12    6   29     -1.17      0.33
  -10    6   29      3.07     -2.24
   -8    6   29     -4.48      4.09
   -6    6   29      5.00      1.44
   -4    6   29      0.28     -2.53
   -2    6   29      0.23      0.21
    0    6   29      0.64     -2.09
    2    6   29     -0.62      1.55
    4    6   29     -0.86     -2.57
    6    6   29      0.98      3.20
    8    6   29     -2.92     -3.22
   10    6   29      2.79      2.82
   12    6   29     -1.33     -0.61
   14    6   29      1.32      0.73
  -27    5   29      5.23     -1.76
  -25    5   29    -10.47      0.20
  -23    5   29     10.70     -4.92
  -21    5   29     -8.60      2.65
  -19    5   29      6.67      2.76
  -17    5   29     -3.75     -2.65
  -15    5   29      1.27     -0.66
  -13    5   29     -0.69      1.29
  -11    5   29     -0.17      3.63
   -9    5   29     -0.23     -0.07
   -7    5   29     -1.24      0.04
   -5    5   29      1.45      0.53
   -3    5   29     -2.54     -1.32
   -1    5   29      0.97     -1.53
    1    5   29      0.65     -0.37
    3    5   29      2.23      1.61
    5    5   29     -0.23     -0.23
    7    5   29      1.06     -0.06
    9    5   29     -1.14     -0.67
   11    5   29      0.37     -1.17
   13    5   29     -0.89      1.88
   15    5   29      2.74     -0.58
  -28    4   29      2.08     -0.63
  -26    4   29     -2.33     -3.66
  -24    4   29      2.95     -0.05
  -22    4   29      1.65     -1.13
  -20    4   29      0.63     -1.16
  -18    4   29      1.18      2.30
  -16    4   29     -0.58     -3.14
  -14    4   29      2.52      3.50
  -12    4   29     -6.84      1.64
  -10    4   29     -3.00      2.74
   -8    4   29      4.04     -1.47
   -6    4   29     -4.49     -0.75
   -4    4   29      2.26     -2.00
   -2    4   29     -2.65     -1.84
    0    4   29      2.77      0.34
    2    4   29      0.60      3.20
    4    4   29     -0.18      0.23
    6    4   29      3.07      0.71
    8    4   29     -0.04      0.26
   10    4   29     -0.17     -3.45
   12    4   29      0.74      1.84
   14    4   29     -0.15     -0.54
   16    4   29     -0.68      2.51
  -29    3   29      3.17     -0.69
  -27    3   29      0.16      5.28
  -25    3   29      5.38     -8.93
  -23    3   29     -2.57      5.74
  -21    3   29      5.79     -3.78
  -19    3   29     -0.34      0.92
  -17    3   29      1.15     -0.98
  -15    3   29      0.29      3.13
  -13    3   29     -5.89      1.58
  -11    3   29     -3.36     -2.56
   -9    3   29     -1.65      1.95
   -7    3   29     -0.53     -3.86
   -5    3   29      1.31     -1.31
   -3    3   29      1.25     -1.78
   -1    3   29      1.34      3.25
    1    3   29     -0.84     -0.14
    3    3   29     -1.02      1.47
    5    3   29      1.29      1.39
    7    3   29      1.04      1.00
    9    3   29      2.15     -0.47
   11    3   29      0.45     -0.82
   13    3   29     -1.29     -0.31
   15    3   29     -0.91      3.27
   17    3   29     -0.91     -3.88
  -30    2   29      0.19     -4.83
  -28    2   29     -0.87      7.92
  -26    2   29      7.32      0.32
  -24    2   29     -1.80     -1.79
  -22    2   29      5.52     -0.90
  -20    2   29     -3.95      1.11
  -18    2   29      1.16      0.72
  -16    2   29      1.07      0.10
  -14    2   29     -5.09      2.43
  -12    2   29      0.80     -4.14
  -10    2   29     -3.45      0.72
   -8    2   29     -2.37     -5.30
   -6    2   29      4.28     -2.51
   -4    2   29     -0.22      2.73
   -2    2   29      3.40      1.61
    0    2   29     -3.17      2.63
    2    2   29      1.11     -2.55
    4    2   29     -1.63      0.18
    6    2   29     -0.33      2.38
    8    2   29      1.93      1.70
   10    2   29      1.82      1.27
   12    2   29     -2.28     -2.92
   14    2   29     -0.66      2.20
   16    2   29     -1.36     -1.95
   18    2   29      2.06      0.38
  -31    1   29      0.24      0.80
  -29    1   29      3.03      3.17
  -27    1   29     -0.39      0.42
  -25    1   29      3.56      1.72
  -23    1   29      2.58     -0.87
  -21    1   29     -2.98     -0.67
  -19    1   29     -4.30      1.66
  -17    1   29     -0.03     -1.22
  -15    1   29     -1.21      0.97
  -13    1   29      2.05      0.36
  -11    1   29      0.99     -2.13
   -9    1   29     -2.45     -3.42
   -7    1   29      5.02     -4.68
   -5    1   29     -2.65      5.83
   -3    1   29      2.49     -1.86
   -1    1   29     -2.33      4.63
    1    1   29      0.35     -1.34
    3    1   29      1.79     -4.30
    5    1   29     -3.81      3.56
    7    1   29      1.55      1.41
    9    1   29     -2.91      1.20
   11    1   29      3.23     -0.43
   13    1   29     -2.20     -1.10
   15    1   29     -1.35     -0.45
   17    1   29      1.36      1.20
   19    1   29      0.04      0.45
  -30    0   29      1.91      7.10
  -28    0   29      1.95     -1.22
  -26    0   29      1.11     -0.26
  -24    0   29      7.33     -2.62
  -22    0   29     -7.26      0.91
  -20    0   29     -1.44      0.28
  -18    0   29     -4.11      0.09
  -16    0   29     -0.23     -1.57
  -14    0   29      1.15      0.13
  -12    0   29      3.96      1.48
  -10    0   29     -1.73      0.20
   -8    0   29      7.74     -0.75
   -6    0   29     -6.16     -1.03
   -4    0   29      4.31      1.40
   -2    0   29     -6.16     -0.57
    0    0   29      4.72     -0.09
    2    0   29     -2.28     -0.58
    4    0   29      2.33      0.39
    6    0   29     -3.62      0.04
    8    0   29     -3.41     -0.04
   10    0   29      4.10     -0.36
   12    0   29     -2.21      0.27
   14    0   29      0.52      0.20
   16    0   29     -2.00      0.22
   18    0   29      1.78      0.02
  -14   10   30      0.28      0.23
  -12   10   30      2.57     -1.05
  -10   10   30     -2.46     -2.41
   -8   10   30     -2.06     -0.01
   -6   10   30     -1.79      0.81
   -4   10   30      2.78      1.25
   -2   10   30     -1.30      1.46
    0   10   30      0.09      1.18
    2   10   30      0.77     -0.66
  -19    9   30      0.66      0.37
  -17    9   30      0.13      0.41
  -15    9   30     -0.57     -0.23
  -13    9   30     -0.15     -0.15
  -11    9   30     -0.25      1.50
   -9    9   30      0.22     -7.64
   -7    9   30     -1.40      0.05
   -5    9   30      2.44      1.37
   -3    9   30     -0.54      3.43
   -1    9   30     -0.84     -0.99
    1    9   30     -0.59      0.74
    3    9   30      1.49      3.34
    5    9   30     -0.86     -0.15
  -22    8   30     -0.73      0.34
  -20    8   30      1.15     -0.03
  -18    8   30      0.97      2.19
  -16    8   30     -1.51      0.55
  -14    8   30     -1.68     -2.71
  -12    8   30     -4.41      1.57
  -10    8   30      2.97     -4.20
   -8    8   30      5.19     -1.68
   -6    8   30      1.46     -1.55
   -4    8   30     -3.14      3.56
   -2    8   30      2.31     -1.86
    0    8   30     -1.01      1.10
    2    8   30     -1.58      3.03
    4    8   30     -2.81      1.69
    6    8   30      1.36      0.01
    8    8   30      0.50     -2.74
  -23    7   30      0.06     -0.06
  -21    7   30      1.82      0.43
  -19    7   30      0.35      2.53
  -17    7   30     -1.63      2.50
  -15    7   30     -1.63     -3.99
  -13    7   30     -1.19     -0.27
  -11    7   30     -2.35     -5.77
   -9    7   30      6.20      7.59
   -7    7   30      3.27     -5.21
   -5    7   30      0.01      0.82
   -3    7   30      0.27     -2.14
   -1    7   30     -0.38      1.63
    1    7   30      0.09      1.98
    3    7   30     -6.86      0.24
    5    7   30      2.82     -0.56
    7    7   30     -2.41      1.12
    9    7   30      4.12     -2.28
   11    7   30     -0.36      1.76
  -26    6   30     -3.33      5.08
  -24    6   30      0.33     -6.82
  -22    6   30     -0.22      6.99
  -20    6   30      4.11     -1.76
  -18    6   30     -5.50      3.35
  -16    6   30      1.49     -3.22
  -14    6   30     -1.09      0.65
  -12    6   30      1.71     -2.55
  -10    6   30     -0.81      2.36
   -8    6   30      1.64      1.07
   -6    6   30      3.14     -0.89
   -4    6   30      0.76     -1.75
   -2    6   30     -0.90     -0.47
    0    6   30     -1.27      1.26
    2    6   30     -0.07     -0.61
    4    6   30     -1.94      0.11
    6    6   30      1.20     -0.53
    8    6   30     -0.77     -0.06
   10    6   30      0.87      0.12
   12    6   30      0.61      1.01
  -27    5   30     -3.32     -0.46
  -25    5   30      0.54     -1.75
  -23    5   30      0.64     -0.42
  -21    5   30     -1.04      2.58
  -19    5   30      2.60      1.63
  -17    5   30     -2.97     -1.93
  -15    5   30      1.25     -1.07
  -13    5   30     -2.37      4.00
  -11    5   30      1.53      2.00
   -9    5   30     -0.53     -3.96
   -7    5   30      0.89      3.82
   -5    5   30      1.27     -3.40
   -3    5   30     -1.74     -0.11
   -1    5   30      1.07     -0.87
    1    5   30      0.99     -0.17
    3    5   30      0.93      1.95
    5    5   30     -0.56     -0.34
    7    5   30      1.17     -1.56
    9    5   30     -1.61      0.25
   11    5   30      0.61     -0.95
   13    5   30     -0.32      1.43
   15    5   30      1.11      0.47
  -28    4   30      3.02      2.93
  -26    4   30     -5.54     -8.01
  -24    4   30      7.34      6.48
  -22    4   30     -2.48     -7.43
  -20    4   30      1.48      6.94
  -18    4   30     -1.60     -2.42
  -16    4   30      1.75      0.77
  -14    4   30     -4.58      2.42
  -12    4   30     -4.03      1.18
  -10    4   30      1.77      0.21
   -8    4   30      1.45     -1.37
   -6    4   30     -0.52     -0.78
   -4    4   30     -0.75     -1.58
   -2    4   30      2.53     -0.67
    0    4   30      0.17      1.45
    2    4   30      2.65      2.22
    4    4   30     -1.51     -0.10
    6    4   30      2.41      0.67
    8    4   30     -1.45     -2.01
   10    4   30      1.27     -0.94
   12    4   30     -2.05      0.06
   14    4   30      2.03      1.69
   16    4   30     -2.54     -0.19
  -29    3   30      5.27      3.08
  -27    3   30      1.19     -3.80
  -25    3   30      0.47     -0.25
  -23    3   30      1.99     -1.81
  -21    3   30      1.40      1.89
  -19    3   30     -1.44      0.30
  -17    3   30     -0.84     -0.97
  -15    3   30     -2.53      6.63
  -13    3   30     -5.60     -6.61
  -11    3   30     -0.66      0.80
   -9    3   30      0.98      0.72
   -7    3   30     -0.39     -4.23
   -5    3   30      3.39      2.25
   -3    3   30      0.58     -1.12
   -1    3   30      1.80      3.35
    1    3   30     -1.04      1.10
    3    3   30      0.06     -0.88
    5    3   30      0.95      2.81
    7    3   30     -0.28     -1.29
    9    3   30      2.67     -1.72
   11    3   30     -2.89      0.99
   13    3   30      1.47     -0.22
   15    3   30     -3.13      0.98
  -28    2   30     -0.61      3.46
  -26    2   30      6.92     -1.31
  -24    2   30     -2.55     -3.82
  -22    2   30      0.96      2.28
  -20    2   30     -1.93      0.93
  -18    2   30     -0.60     -0.13
  -16    2   30     -2.87      1.95
  -14    2   30     -0.98     -2.99
  -12    2   30     -0.10     -2.45
  -10    2   30     -2.65     -1.39
   -8    2   30      1.25     -4.87
   -6    2   30      3.49      3.86
   -4    2   30      0.42      1.90
   -2    2   30      1.23      4.69
    0    2   30     -1.10     -1.60
    2    2   30     -1.87     -0.90
    4    2   30      1.10      1.54
    6    2   30      0.24     -0.80
    8    2   30      0.26      3.22
   10    2   30      1.67     -2.88
   12    2   30     -2.90      0.79
   14    2   30     -1.77      0.14
   16    2   30      2.43     -1.31
  -29    1   30     -2.59      0.73
  -27    1   30      3.89      2.94
  -25    1   30      0.19     -5.90
  -23    1   30     -0.71      5.79
  -21    1   30     -5.02     -4.34
  -19    1   30     -2.13      3.38
  -17    1   30      1.02     -1.84
  -15    1   30     -0.15     -0.31
  -13    1   30      3.94     -1.00
  -11    1   30     -2.81     -1.39
   -9    1   30      3.80     -7.84
   -7    1   30     -0.28      5.70
   -5    1   30      0.68     -0.42
   -3    1   30     -2.36      7.82
   -1    1   30      0.17     -4.03
    1    1   30     -0.66      1.23
    3    1   30      0.26     -3.10
    5    1   30     -0.43      2.23
    7    1   30     -0.40      2.35
    9    1   30      0.66     -1.91
   11    1   30     -0.93      1.21
   13    1   30     -1.07     -2.05
   15    1   30     -0.46      0.96
   17    1   30      2.40      0.09
  -30    0   30      2.29      4.16
  -28    0   30      3.14     -1.84
  -26    0   30      1.49     -3.33
  -24    0   30     -1.59      1.33
  -22    0   30     -3.90     -0.38
  -20    0   30     -6.87      0.59
  -18    0   30      3.35      0.00
  -16    0   30      0.72     -2.33
  -14    0   30      2.29      2.11
  -12    0   30      2.16      0.05
  -10    0   30      1.30     -0.33
   -8    0   30      5.21     -1.19
   -6    0   30     -7.68      1.13
   -4    0   30      4.18      0.02
   -2    0   30     -7.55      0.63
    0    0   30      3.43     -1.64
    2    0   30      2.20      0.98
    4    0   30     -4.71     -0.33
    6    0   30      2.80      0.35
    8    0   30     -2.51     -0.21
   10    0   30      1.77     -0.10
   12    0   30     -2.26      0.27
   14    0   30      0.79      0.42
   16    0   30     -0.29     -0.23
   -8   10   31     -1.59      2.90
   -6   10   31      1.23      0.56
   -4   10   31      0.81      1.63
  -15    9   31     -2.38     -0.96
  -13    9   31      2.04      1.78
  -11    9   31     -1.36     -3.56
   -9    9   31      0.23     -1.96
   -7    9   31     -0.89      0.54
   -5    9   31      1.82      5.89
   -3    9   31     -0.74     -2.41
   -1    9   31     -1.10      1.10
    1    9   31      1.63      1.49
    3    9   31     -0.77      1.12
  -20    8   31      1.06      0.21
  -18    8   31      0.55      1.10
  -16    8   31     -2.93     -1.41
  -14    8   31      0.19     -0.86
  -12    8   31     -4.43     -0.66
  -10    8   31     10.15     -2.52
   -8    8   31     -2.98     -1.95
   -6    8   31      2.24      3.10
   -4    8   31     -3.54      0.81
   -2    8   31      2.74      0.46
    0    8   31     -1.87      0.54
    2    8   31     -3.54      4.72
    4    8   31      0.56     -3.00
    6    8   31      1.59      0.18
  -21    7   31      0.59     -0.02
  -19    7   31      0.36      3.94
  -17    7   31     -2.89     -3.15
  -15    7   31      0.40     -0.93
  -13    7   31     -3.40     -3.56
  -11    7   31      4.92      1.79
   -9    7   31      2.72      0.10
   -7    7   31      2.98     -1.41
   -5    7   31     -2.57     -1.78
   -3    7   31      0.17      3.17
   -1    7   31     -0.55      1.77
    1    7   31     -3.94     -0.14
    3    7   31     -2.42      0.70
    5    7   31      1.65     -2.01
    7    7   31      1.49      0.45
    9    7   31      1.09     -0.66
  -24    6   31      0.02     -0.14
  -22    6   31      1.91      2.72
  -20    6   31      0.71      0.46
  -18    6   31     -3.09     -0.28
  -16    6   31      0.33     -2.30
  -14    6   31     -0.11      0.74
  -12    6   31      2.32     -2.17
  -10    6   31     -2.50      2.57
   -8    6   31      7.68     -1.13
   -6    6   31     -2.16     -1.58
   -4    6   31      0.92      0.26
   -2    6   31     -2.72      0.97
    0    6   31     -1.64      1.71
    2    6   31     -0.44     -2.79
    4    6   31      0.07      1.69
    6    6   31     -0.15     -2.51
    8    6   31      1.65      1.32
   10    6   31     -0.65      0.04
  -25    5   31      6.34     -2.32
  -23    5   31     -6.21      1.85
  -21    5   31      6.59      3.09
  -19    5   31     -4.19     -1.24
  -17    5   31      1.51     -1.98
  -15    5   31     -3.24      2.17
  -13    5   31      1.70      1.40
  -11    5   31     -0.28     -0.88
   -9    5   31      3.22     -1.40
   -7    5   31     -0.36      0.60
   -5    5   31      0.89     -0.52
   -3    5   31     -1.79     -1.97
   -1    5   31      0.08      1.92
    1    5   31      1.93     -1.04
    3    5   31     -1.54      1.70
    5    5   31      1.41     -1.29
    7    5   31     -1.18     -0.72
    9    5   31      0.64     -1.10
   11    5   31     -1.20      1.89
   13    5   31      0.44     -0.65
  -26    4   31      0.28     -1.34
  -24    4   31      1.66      0.18
  -22    4   31      0.35     -0.45
  -20    4   31     -1.00      4.30
  -18    4   31     -1.90     -1.83
  -16    4   31      2.44      0.70
  -14    4   31     -8.56      1.12
  -12    4   31      2.29     -0.04
  -10    4   31      4.76     -0.98
   -8    4   31     -2.34      0.14
   -6    4   31      2.84     -1.40
   -4    4   31     -2.05     -0.35
   -2    4   31      2.09     -0.43
    0    4   31      2.98      2.37
    2    4   31     -2.82      0.71
    4    4   31      2.09     -0.37
    6    4   31     -1.70     -0.01
    8    4   31     -0.01     -2.66
   10    4   31      0.63      0.77
   12    4   31     -1.00     -0.85
   14    4   31     -0.23      2.18
  -27    3   31      2.28     -7.04
  -25    3   31     -2.90      3.38
  -23    3   31      5.10     -2.38
  -21    3   31     -3.70      3.64
  -19    3   31     -1.08     -0.98
  -17    3   31     -1.05      3.79
  -15    3   31     -4.41     -2.92
  -13    3   31     -0.48     -3.05
  -11    3   31      0.99      0.49
   -9    3   31      1.60      0.83
   -7    3   31      1.30     -1.04
   -5    3   31      1.42      1.33
   -3    3   31      2.30      0.85
   -1    3   31     -0.95      0.85
    1    3   31      0.67      2.68
    3    3   31     -0.92     -2.68
    5    3   31     -0.81      1.80
    7    3   31      0.95     -1.80
    9    3   31     -0.13     -1.49
   11    3   31     -0.24      0.94
   13    3   31     -0.42      1.33
   15    3   31     -0.85     -2.32
  -28    2   31      3.84     -1.88
  -26    2   31     -1.93     -2.46
  -24    2   31      2.96     -0.62
  -22    2   31     -5.23      2.56
  -20    2   31      0.84      1.45
  -18    2   31     -1.68     -1.00
  -16    2   31     -3.74      0.94
  -14    2   31      3.96     -6.28
  -12    2   31     -0.91      0.66
  -10    2   31     -1.82     -2.98
   -8    2   31      4.44      0.95
   -6    2   31     -0.64      4.65
   -4    2   31      3.45      3.18
   -2    2   31     -2.42     -0.01
    0    2   31     -0.47      0.00
    2    2   31     -0.55     -1.46
    4    2   31     -0.18      0.44
    6    2   31      0.65     -0.56
    8    2   31      0.65      0.69
   10    2   31     -1.16     -0.71
   12    2   31     -0.83      0.41
   14    2   31     -0.87     -0.53
  -27    1   31      0.37      0.16
  -25    1   31      0.19     -1.59
  -23    1   31     -4.50      1.07
  -21    1   31     -3.31      2.39
  -19    1   31      1.63     -2.09
  -17    1   31     -0.49     -1.16
  -15    1   31      4.57     -0.05
  -13    1   31     -0.26     -1.83
  -11    1   31      0.64     -3.01
   -9    1   31      2.26     -2.38
   -7    1   31     -1.27      7.26
   -5    1   31     -0.59      0.27
   -3    1   31     -2.23      6.05
   -1    1   31      0.25     -5.10
    1    1   31     -0.24     -1.31
    3    1   31     -0.70      1.94
    5    1   31      3.43     -1.99
    7    1   31     -3.73      2.16
    9    1   31      2.46     -0.31
   11    1   31     -3.58     -0.11
   13    1   31      1.14     -1.77
   15    1   31      1.19      1.39
  -28    0   31     -0.13     -0.76
  -26    0   31      2.25     -2.38
  -24    0   31     -9.14      1.75
  -22    0   31      0.08      0.40
  -20    0   31     -4.89     -0.28
  -18    0   31      6.71     -1.49
  -16    0   31      1.41      0.49
  -14    0   31      2.61      0.55
  -12    0   31     -1.44      0.24
  -10    0   31      8.35     -0.54
   -8    0   31     -7.63     -0.70
   -6    0   31      3.46      2.41
   -4    0   31     -9.60     -0.97
   -2    0   31      5.30      0.04
    0    0   31     -3.56     -0.73
    2    0   31      3.56      0.29
    4    0   31     -0.58      0.47
    6    0   31     -0.77     -0.16
    8    0   31      2.25     -0.20
   10    0   31     -5.75      0.26
   12    0   31      3.91      0.08
   14    0   31     -1.85      0.24
   16    0   31      3.30     -0.20
  -11    9   32      0.89     -4.79
   -9    9   32     -2.78      2.97
   -7    9   32      2.51      1.34
   -5    9   32     -0.79      2.96
   -3    9   32      0.12     -3.36
   -1    9   32     -0.83      1.16
  -16    8   32     -0.73     -2.66
  -14    8   32     -2.00      1.86
  -12    8   32      3.33     -3.23
  -10    8   32      2.51      0.63
   -8    8   32     -0.06     -0.98
   -6    8   32     -3.62      4.12
   -4    8   32      2.99     -0.26
   -2    8   32     -1.11     -0.33
    0    8   32     -3.07      2.36
    2    8   32     -0.74      0.41
    4    8   32      0.89     -2.35
  -19    7   32     -1.51      0.97
  -17    7   32     -1.71     -3.36
  -15    7   32     -0.03      0.15
  -13    7   32     -0.55     -3.69
  -11    7   32      5.19      5.82
   -9    7   32      1.71     -6.60
   -7    7   32     -0.91      4.34
   -5    7   32     -1.36     -2.20
   -3    7   32     -0.89      5.62
   -1    7   32     -0.84     -0.71
    1    7   32     -5.52     -1.46
    3    7   32      2.91     -0.39
    5    7   32      0.42     -0.65
    7    7   32      2.26     -0.67
  -22    6   32      2.79     -1.16
  -20    6   32     -3.13      2.00
  -18    6   32     -0.07     -3.95
  -16    6   32     -1.06      2.03
  -14    6   32      1.36     -3.62
  -12    6   32      0.39      2.93
  -10    6   32      3.11     -3.13
   -8    6   32      2.00      2.29
   -6    6   32     -0.15     -2.18
   -4    6   32     -4.47      2.86
   -2    6   32     -0.08      2.07
    0    6   32     -1.89     -2.69
    2    6   32     -0.25     -0.23
    4    6   32      2.05     -1.08
    6    6   32     -0.51      0.32
    8    6   32      1.00     -0.12
  -23    5   32     -0.48      1.66
  -21    5   32      2.15      1.54
  -19    5   32     -2.09     -1.88
  -17    5   32     -1.35     -2.43
  -15    5   32     -1.06      4.46
  -13    5   32      1.98     -2.29
  -11    5   32      2.27     -2.45
   -9    5   32      1.78      3.43
   -7    5   32     -0.51     -3.39
   -5    5   32     -1.48      2.71
   -3    5   32     -1.82     -1.01
   -1    5   32      1.11     -0.36
    1    5   32      0.59      1.62
    3    5   32     -0.95     -2.15
    5    5   32      0.77      0.62
    7    5   32     -0.21     -1.21
    9    5   32     -0.16      0.06
   11    5   32     -1.07      1.27
  -24    4   32     -0.83     -4.31
  -22    4   32      0.74      6.09
  -20    4   32     -2.54     -1.18
  -18    4   32      1.75     -0.53
  -16    4   32     -4.80     -0.77
  -14    4   32      0.21      0.19
  -12    4   32      2.18     -0.52
  -10    4   32      5.10      0.80
   -8    4   32     -3.38     -0.91
   -6    4   32      1.08      0.80
   -4    4   32     -0.73     -2.22
   -2    4   32      0.60      2.35
    0    4   32      3.42      0.56
    2    4   32     -4.65     -0.11
    4    4   32      1.94     -0.42
    6    4   32     -1.89     -1.36
    8    4   32      1.13     -0.57
   10    4   32     -0.45     -0.32
   12    4   32      0.31      0.71
  -25    3   32      0.32     -0.52
  -23    3   32      1.45      3.13
  -21    3   32     -3.27      0.81
  -19    3   32     -1.40     -0.73
  -17    3   32      0.17      3.30
  -15    3   32     -3.50     -8.75
  -13    3   32      3.57      1.55
  -11    3   32      1.19      2.73
   -9    3   32     -0.07     -1.20
   -7    3   32      2.41      3.17
   -5    3   32     -0.79     -2.42
   -3    3   32      1.79      1.35
   -1    3   32     -0.54      2.64
    1    3   32     -0.96     -2.14
    3    3   32     -0.57      0.89
    5    3   32     -2.08     -2.02
    7    3   32      2.19     -1.25
    9    3   32     -0.62      1.05
   11    3   32      1.14     -0.56
   13    3   32     -1.66      1.15
  -26    2   32     -2.42     -2.62
  -24    2   32      0.61      3.57
  -22    2   32     -2.16      1.67
  -20    2   32     -0.35     -0.24
  -18    2   32     -2.56      0.12
  -16    2   32      2.77     -4.90
  -14    2   32      1.47     -1.07
  -12    2   32      0.47     -1.08
  -10    2   32     -1.45      1.76
   -8    2   32      2.95      2.26
   -6    2   32     -0.92      4.01
   -4    2   32      2.57      0.44
   -2    2   32     -2.86     -1.68
    0    2   32     -1.44      0.92
    2    2   32      1.70     -1.25
    4    2   32     -1.90     -3.00
    6    2   32      0.63      2.95
    8    2   32      1.70     -2.38
   10    2   32     -2.31      2.48
   12    2   32     -0.14     -1.58
  -27    1   32     -2.06     -3.43
  -25    1   32     -0.78      4.60
  -23    1   32     -3.67     -2.26
  -21    1   32     -0.43      4.24
  -19    1   32      2.76     -4.73
  -17    1   32      1.45     -0.93
  -15    1   32      3.89      0.04
  -13    1   32     -1.32     -0.24
  -11    1   32      1.73     -5.14
   -9    1   32     -0.87      7.12
   -7    1   32     -0.72     -0.36
   -5    1   32     -2.65      6.91
   -3    1   32      0.86     -4.78
   -1    1   32     -2.02      0.32
    1    1   32      0.95     -2.10
    3    1   32      1.90     -0.08
    5    1   32      0.13      0.40
    7    1   32     -1.07     -0.50
    9    1   32     -2.03      3.07
   11    1   32      1.11     -3.72
   13    1   32     -0.04      0.89
  -26    0   32     -2.54      1.73
  -24    0   32     -3.45     -0.22
  -22    0   32     -4.13      0.21
  -20    0   32      6.04     -0.11
  -18    0   32      3.06     -2.86
  -16    0   32      2.68      3.74
  -14    0   32     -0.67     -1.65
  -12    0   32      2.59      1.11
  -10    0   32      1.02     -1.02
   -8    0   32     -4.70      1.24
   -6    0   32     -0.19      0.52
   -4    0   32     -6.15     -0.21
   -2    0   32      4.42     -1.52
    0    0   32     -0.61      0.82
    2    0   32     -0.22     -0.31
    4    0   32      5.67      0.69
    6    0   32     -4.80     -0.27
    8    0   32     -0.13     -0.37
   10    0   32     -2.90      0.51
   12    0   32      4.31     -0.03
   14    0   32     -0.20     -0.13
  -12    8   33      6.57     -0.77
  -10    8   33     -4.12     -0.58
   -8    8   33      2.29      2.68
   -6    8   33     -4.26      0.32
   -4    8   33      4.68     -0.09
   -2    8   33     -3.71     -1.00
  -17    7   33      0.51     -0.26
  -15    7   33     -1.82     -1.85
  -13    7   33      4.65      1.66
  -11    7   33      0.08     -0.70
   -9    7   33      2.72      0.01
   -7    7   33     -3.85     -0.14
   -5    7   33     -0.11      4.53
   -3    7   33     -0.05     -0.21
   -1    7   33     -3.95     -1.86
    1    7   33     -0.55     -0.65
    3    7   33      2.52     -1.70
  -20    6   33     -2.16     -1.35
  -18    6   33     -1.22     -1.01
  -16    6   33      1.17      0.32
  -14    6   33      0.62     -1.85
  -12    6   33      0.76      1.04
  -10    6   33      5.90     -0.75
   -8    6   33     -4.45      1.33
   -6    6   33      1.06      1.37
   -4    6   33     -5.33      2.18
   -2    6   33      0.72     -0.52
    0    6   33     -0.02     -3.77
    2    6   33     -0.24      0.42
    4    6   33      2.35     -0.39
    6    6   33     -0.26      0.24
  -21    5   33     -2.19     -0.84
  -19    5   33     -0.36     -2.52
  -17    5   33     -3.39      1.51
  -15    5   33      3.28     -0.69
  -13    5   33      0.55     -0.16
  -11    5   33      5.22     -1.87
   -9    5   33     -3.79      3.90
   -7    5   33      1.31     -1.15
   -5    5   33     -5.08      0.61
   -3    5   33      1.24      1.59
   -1    5   33      1.28     -3.66
    1    5   33     -0.61      1.88
    3    5   33      0.41     -2.08
    5    5   33      0.01      0.43
    7    5   33      0.83     -0.20
  -22    4   33     -1.62      3.46
  -20    4   33     -1.50     -1.76
  -18    4   33      2.16     -2.64
  -16    4   33     -6.36      0.86
  -14    4   33      5.77     -1.21
  -12    4   33      3.19      2.02
  -10    4   33     -2.11      0.77
   -8    4   33      1.24     -0.83
   -6    4   33     -4.61      0.88
   -4    4   33      2.07     -2.05
   -2    4   33      2.14      2.56
    0    4   33     -1.80     -0.50
    2    4   33      0.54     -1.62
    4    4   33     -2.33      0.43
    6    4   33      1.51     -1.43
    8    4   33      0.77      0.64
  -23    3   33     -2.65      2.99
  -21    3   33     -1.40     -1.03
  -19    3   33      0.03      0.92
  -17    3   33     -0.86     -4.58
  -15    3   33      1.43     -1.45
  -13    3   33      1.41      0.52
  -11    3   33      1.19      6.01
   -9    3   33     -1.89     -3.03
   -7    3   33      1.14      2.81
   -5    3   33     -0.06     -4.06
   -3    3   33     -0.10      2.51
   -1    3   33      0.92      2.29
    1    3   33     -1.95     -3.87
    3    3   33     -1.68      0.99
    5    3   33      1.05     -1.78
    7    3   33      0.45     -0.97
    9    3   33      1.64      2.25
  -24    2   33     -2.82      3.76
  -22    2   33      1.30      0.40
  -20    2   33     -1.17     -2.05
  -18    2   33     -1.16     -0.98
  -16    2   33      5.45     -5.17
  -14    2   33      0.16      2.19
  -12    2   33     -2.86      0.91
  -10    2   33      2.01      1.65
   -8    2   33     -2.73      3.62
   -6    2   33      3.62     -1.04
   -4    2   33     -1.64     -0.40
   -2    2   33     -1.54     -0.15
    0    2   33      0.19      0.27
    2    2   33     -0.66     -2.71
    4    2   33      0.09     -1.16
    6    2   33      0.79      1.49
    8    2   33      0.53      0.87
   10    2   33     -0.67     -0.76
  -25    1   33     -1.90      1.69
  -23    1   33     -0.96      2.39
  -21    1   33      2.76     -2.26
  -19    1   33      0.67     -3.02
  -17    1   33      5.36      0.35
  -15    1   33     -2.10     -0.05
  -13    1   33      1.84     -0.49
  -11    1   33     -2.74     -0.06
   -9    1   33      0.84      3.83
   -7    1   33     -3.14      0.77
   -5    1   33      0.48      2.38
   -3    1   33     -0.58     -4.42
   -1    1   33     -1.18      0.23
    1    1   33      1.55      0.46
    3    1   33      3.70     -4.00
    5    1   33     -4.23      3.40
    7    1   33      1.18      0.41
    9    1   33     -2.72      0.48
   11    1   33      3.14     -2.86
  -24    0   33      1.28     -0.31
  -22    0   33     -2.34     -0.72
  -20    0   33      8.73     -0.92
  -18    0   33      1.67      0.72
  -16    0   33     -0.04      1.20
  -14    0   33     -1.58      0.19
  -12    0   33      4.29     -0.44
  -10    0   33     -6.24     -0.14
   -8    0   33      2.53      1.64
   -6    0   33     -7.45     -1.20
   -4    0   33      3.71     -0.09
   -2    0   33     -1.91     -0.99
    0    0   33      1.96      0.51
    2    0   33      3.73      0.61
    4    0   33     -1.07     -0.23
    6    0   33     -1.00     -0.12
    8    0   33     -6.16     -0.11
   10    0   33      6.11      0.24
   12    0   33     -0.20      0.00
  -13    7   34      3.30      2.65
  -11    7   34     -0.02     -3.46
   -9    7   34     -0.57      4.14
   -7    7   34     -1.51     -2.31
   -5    7   34     -0.50      5.19
   -3    7   34     -0.63     -3.99
   -1    7   34     -3.20     -1.73
  -16    6   34      1.55     -2.19
  -14    6   34      1.05      2.05
  -12    6   34      2.35     -2.62
  -10    6   34      1.20      4.76
   -8    6   34     -2.51     -1.55
   -6    6   34     -3.36      3.72
   -4    6   34      0.67     -0.75
   -2    6   34     -1.54     -3.95
    0    6   34      1.62     -0.96
    2    6   34      0.75      0.01
  -19    5   34     -2.42     -2.19
  -17    5   34      0.75      3.76
  -15    5   34      2.49     -3.61
  -13    5   34      2.90      1.31
  -11    5   34     -0.01      2.77
   -9    5   34     -2.61     -0.95
   -7    5   34     -1.71      3.59
   -5    5   34     -2.21     -2.87
   -3    5   34      2.37      0.18
   -1    5   34      1.22     -2.13
    1    5   34     -1.08     -1.56
    3    5   34      0.91      2.04
    5    5   34      0.61     -1.09
  -20    4   34      0.64     -2.32
  -18    4   34     -2.08     -1.53
  -16    4   34      1.66      1.05
  -14    4   34      1.54      0.85
  -12    4   34      4.19      2.55
  -10    4   34     -7.22     -0.53
   -8    4   34      2.62      0.84
   -6    4   34     -4.43     -2.46
   -4    4   34      3.20      1.51
   -2    4   34      2.99     -0.72
    0    4   34     -3.41     -0.55
    2    4   34      1.46     -1.31
    4    4   34     -1.08      0.44
    6    4   34      0.94      0.58
  -21    3   34     -0.48     -1.50
  -19    3   34      1.60      0.78
  -17    3   34     -1.47     -6.32
  -15    3   34      3.25      3.50
  -13    3   34     -0.97      3.48
  -11    3   34     -1.83     -0.13
   -9    3   34      0.46      2.01
   -7    3   34     -2.36     -5.04
   -5    3   34      3.65      1.41
   -3    3   34     -1.68      1.62
   -1    3   34      1.54     -0.17
    1    3   34     -2.05     -1.43
    3    3   34     -1.01     -1.25
    5    3   34      2.20     -0.11
    7    3   34      0.59      0.98
  -22    2   34      0.13     -1.20
  -20    2   34     -1.14     -1.96
  -18    2   34      2.83     -3.11
  -16    2   34      0.98      0.46
  -14    2   34      0.51      0.90
  -12    2   34     -4.83      3.89
  -10    2   34      1.81     -1.99
   -8    2   34     -2.15      3.15
   -6    2   34      4.02     -3.88
   -4    2   34     -2.55      1.14
   -2    2   34     -0.86      1.57
    0    2   34      1.59     -1.36
    2    2   34     -2.49     -3.85
    4    2   34      1.85      3.04
    6    2   34      1.45     -1.25
    8    2   34     -1.17      2.70
  -23    1   34      1.11      2.75
  -21    1   34      2.51     -4.82
  -19    1   34      1.31     -1.57
  -17    1   34      2.05      1.92
  -15    1   34     -1.71      0.65
  -13    1   34     -1.31     -1.91
  -11    1   34     -0.33      3.90
   -9    1   34     -1.80     -2.37
   -7    1   34      0.18      3.58
   -5    1   34     -0.36     -2.55
   -3    1   34     -0.58     -0.33
   -1    1   34     -0.81      0.79
    1    1   34      4.10     -3.17
    3    1   34     -0.95      1.07
    5    1   34     -1.75      0.33
    7    1   34     -1.24      3.41
    9    1   34      2.29     -3.97
  -24    0   34     -1.69     -0.51
  -22    0   34      5.41      0.27
  -20    0   34      3.06     -2.18
  -18    0   34      1.12      4.77
  -16    0   34     -3.25     -2.67
  -14    0   34      1.28      1.96
  -12    0   34     -1.49     -1.84
  -10    0   34     -0.34      0.93
   -8    0   34     -1.97      0.31
   -6    0   34     -2.34     -1.07
   -4    0   34      1.77     -0.40
   -2    0   34     -0.92      0.03
    0    0   34      1.88      0.41
    2    0   34      5.55      0.45
    4    0   34     -6.42     -0.28
    6    0   34     -0.88     -0.48
    8    0   34     -1.42      0.54
  -12    6   35      1.60      0.29
  -10    6   35     -2.73      2.33
   -8    6   35      0.08      0.31
   -6    6   35     -4.03      0.16
   -4    6   35      2.49     -2.52
  -15    5   35      1.39      0.20
  -13    5   35      2.48      0.14
  -11    5   35     -4.48      4.82
   -9    5   35      0.57     -2.65
   -7    5   35     -3.87      1.69
   -5    5   35      2.61     -1.97
   -3    5   35      1.49     -3.82
   -1    5   35      0.43      0.82
    1    5   35     -0.67     -1.37
  -18    4   35     -3.21      1.32
  -16    4   35      5.14      0.72
  -14    4   35     -0.60      2.90
  -12    4   35     -2.03      0.44
  -10    4   35     -0.94     -0.62
   -8    4   35     -3.35      0.24
   -6    4   35      3.72     -3.07
   -4    4   35      0.64      2.11
   -2    4   35      2.59     -1.82
    0    4   35     -1.68     -1.26
    2    4   35     -0.55      1.07
  -19    3   35      0.86     -1.49
  -17    3   35      0.00     -0.18
  -15    3   35      0.18      1.84
  -13    3   35     -1.25      4.94
  -11    3   35     -3.06     -4.65
   -9    3   35      1.54      2.90
   -7    3   35     -0.15     -6.22
   -5    3   35      2.52      4.23
   -3    3   35      0.58      1.14
   -1    3   35     -0.43     -2.17
    1    3   35     -1.51      0.32
    3    3   35      1.32     -1.15
    5    3   35     -0.09      0.04
  -20    2   35     -0.97     -1.06
  -18    2   35      3.52     -1.93
  -16    2   35     -1.16      2.48
  -14    2   35     -2.86      1.74
  -12    2   35     -0.13     -0.97
  -10    2   35     -2.77      1.31
   -8    2   35      4.11     -3.52
   -6    2   35      0.03      2.74
   -4    2   35     -0.75     -1.06
   -2    2   35      0.10      4.04
    0    2   35     -0.78     -5.44
    2    2   35      0.51      0.51
    4    2   35      0.64      1.01
    6    2   35      1.50      0.86
  -21    1   35      0.17     -2.83
  -19    1   35      2.46      0.45
  -17    1   35     -2.57      1.27
  -15    1   35      0.72      0.59
  -13    1   35     -3.48     -0.85
  -11    1   35      2.49      0.12
   -9    1   35     -3.11     -0.51
   -7    1   35      2.28      1.62
   -5    1   35     -1.49     -0.90
   -3    1   35     -1.06      1.07
   -1    1   35      1.58     -0.19
    1    1   35      2.66     -4.16
    3    1   35     -3.36      3.87
    5    1   35      0.71     -0.08
  -20    0   35      0.60      0.88
  -18    0   35     -2.46      1.45
  -16    0   35     -1.20     -0.74
  -14    0   35      0.91     -0.76
  -12    0   35     -1.78     -0.07
  -10    0   35      1.95      0.34
   -8    0   35     -3.66     -0.51
   -6    0   35     -0.13     -0.19
   -4    0   35      0.10     -0.45
   -2    0   35     -0.85      0.55
    0    0   35      6.25      0.45
    2    0   35     -3.35     -0.14
    4    0   35     -1.05     -0.21
    6    0   35     -3.82     -0.16
   -7    5   36     -0.36     -3.19
  -14    4   36      0.17      1.15
  -12    4   36     -5.19     -0.55
  -10    4   36      3.59     -0.27
   -8    4   36     -3.02     -1.98
   -6    4   36      5.07     -0.29
   -4    4   36      1.33     -0.36
   -2    4   36     -0.65     -0.61
  -15    3   36     -1.66      1.08
  -13    3   36     -1.85     -0.58
  -11    3   36      0.52      0.34
   -9    3   36     -0.31     -3.47
   -7    3   36      5.12      1.81
   -5    3   36     -1.95      0.28
   -3    3   36      3.26      2.24
   -1    3   36     -3.04     -2.73
    1    3   36      0.42      0.38
  -16    2   36     -0.69      1.36
  -14    2   36     -3.35      0.90
  -12    2   36      1.37     -3.01
  -10    2   36     -1.72      2.14
   -8    2   36      5.15     -2.26
   -6    2   36     -1.54      3.56
   -4    2   36     -0.03      1.12
   -2    2   36      0.17     -0.44
    0    2   36     -1.90     -3.62
    2    2   36      2.36      2.07
  -17    1   36     -0.98      0.17
  -15    1   36     -1.35     -0.67
  -13    1   36      1.24      0.24
  -11    1   36     -1.78     -2.39
   -9    1   36      1.55      2.15
   -7    1   36     -1.83      1.71
   -5    1   36      0.98     -0.31
   -3    1   36     -2.59      2.05
   -1    1   36      4.42     -4.80
    1    1   36     -1.71      1.92
    3    1   36     -0.53     -0.52
  -18    0   36     -2.95     -2.30
  -16    0   36      1.29      0.94
  -14    0   36     -0.70     -1.83
  -12    0   36      1.73      0.78
  -10    0   36     -1.67      0.08
   -8    0   36     -2.03     -0.55
   -6    0   36     -0.56      0.29
   -4    0   36     -0.74     -0.15
   -2    0   36      2.40      0.53
    0    0   36      3.39      0.17
    2    0   36     -4.94     -0.28
  -12    2   37     -1.51      1.33
  -10    2   37      2.96     -1.17
   -8    2   37      1.44      4.14
   -6    2   37     -0.55     -1.49
   -4    2   37     -0.46      3.80
  -13    1   37      1.36     -0.87
  -11    1   37     -2.28      0.00
   -9    1   37      1.26      2.89
   -7    1   37     -1.28      1.00
   -5    1   37     -0.37      0.79
   -3    1   37      0.61     -1.66
  -14    0   37      0.25      0.24
  -12    0   37      0.26     -0.05
  -10    0   37     -2.04      0.31
   -8    0   37     -2.83     -0.09
   -6    0   37      1.46      0.10
   -4    0   37     -1.39      0.21
   -2    0   37      5.55      0.20
    2    0    0   -172.76      0.41
    1    1    0     83.66    -80.54
   40    2    0      0.66     -1.70
   38    6    0     -0.48      2.00
   35    9    0      2.71      2.37
   30   12    0      1.07      3.01
   -2    0    1    149.49     -0.13
    0    0    1    149.58      0.25
    2    0    1   -106.44     -0.28
   40    0    1      1.19      0.64
   -1    1    1    160.80   -279.01
   40    2    1      0.75     -3.16
  -39    5    1     -0.02      1.71
   38    6    1     -1.27      1.76
   37    7    1      1.99      0.68
   36    8    1      1.58     -1.31
  -35    9    1      0.38      3.35
  -34   10    1      1.17      0.36
   30   12    1     -0.35      2.52
   13   17    1      0.06     -1.56
    0    0    2   -197.94      0.41
   40    0    2     -1.66      1.70
  -39    5    2     -1.59      0.60
  -34   10    2      0.06     -0.31
  -26   14    2     -0.23      0.93
  -23   15    2     -1.11     -0.84
   18   16    2     -3.00     -0.37
   13   17    2     -2.44     -1.82
   39    3    3      1.25     -3.15
  -40    4    3     -1.52     -1.65
  -34   10    3      0.41     -1.09
   27   13    3      1.06     -1.04
  -26   14    3     -1.63     -1.36
  -23   15    3     -0.49     -0.34
   18   16    3     -0.77     -0.70
   13   17    3     -0.02     -1.44
  -40    4    4     -1.34     -2.08
  -34   10    4      1.56      0.69
   31   11    4      1.24      0.52
   27   13    4     -0.63      1.24
  -26   14    4      0.11     -2.18
  -23   15    4     -1.94     -0.63
   21   15    4     -0.27      0.51
   39    1    5      1.00      1.66
  -40    4    5      1.98      2.85
   38    4    5     -1.36     -1.53
   32   10    5      1.01     -2.76
  -26   14    5      1.13      0.22
   24   14    5     -0.69     -0.27
  -23   15    5      0.54     -1.26
   21   15    5     -0.64     -0.53
  -13   17    5      1.25      1.79
   11   17    5     -0.60     -1.32
  -40    4    6      2.07      2.06
   37    5    6     -3.37      1.73
   33    9    6     -1.94      0.31
   28   12    6     -0.01     -0.48
  -26   14    6     -1.91      0.63
  -23   15    6      4.66      0.20
   16   16    6     -0.99     -0.14
  -13   17    6      0.55      1.28
   11   17    6      0.23     -0.27
   38    2    7      1.58     -0.70
  -40    4    7     -2.77     -1.93
   36    6    7     -0.79      2.58
   35    7    7      0.32      0.18
   34    8    7     -1.50      0.90
  -26   14    7     -1.78     -0.66
   16   16    7     -0.78      1.75
  -13   17    7     -0.64     -1.25
  -40    4    8     -1.46      0.51
  -34   10    8     -2.04     -0.62
   29   11    8     -1.74      0.56
   25   13    8      1.65      0.40
   19   15    8     -1.40     -2.32
  -18   16    8     -1.59     -1.01
    9   17    8     -2.67     -0.33
  -40    4    9      3.79      3.12
  -34   10    9      0.98      0.03
  -18   16    9      1.34     -1.17
   14   16    9     -0.77      1.57
  -11   17    9     -0.29      1.86
    7   17    9     -2.58     -0.65
  -40    4   10      3.54      0.39
  -34   10   10      0.57      0.49
   26   12   10     -0.23      0.05
  -11   17   10      0.92      0.80
    7   17   10     -3.13     -0.07
   36    2   11     -1.93     -1.16
  -40    4   11      1.63     -1.22
   34    6   11      1.73     -0.49
   33    7   11     -1.24      1.15
   32    8   11     -0.51      0.94
  -30   12   11     -2.24     -2.03
   23   13   11     -0.55      0.98
   20   14   11     -1.21     -0.78
   17   15   11     -1.89      1.24
   12   16   11     -0.92      0.55
   -9   17   11      2.88     -0.32
    5   17   11     -1.31     -0.09
   35    3   12      1.30     -0.25
  -39    5   12     -2.14      2.54
  -35    9   12     -1.42     -0.65
   27   11   12     -0.87     -2.78
  -30   12   12     -1.59     -1.72
  -21   15   12     -0.15      0.67
  -16   16   12      0.12     -0.24
   -7   17   12      0.95     -0.19
   -5   17   12     -2.97     -0.15
    1   17   12      1.88      1.00
    3   17   12     -0.09     -0.19
   35    1   13      0.17     -3.12
   34    4   13      0.15     -2.06
  -39    5   13     -4.58      1.98
  -38    6   13     -1.56      1.00
  -36    8   13      0.37     -1.28
  -35    9   13     -1.80     -1.11
   28   10   13     -1.18      0.79
   24   12   13     -0.71      0.30
  -27   13   13      0.11      0.90
  -24   14   13      1.48      2.34
   15   15   13     -1.91      1.13
   10   16   13     -1.65      0.41
   -3   17   13      0.12      0.94
   -1   17   13      2.18     -0.02
  -40    2   14     -0.44      3.53
   33    5   14     -2.50      0.34
  -38    6   14     -2.23     -1.57
   32    6   14      0.50     -2.86
  -37    7   14      0.00      1.18
   31    7   14      0.56     -1.29
  -36    8   14     -0.75     -3.24
   30    8   14      1.86     -0.79
  -31   11   14      1.81      2.10
  -14   16   14     -1.36     -0.90
    8   16   14      0.45      0.84
  -40    0   15      2.61     -0.19
   12    0   15      0.09      0.31
   34    0   15      3.59     -0.26
  -40    2   15     -1.58      1.87
  -31   11   15      0.40      3.83
  -19   15   15      0.22     -0.19
  -12   16   15     -0.60      0.97
    6   16   15      2.20      0.21
  -40    0   16      5.47     -0.29
   10    0   16      2.30      0.46
   33    1   16      0.13     -2.48
   32    4   16     -3.00     -1.83
   27    9   16     -0.03      2.19
  -28   12   16     -3.93     -0.75
   19   13   16      0.70     -2.05
  -22   14   16     -1.05     -0.30
   11   15   16     -0.96      0.51
  -10   16   16      0.07      0.35
    4   16   16      0.72     -0.24
    8    0   17    -15.06      0.23
   10    0   17      0.14      0.37
   32    2   17     -2.45     -0.09
  -39    3   17      1.61     -3.98
   30    6   17      0.04      2.10
   29    7   17     -1.37      1.03
  -32   10   17     -3.53     -1.01
   23   11   17     -0.72     -0.26
  -25   13   17      1.26      0.09
   14   14   17     -0.15     -2.96
  -17   15   17      0.14     -2.00
   -8   16   17      0.04      0.62
   -6   16   17     -0.84     -1.00
    0   16   17      0.18     -1.36
  -18    0   18    -10.10     -0.04
    6    0   18     -5.99      0.22
    8    0   18      2.48      0.39
  -39    1   18     -3.52      1.16
   31    3   18     -1.45      1.59
  -38    4   18     -3.95      0.02
  -33    9   18     -3.38     -2.94
  -15   15   18     -0.68      1.17
  -18    0   19     -3.61      0.12
  -37    5   19      2.45     -2.15
   29    5   19     -1.04      0.99
  -36    6   19     -1.71     -2.03
   28    6   19      0.99      1.08
  -35    7   19     -0.90      1.29
   27    7   19     -0.51      1.46
  -34    8   19     -1.63     -2.33
   26    8   19      0.09      0.55
  -26   12   19     -2.74     -0.19
   18   12   19     -1.53     -0.21
  -23   13   19     -0.76      1.40
   15   13   19      1.59      0.34
  -13   15   19     -0.91     -1.22
    5   15   19     -1.21      0.58
   30    0   20      2.48      0.20
  -38    2   20      1.47     -0.04
  -30   10   20      4.42     -0.23
  -18   14   20     -0.69     -0.31
   10   14   20      1.94      0.85
  -11   15   20     -1.73     -0.50
    3   15   20     -2.78     -0.02
  -38    0   21      3.10     -1.82
   29    1   21      1.19     -2.22
   28    4   21     -0.16      1.17
   27    5   21      0.13      1.48
   25    7   21      1.54      1.30
   24    8   21     -0.34     -0.12
  -31    9   21      4.15      3.15
  -27   11   21      0.49     -0.71
  -21   13   21      0.08     -1.89
  -16   14   21      2.36      0.28
    8   14   21      2.69      1.68
   -7   15   21     -1.26     -0.82
   -5   15   21      1.69     -1.73
   -3   15   21      1.47      0.76
   28    0   22      2.18      0.19
   28    2   22     -0.15     -1.50
  -36    4   22     -5.42     -5.18
  -32    8   22     -0.28      2.72
   21    9   22     -1.44      0.17
   17   11   22     -1.21     -0.47
   14   12   22     -0.89     -1.78
  -14   14   22     -1.17      1.19
   27    1   23      0.76     -1.70
   26    4   23     -0.63     -1.39
   25    5   23      0.59      0.33
  -34    6   23     -3.69     -0.65
   24    6   23      0.22      1.56
   23    7   23      2.00      2.05
   18   10   23      0.63     -1.42
  -25   11   23     -0.63      0.06
  -22   12   23      0.39     -2.52
  -12   14   23      0.16      1.54
    2   14   23     -1.13      0.00
  -36    0   24      0.35     -0.18
   26    0   24      1.62     -0.23
  -36    2   24     -5.74      1.69
  -29    9   24     -2.47      1.09
   25    1   25     -0.31     -1.13
  -34    4   25     -1.13      0.96
   23    5   25      1.54     -0.63
   22    6   25     -0.03      2.05
  -31    7   25     -1.56     -7.08
   17    9   25     -0.09     -1.53
  -23   11   25      1.01      1.68
  -13   13   25     -0.25     -1.16
    3   13   25     -1.36      1.59
   23    3   26     -0.09     -0.25
   19    7   26     -1.45     -0.14
  -24   10   26     -2.37      0.47
  -21   11   26     -1.06      2.24
    6   12   26      1.18     -0.20
   -9   13   26     -2.18      0.18
   -7   13   26      2.11      0.98
   -5   13   26     -1.38     -0.98
   -3   13   26      1.60      0.30
   -1   13   26     -1.07     -1.32
  -34    0   27      3.92     -0.19
   22    2   27     -0.72      0.73
  -33    3   27      0.78     -0.55
  -29    7   27     -0.40     -2.63
   16    8   27      0.34      0.71
  -25    9   27     -0.44     -2.72
  -19   11   27      0.35     -3.30
  -14   12   27     -1.44      0.87
    2   12   27     -2.26      1.53
   21    1   28     -0.70      0.75
  -26    8   28      0.91      0.56
  -17   11   28     -0.04      1.13
    5   11   28      0.47      0.40
  -10   12   28      1.87     -0.66
   -8   12   28      0.90      0.17
   -6   12   28     -1.67     -1.12
   -4   12   28      1.19     -1.95
   -2   12   28     -1.61      1.72
  -32    0   29     -5.79     -2.22
  -31    3   29     -6.30     -0.32
   19    3   29      0.51      1.22
  -30    4   29     -2.75      1.51
   18    4   29     -0.25     -1.54
  -29    5   29     -3.40     -0.32
   17    5   29     -0.78      0.92
  -28    6   29      2.12     -1.91
   16    6   29      0.95     -1.29
  -13   11   29      0.54     -0.82
    1   11   29     -0.79      1.00
   18    0   30      0.94      0.10
  -30    2   30      2.33      2.03
   17    3   30      1.54     -2.05
   14    6   30     -0.07     -0.43
  -25    7   30     -1.59     -0.91
   10    8   30      1.03      0.35
    7    9   30      0.88     -1.48
  -16   10   30      1.38     -0.77
    4   10   30      1.06      1.10
   -7   11   30     -0.52      1.29
   -5   11   30     -0.27      0.98
  -29    1   31     -0.95     -0.85
   16    2   31      3.02     -1.31
   12    6   31      0.33      0.72
  -23    7   31      2.21      0.37
    8    8   31     -0.22     -2.43
  -17    9   31      1.78     -0.28
    5    9   31      0.91     -1.50
  -12   10   31     -0.43     -0.62
  -10   10   31     -2.67     -1.44
   -2   10   31     -0.33      0.13
  -28    0   32     -1.67     -2.13
   14    2   32      1.89     -0.65
  -27    3   32      0.20     -1.45
  -26    4   32      3.04      2.85
  -25    5   32      0.90     -0.42
   10    6   32      0.04      1.33
  -21    7   32      1.10      1.03
  -18    8   32     -1.07      0.99
  -13    9   32     -0.33      2.04
    1    9   32      1.45      2.06
  -26    0   33     -4.48      1.59
  -26    2   33      1.67     -0.04
   12    2   33     -0.25      0.19
  -25    3   33      2.96     -0.25
   11    3   33     -0.85     -0.36
  -24    4   33      0.74     -0.49
   10    4   33     -0.93     -0.66
  -23    5   33      3.01      1.48
    9    5   33     -1.55      0.90
    5    7   33      1.39      1.59
  -14    8   33     -2.31      0.34
    0    8   33     -2.56      2.55
   10    0   34      5.45     -0.25
  -24    2   34     -0.54      1.21
   10    2   34      0.20     -2.19
  -23    3   34     -2.93     -0.29
    9    3   34      0.41      0.23
  -22    4   34     -1.78     -0.12
    8    4   34      0.92     -0.51
  -18    6   34     -0.55      1.14
    4    6   34      0.38      0.93
  -15    7   34      0.25     -0.80
    1    7   34      2.07      0.53
  -22    0   35      5.45     -0.15
    7    1   35     -0.65      0.62
  -21    3   35      0.41     -0.80
    4    4   35      0.95      0.42
  -17    5   35      2.75      0.42
    3    5   35      0.98      2.28
  -14    6   35      2.31      1.14
   -2    6   35     -0.69     -3.48
    0    6   35      0.21      0.90
    4    0   36      0.70     -0.20
  -19    1   36      0.47      1.85
  -18    2   36      0.76      0.16
  -17    3   36      0.33      3.22
  -16    4   36      1.13      1.65
    0    4   36      0.19     -0.61
  -11    5   36     -2.09      1.01
   -9    5   36     -0.39     -0.23
   -5    5   36      2.42     -0.18
   -3    5   36      1.35     -3.79
  -16    0   37      0.17     -0.71
    0    0   37     -3.20     -0.11
  -15    1   37     -1.05     -0.37
   -1    1   37      1.67     -2.77
  -14    2   37      0.20     -1.89
   -2    2   37     -1.05     -5.45
  -11    3   37      2.10      2.25
   -9    3   37      1.43     -3.41
   -7    3   37      2.61      3.33
   -5    3   37     -0.64     -0.24
   -3    3   37      0.16      0.01
    0    0    0      0.00      0.00
# SQUEEZE RESULTS (Version = 260217)
# Note: Data are Listed for all Voids in the P1 Unit Cell
# i.e. Centre of Gravity, Solvent Accessible Volume,
# Recovered number of Electrons in the Void and
# Details about the Squeezed Material
loop_
  _platon_squeeze_void_nr
  _platon_squeeze_void_average_x
  _platon_squeeze_void_average_y
  _platon_squeeze_void_average_z
  _platon_squeeze_void_volume
  _platon_squeeze_void_count_electrons
  _platon_squeeze_void_content
   1  0.179  0.842  0.189       372       105 ' '
   2  0.679  0.342  0.189       372       105 ' '
   3  0.321  0.342  0.811       372       105 ' '
   4  0.821  0.842  0.811       372       105 ' '
# Missing Reflections Below sin(th)/lambda = 0.25
loop_
  _platon_missing_refln_index_h
  _platon_missing_refln_index_k
  _platon_missing_refln_index_l
  _platon_missing_refln_theta
    2    0    0     2.648
    1    1    0     3.244
   -2    0    1     2.764
    0    0    1     1.447
    2    0    1     3.253
   -1    1    1     3.448
    0    0    2     2.894
_platon_squeeze_void_probe_radius                  1.20
_platon_squeeze_details
)
TITL exp_591   C 2          R = 0.09
CELL   33.9973   14.9225   31.1158     90.00    101.05     90.00
SPGR C2
# Solvent Accessible Volume =      1491
# Electrons Found in S.A.V. =       419
# Note: Atoms in Void as Cxxx and Qxxx all others
C101 0.267 0.314 0.803 !       2.25 eA-3
C102 0.760 0.261 0.274 !       2.02 eA-3
Q103 0.773 0.331 0.323 !       2.00 eA-3
C104 0.431 0.478 0.819 !       1.96 eA-3
C105 0.243 0.341 0.716 !       1.69 eA-3
C106 0.257 0.289 0.828 !       1.67 eA-3
Q107 0.350 0.453 0.883 !       1.64 eA-3
C108 0.350 0.199 0.856 !       1.64 eA-3
Q109 0.548 0.472 0.150 !       1.58 eA-3
C110 0.343 0.133 0.875 !       1.58 eA-3
C111 0.252 0.293 0.763 !       1.57 eA-3
Q112 0.384 0.257 0.828 !       1.55 eA-3
Q113 0.379 0.204 0.845 !       1.51 eA-3
C114 0.757 0.231 0.220 !       1.49 eA-3
C115 0.772 0.418 0.265 !       1.49 eA-3
C116 0.272 0.371 0.828 !       1.45 eA-3
C117 0.259 0.404 0.795 !       1.43 eA-3
Q118 0.784 0.358 0.938 !       1.40 eA-3
C119 0.632 0.269 0.149 !       1.36 eA-3
Q120 0.411 0.413 0.954 !       1.36 eA-3
C121 0.781 0.248 0.250 !       1.35 eA-3
C122 0.632 0.269 0.110 !       1.33 eA-3
C123 0.213 0.422 0.759 !       1.33 eA-3
Q124 0.576 0.341 0.053 !       1.33 eA-3
Q125 0.673 0.214 0.220 !       1.28 eA-3
C126 0.375 0.213 0.891 !       1.26 eA-3
Q127 0.218 0.206 0.718 !       1.26 eA-3
Q128 0.716 0.230 0.296 !       1.23 eA-3
C129 0.312 0.361 0.842 !       1.22 eA-3
Q130 0.548 0.454 0.558 !       1.21 eA-3
Q131 0.729 0.403 0.888 !       1.21 eA-3
C132 0.255 0.470 0.735 !       1.19 eA-3
Q133 0.717 0.423 0.706 !       1.19 eA-3
C134 0.614 0.356 0.077 !       1.19 eA-3
Q135 0.454 0.502 0.451 !       1.18 eA-3
C136 0.945 0.082 0.844 !       1.18 eA-3
C137 0.324 0.348 0.859 !       1.18 eA-3
Q138 0.079 0.065 0.141 !       1.17 eA-3
Q139 0.539 0.334 0.182 !       1.15 eA-3
C140 0.442 0.402 0.813 !       1.13 eA-3
Q141 0.309 0.156 0.820 !       1.13 eA-3
Q142 0.759 0.287 0.594 !       1.13 eA-3
C143 0.806 0.266 0.249 !       1.13 eA-3
Q144 0.221 0.251 0.202 !       1.12 eA-3
C145 0.647 0.319 0.125 !       1.12 eA-3
Q146 0.105 0.030 0.165 !       1.11 eA-3
C147 0.249 0.201 0.712 !       1.11 eA-3
Q148 0.790 0.258 0.315 !       1.10 eA-3
C149 0.250 0.388 0.719 !       1.10 eA-3
Q150 0.800 0.243 0.282 !       1.09 eA-3
Q151 0.615 0.479 0.131 !       1.08 eA-3
C152 0.264 0.333 0.714 !       1.07 eA-3
Q153 0.217 0.143 0.690 !       1.07 eA-3
Q154 0.323 0.200 0.795 !       1.05 eA-3
C155 0.712 0.254 0.233 !       1.05 eA-3
Q156 0.599 0.354 0.032 !       1.05 eA-3
C157 0.631 0.358 0.169 !       1.03 eA-3
Q158 0.791 0.282 0.338 !       1.03 eA-3
Q159 0.712 0.296 0.271 !       1.02 eA-3
Q160 0.373 0.434 0.893 !       1.02 eA-3
Q161 0.206 0.442 0.063 !       1.02 eA-3
Q162 0.282 0.293 0.431 !       1.02 eA-3
Q163 0.395 0.240 0.905 !       1.01 eA-3
C164 0.730 0.362 0.258 !       1.01 eA-3
Q165 0.905 0.329 0.155 !       1.01 eA-3
Q166 0.537 0.331 0.048 !       1.01 eA-3
C167 0.243 0.410 0.664 !       1.00 eA-3
C168 0.772 0.285 0.188 !       0.99 eA-3
C169 0.281 0.331 0.775 !       0.99 eA-3
C170 0.258 0.204 0.727 !       0.99 eA-3
Q171 0.590 0.191 0.024 !       0.98 eA-3
C172 0.297 0.308 0.805 !       0.98 eA-3
Q173 0.254 0.455 0.688 !       0.98 eA-3
C174 0.765 0.374 0.225 !       0.98 eA-3
Q175 0.766 0.406 0.960 !       0.97 eA-3
Q176 0.606 0.388 0.033 !       0.97 eA-3
C177 0.361 0.369 0.898 !       0.96 eA-3
Q178 0.058 0.064 0.133 !       0.96 eA-3
Q179 0.831 0.190 0.275 !       0.96 eA-3
Q180 0.301 0.234 0.436 !       0.95 eA-3
C181 0.411 0.442 0.892 !       0.94 eA-3
C182 0.702 0.351 0.142 !       0.93 eA-3
Q183 0.196 0.015 0.736 !       0.93 eA-3
Q184 0.447 0.415 0.578 !       0.93 eA-3
C185 0.737 0.439 0.224 !       0.93 eA-3
Q186 0.731 0.264 0.547 !       0.93 eA-3
Q187 0.203 0.451 0.694 !       0.93 eA-3
Q188 0.152 0.458 0.039 !       0.92 eA-3
Q189 0.567 0.436 0.062 !       0.89 eA-3
Q190 0.093 0.104 0.148 !       0.89 eA-3
C191 0.617 0.351 0.133 !       0.89 eA-3
C192 0.716 0.300 0.243 !       0.89 eA-3
Q193 0.799 0.223 0.187 !       0.88 eA-3
C194 0.360 0.327 0.851 !       0.88 eA-3
Q195 0.577 0.298 0.103 !       0.87 eA-3
Q196 0.703 0.158 0.143 !       0.87 eA-3
Q197 0.437 0.325 0.838 !       0.87 eA-3
Q198 0.199 0.154 0.232 !       0.87 eA-3
C199 0.637 0.421 0.085 !       0.85 eA-3
)
;
_shelx_fab_checksum              89450
loop_
_space_group_symop_operation_xyz
'x, y, z'
'-x, y, -z'
'x+1/2, y+1/2, z'
'-x+1/2, y+1/2, -z'
loop_
_atom_site_label
_atom_site_type_symbol
_atom_site_fract_x
_atom_site_fract_y
_atom_site_fract_z
_atom_site_U_iso_or_equiv
_atom_site_adp_type
_atom_site_occupancy
_atom_site_site_symmetry_order
_atom_site_calc_flag
_atom_site_refinement_flags_posn
_atom_site_refinement_flags_adp
_atom_site_refinement_flags_occupancy
_atom_site_disorder_assembly
_atom_site_disorder_group
C1 C 0.1214(4) 0.1224(7) 0.3897(4) 0.072(6) Uani 1 1 d DG U . . .
H1 H 0.1020 0.1515 0.3693 0.086 Uiso 1 1 calc R U . . .
C2 C 0.1429(4) 0.1696(5) 0.4251(4) 0.059(5) Uani 1 1 d DG U . . .
H2 H 0.1379 0.2303 0.4283 0.071 Uiso 1 1 calc R U . . .
C3 C 0.1718(3) 0.1261(6) 0.4556(3) 0.048(4) Uani 1 1 d DG U . . .
C4 C 0.1793(4) 0.0355(7) 0.4507(4) 0.066(5) Uani 1 1 d DG U . . .
H4 H 0.1986 0.0064 0.4711 0.079 Uiso 1 1 calc R U . . .
C5 C 0.1578(4) -0.0117(5) 0.4153(4) 0.078(6) Uani 1 1 d DG U . . .
H5 H 0.1628 -0.0724 0.4121 0.094 Uiso 1 1 calc R U . . .
N1 N 0.1288(4) 0.0317(6) 0.3849(3) 0.062(4) Uani 1 1 d DG U . . .
C6 C 0.1938(5) 0.1768(9) 0.4941(5) 0.050(4) Uani 1 1 d D U . . .
C7 C 0.2053(5) 0.3086(9) 0.5305(5) 0.046(4) Uani 1 1 d D U . . .
C8 C 0.2399(5) 0.1848(9) 0.5548(6) 0.055(4) Uani 1 1 d D U . . .
N2 N 0.1829(4) 0.2624(8) 0.4965(5) 0.052(3) Uani 1 1 d D U . . .
N3 N 0.2333(4) 0.2730(8) 0.5609(5) 0.054(4) Uani 1 1 d D U . . .
N4 N 0.2221(4) 0.1348(8) 0.5227(5) 0.056(4) Uani 1 1 d D U . . .
C9 C 0.2113(7) 0.5517(11) 0.5586(8) 0.082(6) Uani 1 1 d D U . . .
H9 H 0.2267 0.5904 0.5784 0.099 Uiso 1 1 calc R U . . .
C10 C 0.2199(7) 0.4602(10) 0.5620(8) 0.084(7) Uani 1 1 d D U . . .
H10 H 0.2397 0.4376 0.5841 0.100 Uiso 1 1 calc R U . . .
C11 C 0.1976(5) 0.4046(9) 0.5311(6) 0.055(4) Uani 1 1 d D U . . .
C12 C 0.1676(8) 0.4405(11) 0.5001(7) 0.088(8) Uani 1 1 d D U . . .
H12 H 0.1522 0.4036 0.4793 0.106 Uiso 1 1 calc R U . . .
C13 C 0.1602(8) 0.5315(11) 0.4998(8) 0.092(7) Uani 1 1 d D U . . .
H13 H 0.1394 0.5549 0.4790 0.110 Uiso 1 1 calc R U . . .
C14 C 0.3061(7) 0.0078(12) 0.6174(8) 0.100(8) Uani 1 1 d D U . . .
H14 H 0.3119 -0.0524 0.6140 0.120 Uiso 1 1 calc R U . . .
C15 C 0.2779(8) 0.0488(10) 0.5857(8) 0.100(9) Uani 1 1 d D U . . .
H15 H 0.2635 0.0160 0.5624 0.120 Uiso 1 1 calc R U . . .
C16 C 0.2715(6) 0.1389(9) 0.5893(6) 0.064(5) Uani 1 1 d D U . . .
C17 C 0.2908(7) 0.1848(11) 0.6258(7) 0.088(7) Uani 1 1 d D U . . .
H17 H 0.2856 0.2452 0.6296 0.105 Uiso 1 1 calc R U . . .
C18 C 0.3182(7) 0.1383(11) 0.6568(8) 0.099(8) Uani 1 1 d D U . . .
H18 H 0.3318 0.1693 0.6811 0.118 Uiso 1 1 calc R U . . .
C19 C 0.1019(9) 0.6900(18) 0.5713(9) 0.106(8) Uani 1 1 d D U . . .
H19 H 0.0934 0.6491 0.5490 0.128 Uiso 1 1 calc R U . . .
C20 C 0.0812(9) 0.6953(16) 0.6052(9) 0.106(8) Uani 1 1 d D U . . .
H20 H 0.0637 0.6498 0.6095 0.127 Uiso 1 1 calc R U . . .
C21 C 0.0867(6) 0.7696(11) 0.6329(6) 0.068(4) Uani 1 1 d D U . . .
C22 C 0.1200(8) 0.8205(17) 0.6314(9) 0.098(7) Uani 1 1 d D U . . .
H22 H 0.1269 0.8664 0.6517 0.117 Uiso 1 1 calc R U . . .
C23 C 0.1435(8) 0.8049(16) 0.6002(8) 0.096(7) Uani 1 1 d D U . . .
H23 H 0.1664 0.8393 0.6008 0.116 Uiso 1 1 calc R U . . .
C24 C 0.0626(5) 0.7850(11) 0.6659(6) 0.067(3) Uani 1 1 d D U . . .
C25 C 0.0119(5) 0.7432(10) 0.6988(5) 0.062(3) Uani 1 1 d D U . . .
C26 C 0.0482(5) 0.8663(10) 0.7201(5) 0.056(3) Uani 1 1 d D U . . .
C27 C -0.0717(6) 0.6255(15) 0.7372(7) 0.097(6) Uani 1 1 d D U . . .
H27 H -0.0842 0.6266 0.7613 0.116 Uiso 1 1 calc R U . . .
C28 C -0.0386(6) 0.6794(14) 0.7373(7) 0.082(5) Uani 1 1 d D U . . .
H28 H -0.0285 0.7139 0.7619 0.099 Uiso 1 1 calc R U . . .
C29 C -0.0206(5) 0.6825(12) 0.7017(6) 0.071(4) Uani 1 1 d D U . . .
C30 C -0.0382(9) 0.635(2) 0.6652(8) 0.118(8) Uani 1 1 d D U . . .
H30 H -0.0303 0.6440 0.6384 0.141 Uiso 1 1 calc R U . . .
C31 C -0.0681(9) 0.575(2) 0.6696(9) 0.125(9) Uani 1 1 d D U . . .
H31 H -0.0759 0.5333 0.6471 0.150 Uiso 1 1 calc R U . . .
C32 C 0.0952(6) 1.0742(12) 0.7751(6) 0.073(4) Uani 1 1 d D U . . .
H32 H 0.1187 1.1069 0.7760 0.088 Uiso 1 1 calc R U . . .
C33 C 0.0885(6) 0.9998(12) 0.7487(6) 0.076(5) Uani 1 1 d D U . . .
H33 H 0.1071 0.9834 0.7318 0.091 Uiso 1 1 calc R U . . .
C34 C 0.0539(5) 0.9487(10) 0.7472(5) 0.057(3) Uani 1 1 d D U . . .
C35 C 0.0282(5) 0.9748(11) 0.7733(5) 0.064(4) Uani 1 1 d D U . . .
H35 H 0.0049 0.9421 0.7732 0.076 Uiso 1 1 calc R U . . .
C36 C 0.0361(5) 1.0498(11) 0.8003(5) 0.065(4) Uani 1 1 d D U . . .
H36 H 0.0187 1.0647 0.8189 0.078 Uiso 1 1 calc R U . . .
C37 C 0.1522(7) 1.1758(9) 0.9196(6) 0.087(7) Uani 1 1 d D U . . .
H37 H 0.1574 1.2363 0.9160 0.104 Uiso 1 1 calc R U . . .
C38 C 0.1747(6) 1.1336(8) 0.9542(5) 0.063(5) Uani 1 1 d D U . . .
H38 H 0.1955 1.1638 0.9723 0.075 Uiso 1 1 calc R U . . .
C39 C 0.1665(5) 1.0447(8) 0.9626(5) 0.054(4) Uani 1 1 d D U . . .
C40 C 0.1387(7) 1.0031(10) 0.9317(6) 0.078(7) Uani 1 1 d D U . . .
H40 H 0.1344 0.9418 0.9337 0.094 Uiso 1 1 calc R U . . .
C41 C 0.1169(8) 1.0519(10) 0.8973(7) 0.094(8) Uani 1 1 d D U . . .
H41 H 0.0966 1.0227 0.8781 0.113 Uiso 1 1 calc R U . . .
C42 C 0.1901(5) 0.9942(9) 0.9984(5) 0.052(4) Uani 1 1 d D U . . .
C43 C 0.2388(6) 0.9847(9) 1.0591(6) 0.059(5) Uani 1 1 d D U . . .
C44 C 0.2026(6) 0.8642(10) 1.0347(5) 0.059(4) Uani 1 1 d D U . . .
C45 C 0.3224(7) 1.0330(11) 1.1525(7) 0.084(7) Uani 1 1 d D U . . .
H45 H 0.3377 1.0026 1.1760 0.101 Uiso 1 1 calc R U . . .
C46 C 0.2935(6) 0.9869(10) 1.1245(6) 0.073(6) Uani 1 1 d D U . . .
H46 H 0.2893 0.9263 1.1291 0.088 Uiso 1 1 calc R U . . .
C47 C 0.2705(6) 1.0309(9) 1.0893(6) 0.064(5) Uani 1 1 d D U . . .
C48 C 0.2786(7) 1.1204(11) 1.0837(7) 0.089(7) Uani 1 1 d D U . . .
H48 H 0.2644 1.1518 1.0599 0.106 Uiso 1 1 calc R U . . .
C49 C 0.3078(8) 1.1628(11) 1.1135(8) 0.095(8) Uani 1 1 d D U . . .
H49 H 0.3122 1.2236 1.1097 0.115 Uiso 1 1 calc R U . . .
C50 C 0.1616(9) 0.6338(10) 0.9995(8) 0.104(9) Uani 1 1 d D U . . .
H50 H 0.1409 0.6102 0.9786 0.125 Uiso 1 1 calc R U . . .
C51 C 0.1671(8) 0.7248(10) 1.0021(8) 0.093(8) Uani 1 1 d D U . . .
H51 H 0.1509 0.7616 0.9820 0.112 Uiso 1 1 calc R U . . .
C52 C 0.1962(7) 0.7632(10) 1.0338(7) 0.077(6) Uani 1 1 d D U . . .
C53 C 0.2207(7) 0.7069(10) 1.0614(7) 0.081(7) Uani 1 1 d D U . . .
H53 H 0.2420 0.7292 1.0819 0.097 Uiso 1 1 calc R U . . .
C54 C 0.2131(8) 0.6149(10) 1.0582(8) 0.089(8) Uani 1 1 d D U . . .
H54 H 0.2278 0.5772 1.0791 0.107 Uiso 1 1 calc R U . . .
C55 C 0.4330(8) 1.082(2) 1.1601(6) 0.099(7) Uani 1 1 d D U . . .
H55 H 0.4193 1.1078 1.1342 0.119 Uiso 1 1 calc R U . . .
C56 C 0.4655(8) 1.028(2) 1.1581(7) 0.100(8) Uani 1 1 d D U . . .
H56 H 0.4754 1.0223 1.1324 0.121 Uiso 1 1 calc R U . . .
C57 C 0.4829(6) 0.9826(13) 1.1962(5) 0.067(4) Uani 1 1 d D U . . .
C58 C 0.4667(5) 0.9915(11) 1.2332(5) 0.062(4) Uani 1 1 d D U . . .
H58 H 0.4765 0.9576 1.2580 0.074 Uiso 1 1 calc R U . . .
C59 C 0.4353(5) 1.0519(12) 1.2331(5) 0.068(4) Uani 1 1 d D U . . .
H59 H 0.4248 1.0590 1.2583 0.081 Uiso 1 1 calc R U . . .
C60 C 0.5164(6) 0.9230(12) 1.1953(6) 0.066(4) Uani 1 1 d D U . . .
C61 C 0.5512(5) 0.7982(10) 1.2166(5) 0.055(3) Uani 1 1 d D U . . .
C62 C 0.5668(6) 0.8845(12) 1.1627(6) 0.067(4) Uani 1 1 d D U . . .
C63 C 0.5394(5) 0.6122(11) 1.2954(6) 0.066(4) Uani 1 1 d D U . . .
H63 H 0.5213 0.5943 1.3126 0.079 Uiso 1 1 calc R U . . .
C64 C 0.5315(5) 0.6901(11) 1.2700(5) 0.061(4) Uani 1 1 d D U . . .
H64 H 0.5090 0.7248 1.2711 0.073 Uiso 1 1 calc R U . . .
C65 C 0.5577(5) 0.7142(10) 1.2436(5) 0.060(4) Uani 1 1 d D U . . .
C66 C 0.5896(8) 0.6596(17) 1.2414(9) 0.103(8) Uani 1 1 d D U . . .
H66 H 0.6073 0.6738 1.2230 0.123 Uiso 1 1 calc R U . . .
C67 C 0.5951(8) 0.5827(16) 1.2670(9) 0.101(8) Uani 1 1 d D U . . .
H67 H 0.6158 0.5439 1.2639 0.121 Uiso 1 1 calc R U . . .
C68 C 0.6515(8) 0.8666(19) 1.1009(9) 0.106(8) Uani 1 1 d D U . . .
H68 H 0.6746 0.8330 1.1017 0.127 Uiso 1 1 calc R U . . .
C69 C 0.6291(7) 0.8534(19) 1.1325(9) 0.097(7) Uani 1 1 d D U . . .
H69 H 0.6379 0.8137 1.1554 0.117 Uiso 1 1 calc R U . . .
C70 C 0.5931(6) 0.8996(15) 1.1305(7) 0.077(5) Uani 1 1 d D U . . .
C71 C 0.5821(8) 0.961(2) 1.0975(9) 0.104(8) Uani 1 1 d D U . . .
H71 H 0.5583 0.9933 1.0948 0.125 Uiso 1 1 calc R U . . .
C72 C 0.6075(9) 0.974(2) 1.0686(11) 0.119(9) Uani 1 1 d D U . . .
H72 H 0.6011 1.0182 1.0474 0.143 Uiso 1 1 calc R U . . .
N5 N 0.1820(6) 0.5866(11) 0.5284(7) 0.084(5) Uani 1 1 d D U . . .
N6 N 0.3257(5) 0.0522(10) 0.6532(6) 0.090(5) Uani 1 1 d D U . . .
N7 N 0.1341(6) 0.7415(11) 0.5692(6) 0.081(4) Uani 1 1 d D U . . .
N8 N 0.0339(5) 0.7247(10) 0.6679(5) 0.070(3) Uani 1 1 d D U . . .
N9 N 0.0189(4) 0.8099(9) 0.7265(4) 0.061(3) Uani 1 1 d D U . . .
N10 N 0.0708(5) 0.8598(9) 0.6902(5) 0.064(3) Uani 1 1 d D U . . .
N11 N -0.0862(6) 0.5717(12) 0.7036(7) 0.100(6) Uani 1 1 d D U . . .
N13 N 0.1232(5) 1.1382(8) 0.8901(5) 0.067(4) Uani 1 1 d D U . . .
N12 N 0.0691(5) 1.1014(9) 0.7996(5) 0.067(4) Uani 1 1 d D U . . .
N15 N 0.2340(5) 0.8981(8) 1.0638(5) 0.056(4) Uani 1 1 d D U . . .
N14 N 0.2191(5) 1.0360(8) 1.0258(5) 0.061(4) Uani 1 1 d D U . . .
N16 N 0.1800(5) 0.9076(8) 1.0021(5) 0.061(4) Uani 1 1 d D U . . .
N17 N 0.3298(5) 1.1210(9) 1.1472(6) 0.076(4) Uani 1 1 d D U . . .
N19 N 0.4201(5) 1.1002(11) 1.1973(5) 0.072(4) Uani 1 1 d D U . . .
N18 N 0.1855(6) 0.5785(9) 1.0264(6) 0.081(6) Uani 1 1 d D U . . .
N20 N 0.5215(4) 0.8527(9) 1.2240(4) 0.057(3) Uani 1 1 d D U . . .
N21 N 0.5747(5) 0.8099(10) 1.1879(5) 0.062(3) Uani 1 1 d D U . . .
N24 N 0.6409(6) 0.9264(12) 1.0688(6) 0.081(4) Uani 1 1 d D U . . .
N23 N 0.5724(5) 0.5625(10) 1.2954(5) 0.068(4) Uani 1 1 d D U . . .
N22 N 0.5385(5) 0.9425(11) 1.1651(5) 0.070(4) Uani 1 1 d D U . . .
C100 C 0.0161(16) 0.255(4) 0.3793(12) 0.124(10) Uani 0.521(8) 1 d D U P A 2
H10A H 0.0044 0.3145 0.3766 0.149 Uiso 0.521(8) 1 calc R U P A 2
H10B H 0.0335 0.2479 0.3582 0.149 Uiso 0.521(8) 1 calc R U P A 2
C101 C -0.0160(15) 0.182(4) 0.3748(13) 0.123(11) Uani 0.521(8) 1 d D U P A 2
H10C H -0.0310 0.1898 0.3980 0.147 Uiso 0.521(8) 1 calc R U P A 2
H10D H -0.0024 0.1242 0.3796 0.147 Uiso 0.521(8) 1 calc R U P A 2
Cl1 Cl 0.0423(7) 0.232(2) 0.4349(6) 0.166(9) Uani 0.521(8) 1 d D U P A 2
Cl2 Cl -0.0520(6) 0.175(2) 0.3223(7) 0.155(9) Uani 0.521(8) 1 d D U P A 2
C102 C -0.1359(13) 0.446(6) 0.3171(14) 0.146(14) Uani 0.452(15) 1 d D U P B 2
H10E H -0.1551 0.4037 0.3010 0.175 Uiso 0.452(15) 1 calc R U P B 2
H10F H -0.1389 0.5035 0.3027 0.175 Uiso 0.452(15) 1 calc R U P B 2
C103 C -0.0932(12) 0.411(4) 0.323(2) 0.147(14) Uani 0.452(15) 1 d D U P B 2
H10G H -0.0894 0.3899 0.2946 0.177 Uiso 0.452(15) 1 calc R U P B 2
H10H H -0.0916 0.3585 0.3418 0.177 Uiso 0.452(15) 1 calc R U P B 2
Cl3 Cl -0.1402(9) 0.453(2) 0.3749(10) 0.155(9) Uani 0.452(15) 1 d D U P B 2
Cl4 Cl -0.0498(5) 0.4815(10) 0.3451(4) 0.084(4) Uani 0.452(15) 1 d D U P B 2
C73 C 0.0136(12) 0.464(2) 0.4907(12) 0.068(6) Uani 0.479(8) 1 d D U P A -1
C74 C 0.0326(16) 0.423(4) 0.534(2) 0.070(8) Uani 0.479(8) 1 d D U P A -1
H74A H 0.0149 0.3842 0.5465 0.084 Uiso 0.479(8) 1 calc R U P A -1
H74B H 0.0464 0.4652 0.5552 0.084 Uiso 0.479(8) 1 calc R U P A -1
C75 C 0.0596(13) 0.374(3) 0.5083(13) 0.064(8) Uani 0.479(8) 1 d D U P A -1
C76 C 0.0225(13) 0.324(3) 0.3979(12) 0.081(7) Uani 0.479(8) 1 d D U P A -1
C77 C -0.0113(13) 0.346(3) 0.3617(12) 0.092(9) Uani 0.479(8) 1 d D U P A -1
H77 H -0.0142 0.4052 0.3517 0.110 Uiso 0.479(8) 1 calc R U P A -1
C78 C -0.0371(14) 0.286(4) 0.3434(14) 0.103(10) Uani 0.479(8) 1 d D U P A -1
H78 H -0.0574 0.3007 0.3199 0.124 Uiso 0.479(8) 1 calc R U P A -1
C79 C -0.0330(15) 0.198(4) 0.3607(16) 0.105(11) Uani 0.479(8) 1 d D U P A -1
C80 C -0.0001(14) 0.169(4) 0.3969(15) 0.090(9) Uani 0.479(8) 1 d D U P A -1
H80 H 0.0012 0.1110 0.4082 0.108 Uiso 0.479(8) 1 calc R U P A -1
C81 C 0.0296(16) 0.237(4) 0.4134(16) 0.094(10) Uani 0.479(8) 1 d D U P A -1
H81 H 0.0526 0.2221 0.4337 0.112 Uiso 0.479(8) 1 calc R U P A -1
C82 C 0.0123(12) 0.565(2) 0.5002(15) 0.084(8) Uani 0.479(8) 1 d D U P A -1
C83 C 0.0380(13) 0.623(3) 0.4788(13) 0.104(12) Uani 0.479(8) 1 d D U P A -1
C84 C 0.0383(17) 0.710(3) 0.484(2) 0.115(14) Uani 0.479(8) 1 d D U P A -1
H84 H 0.0547 0.7468 0.4703 0.139 Uiso 0.479(8) 1 calc R U P A -1
C85 C 0.0127(18) 0.747(3) 0.510(2) 0.110(15) Uani 0.479(8) 1 d D U P A -1
H85 H 0.0121 0.8087 0.5128 0.133 Uiso 0.479(8) 1 calc R U P A -1
C86 C -0.0134(17) 0.693(3) 0.534(2) 0.099(12) Uani 0.479(8) 1 d D U P A -1
H86 H -0.0281 0.7195 0.5530 0.118 Uiso 0.479(8) 1 calc R U P A -1
C87 C -0.0140(16) 0.598(3) 0.5258(17) 0.091(11) Uani 0.479(8) 1 d D U P A -1
H87 H -0.0313 0.5600 0.5371 0.110 Uiso 0.479(8) 1 calc R U P A -1
C88 C 0.0631(17) 0.567(4) 0.4529(18) 0.15(2) Uani 0.479(8) 1 d D U P A -1
H88A H 0.0566 0.5050 0.4551 0.224 Uiso 0.479(8) 1 calc R U P A -1
H88B H 0.0573 0.5853 0.4227 0.224 Uiso 0.479(8) 1 calc R U P A -1
H88C H 0.0910 0.5764 0.4646 0.224 Uiso 0.479(8) 1 calc R U P A -1
C89 C 0.0906(12) 0.314(3) 0.5174(11) 0.054(7) Uani 0.479(8) 1 d . U P A -1
H89 H 0.1069 0.3008 0.4975 0.064 Uiso 0.479(8) 1 calc R U P A -1
C90 C 0.0965(11) 0.271(3) 0.5622(12) 0.068(9) Uani 0.479(8) 1 d D U P A -1
C93 C 0.137(3) 0.165(5) 0.6073(19) 0.135(14) Uani 0.479(8) 1 d D U P A -1
H93A H 0.1109 0.1532 0.6144 0.162 Uiso 0.479(8) 1 calc R U P A -1
H93B H 0.1534 0.1940 0.6324 0.162 Uiso 0.479(8) 1 calc R U P A -1
C94 C 0.157(3) 0.076(5) 0.597(3) 0.15(2) Uani 0.479(8) 1 d D U P A -1
H94A H 0.1595 0.0373 0.6226 0.231 Uiso 0.479(8) 1 calc R U P A -1
H94B H 0.1401 0.0470 0.5729 0.231 Uiso 0.479(8) 1 calc R U P A -1
H94C H 0.1826 0.0877 0.5908 0.231 Uiso 0.479(8) 1 calc R U P A -1
C96 C -0.0244(14) 0.427(3) 0.4626(19) 0.079(9) Uani 0.479(8) 1 d D U P A -1
C97 C -0.0771(16) 0.480(6) 0.3921(17) 0.124(14) Uani 0.479(8) 1 d D U P A -1
H97A H -0.0697 0.4292 0.3759 0.149 Uiso 0.479(8) 1 calc R U P A -1
H97B H -0.0741 0.5333 0.3751 0.149 Uiso 0.479(8) 1 calc R U P A -1
C98 C -0.1222(17) 0.470(5) 0.394(3) 0.117(16) Uani 0.479(8) 1 d D U P A -1
H98A H -0.1376 0.4673 0.3648 0.176 Uiso 0.479(8) 1 calc R U P A -1
H98B H -0.1261 0.4167 0.4097 0.176 Uiso 0.479(8) 1 calc R U P A -1
H98C H -0.1306 0.5213 0.4088 0.176 Uiso 0.479(8) 1 calc R U P A -1
C99 C -0.052(2) 0.135(6) 0.3436(19) 0.115(19) Uani 0.479(8) 1 d . U P A -1
H99A H -0.0450 0.0824 0.3606 0.172 Uiso 0.479(8) 1 calc R U P A -1
H99B H -0.0805 0.1472 0.3420 0.172 Uiso 0.479(8) 1 calc R U P A -1
H99C H -0.0473 0.1269 0.3146 0.172 Uiso 0.479(8) 1 calc R U P A -1
O1 O 0.0782(9) 0.274(2) 0.5879(8) 0.070(8) Uani 0.479(8) 1 d D U P A -1
O2 O 0.1325(11) 0.223(3) 0.5699(11) 0.097(9) Uani 0.479(8) 1 d D U P A -1
O3 O 0.0502(12) 0.493(2) 0.3998(10) 0.091(8) Uani 0.479(8) 1 d D U P A -1
O4 O 0.0958(11) 0.377(2) 0.4266(11) 0.083(7) Uani 0.479(8) 1 d . U P A -1
O5 O -0.0480(11) 0.486(2) 0.4332(11) 0.087(8) Uani 0.479(8) 1 d D U P A -1
O6 O -0.0383(9) 0.364(2) 0.4692(8) 0.064(6) Uani 0.479(8) 1 d D U P A -1
S1 S 0.0560(4) 0.4112(8) 0.4215(3) 0.074(3) Uani 0.479(8) 1 d . U P A -1
N25 N 0.0476(12) 0.430(3) 0.4750(11) 0.068(6) Uani 0.479(8) 1 d . U P A -1
C90A C 0.0799(9) 0.0801(16) 0.4983(8) 0.096(7) Uani 1 1 d D U . C 1
H90A H 0.0542 0.0890 0.4789 0.115 Uiso 1 1 calc R U . C 1
H90B H 0.1000 0.1158 0.4880 0.115 Uiso 1 1 calc R U . C 1
C91A C 0.0918(11) -0.0218(18) 0.5013(12) 0.130(9) Uani 1 1 d D U . C 1
H91A H 0.0989 -0.0405 0.4739 0.156 Uiso 1 1 calc R U . C 1
H91B H 0.1151 -0.0300 0.5244 0.156 Uiso 1 1 calc R U . C 1
C92A C 0.0581(12) -0.079(2) 0.5105(10) 0.136(9) Uani 1 1 d D U . C 1
H92A H 0.0663 -0.1413 0.5122 0.163 Uiso 1 1 calc R U . C 1
H92B H 0.0352 -0.0728 0.4868 0.163 Uiso 1 1 calc R U . C 1
C93A C 0.0459(6) -0.0502(16) 0.5550(6) 0.076(5) Uani 1 1 d D U . C 1
H93C H 0.0215 -0.0802 0.5587 0.091 Uiso 1 1 calc R U . C 1
H93D H 0.0670 -0.0650 0.5797 0.091 Uiso 1 1 calc R U . C 1
C94A C 0.0398(13) 0.049(2) 0.5515(15) 0.161(11) Uani 1 1 d D U . C 1
H94D H 0.0301 0.0699 0.5772 0.193 Uiso 1 1 calc R U . C 1
H94E H 0.0190 0.0619 0.5262 0.193 Uiso 1 1 calc R U . C 1
C95A C 0.0775(14) 0.105(3) 0.5474(11) 0.160(11) Uani 1 1 d D U . C 1
H95A H 0.1011 0.0849 0.5680 0.192 Uiso 1 1 calc R U . C 1
H95B H 0.0736 0.1684 0.5512 0.192 Uiso 1 1 calc R U . C 1
C116 C 0.130(3) 0.127(3) 0.5677(16) 0.164(14) Uani 0.521(8) 1 d D U P A 2
H11A H 0.1500 0.1713 0.5639 0.197 Uiso 0.521(8) 1 calc R U P A 2
H11B H 0.1035 0.1525 0.5572 0.197 Uiso 0.521(8) 1 calc R U P A 2
C117 C 0.135(2) 0.100(6) 0.6156(14) 0.194(18) Uani 0.521(8) 1 d D U P A 2
H11C H 0.1134 0.0576 0.6173 0.232 Uiso 0.521(8) 1 calc R U P A 2
H11D H 0.1294 0.1527 0.6316 0.232 Uiso 0.521(8) 1 calc R U P A 2
Cl17 Cl 0.1367(6) 0.0225(16) 0.5384(6) 0.134(6) Uani 0.521(8) 1 d D U P A 2
Cl18 Cl 0.1814(17) 0.050(4) 0.6468(16) 0.33(2) Uani 0.521(8) 1 d D U P A 2
C126 C -0.105(4) 0.506(7) 0.341(6) 0.131(15) Uani 0.146(15) 1 d D U P D 3
H12D H -0.1012 0.5578 0.3235 0.157 Uiso 0.146(15) 1 calc R U P D 3
H12E H -0.0802 0.4903 0.3601 0.157 Uiso 0.146(15) 1 calc R U P D 3
C127 C -0.123(5) 0.428(6) 0.313(4) 0.134(18) Uani 0.146(15) 1 d D U P D 3
H12F H -0.1018 0.4068 0.2979 0.161 Uiso 0.146(15) 1 calc R U P D 3
H12G H -0.1437 0.4522 0.2900 0.161 Uiso 0.146(15) 1 calc R U P D 3
Cl27 Cl -0.145(2) 0.526(4) 0.372(2) 0.129(16) Uani 0.146(15) 1 d D U P D 3
Cl28 Cl -0.144(2) 0.327(5) 0.334(2) 0.14(2) Uani 0.146(15) 1 d D U P D 3
C106 C 0.778(3) 1.001(4) 1.2013(19) 0.198(19) Uani 0.515(12) 1 d D U P E 1
H10I H 0.8003 0.9665 1.2173 0.238 Uiso 0.515(12) 1 calc R U P E 1
H10J H 0.7657 1.0347 1.2218 0.238 Uiso 0.515(12) 1 calc R U P E 1
C107 C 0.747(2) 0.939(3) 1.173(3) 0.20(2) Uani 0.515(12) 1 d D U P E 1
H10K H 0.7492 0.9516 1.1431 0.243 Uiso 0.515(12) 1 calc R U P E 1
H10L H 0.7212 0.9602 1.1770 0.243 Uiso 0.515(12) 1 calc R U P E 1
Cl7 Cl 0.7941(5) 1.0747(14) 1.1601(6) 0.118(6) Uani 0.515(12) 1 d D U P E 1
Cl8 Cl 0.7470(10) 0.816(2) 1.1789(9) 0.192(12) Uani 0.515(12) 1 d D U P E 1
C110 C 0.786(4) 0.918(5) 1.263(2) 0.25(3) Uani 0.485(12) 1 d D U P E 2
H11E H 0.7953 0.8783 1.2874 0.303 Uiso 0.485(12) 1 calc R U P E 2
H11F H 0.7570 0.9230 1.2586 0.303 Uiso 0.485(12) 1 calc R U P E 2
C111 C 0.799(4) 0.884(4) 1.2218(18) 0.25(2) Uani 0.485(12) 1 d D U P E 2
H11G H 0.7859 0.8262 1.2162 0.299 Uiso 0.485(12) 1 calc R U P E 2
H11H H 0.8272 0.8720 1.2305 0.299 Uiso 0.485(12) 1 calc R U P E 2
Cl11 Cl 0.8098(9) 1.029(3) 1.2724(10) 0.187(12) Uani 0.485(12) 1 d D U P E 2
Cl12 Cl 0.7932(17) 0.938(4) 1.1674(17) 0.28(2) Uani 0.485(12) 1 d D U P E 2
C108 C 0.7511(17) 0.653(7) 1.311(2) 0.211(18) Uani 0.485(12) 1 d D U P E 2
H10M H 0.7672 0.6858 1.3344 0.253 Uiso 0.485(12) 1 calc R U P E 2
H10N H 0.7683 0.6154 1.2965 0.253 Uiso 0.485(12) 1 calc R U P E 2
C109 C 0.725(3) 0.714(5) 1.2780(16) 0.217(17) Uani 0.485(12) 1 d D U P E 2
H10O H 0.7409 0.7676 1.2756 0.260 Uiso 0.485(12) 1 calc R U P E 2
H10P H 0.7030 0.7332 1.2915 0.260 Uiso 0.485(12) 1 calc R U P E 2
Cl9 Cl 0.7112(12) 0.586(3) 1.3292(12) 0.176(13) Uani 0.485(12) 1 d D U P E 2
Cl10 Cl 0.7028(11) 0.680(4) 1.2214(12) 0.255(18) Uani 0.485(12) 1 d D U P E 2
C104 C 0.7562(18) 0.678(4) 1.334(4) 0.222(18) Uani 0.515(12) 1 d D U P E 1
H10Q H 0.7753 0.6884 1.3610 0.267 Uiso 0.515(12) 1 calc R U P E 1
H10R H 0.7697 0.6495 1.3128 0.267 Uiso 0.515(12) 1 calc R U P E 1
C105 C 0.735(2) 0.764(4) 1.316(3) 0.221(19) Uani 0.515(12) 1 d D U P E 1
H10S H 0.7136 0.7737 1.3321 0.265 Uiso 0.515(12) 1 calc R U P E 1
H10T H 0.7225 0.7518 1.2860 0.265 Uiso 0.515(12) 1 calc R U P E 1
Cl5 Cl 0.7128(11) 0.611(3) 1.3437(9) 0.198(15) Uani 0.515(12) 1 d D U P E 1
Cl6 Cl 0.7620(8) 0.871(3) 1.3162(9) 0.209(11) Uani 0.515(12) 1 d D U P E 1
C112 C -0.091(3) 1.225(5) 0.976(4) 0.36(3) Uani 0.600(18) 1 d D U P F 1
H11I H -0.0916 1.2800 0.9926 0.427 Uiso 0.600(18) 1 calc R U P F 1
H11J H -0.1167 1.2183 0.9558 0.427 Uiso 0.600(18) 1 calc R U P F 1
C113 C -0.082(4) 1.144(5) 1.006(3) 0.37(3) Uani 0.600(18) 1 d D U P F 1
H11K H -0.1024 1.1407 1.0229 0.447 Uiso 0.600(18) 1 calc R U P F 1
H11L H -0.0569 1.1581 1.0259 0.447 Uiso 0.600(18) 1 calc R U P F 1
Cl13 Cl -0.0486(15) 1.222(3) 0.9474(11) 0.29(2) Uani 0.600(18) 1 d D U P F 1
Cl14 Cl -0.076(2) 1.030(4) 0.9854(15) 0.44(4) Uani 0.600(18) 1 d D U P F 1
C114 C -0.187(2) 1.108(9) 0.865(2) 0.27(3) Uani 0.400(18) 1 d D U P F 2
H11M H -0.2017 1.1637 0.8616 0.319 Uiso 0.400(18) 1 calc R U P F 2
H11N H -0.2023 1.0625 0.8767 0.319 Uiso 0.400(18) 1 calc R U P F 2
C115 C -0.146(2) 1.120(10) 0.894(3) 0.28(3) Uani 0.400(18) 1 d D U P F 2
H11O H -0.1315 1.1607 0.8788 0.332 Uiso 0.400(18) 1 calc R U P F 2
H11P H -0.1328 1.0626 0.8949 0.332 Uiso 0.400(18) 1 calc R U P F 2
Cl15 Cl -0.1728(14) 1.072(4) 0.8130(19) 0.28(3) Uani 0.400(18) 1 d D U P F 2
Cl16 Cl -0.136(2) 1.160(4) 0.9516(18) 0.31(3) Uani 0.400(18) 1 d D U P F 2
C118 C 0.002(2) 0.720(7) 0.940(2) 0.21(3) Uani 0.432(17) 1 d D U P G 1
H11Q H -0.0215 0.6958 0.9500 0.256 Uiso 0.432(17) 1 calc R U P G 1
H11R H 0.0086 0.7776 0.9540 0.256 Uiso 0.432(17) 1 calc R U P G 1
C119 C -0.006(2) 0.728(7) 0.891(2) 0.22(3) Uani 0.432(17) 1 d D U P G 1
H11S H 0.0167 0.6969 0.8818 0.259 Uiso 0.432(17) 1 calc R U P G 1
H11T H -0.0024 0.7906 0.8844 0.259 Uiso 0.432(17) 1 calc R U P G 1
Cl19 Cl 0.0446(17) 0.641(4) 0.9503(12) 0.26(2) Uani 0.432(17) 1 d D U P G 1
Cl20 Cl -0.0506(13) 0.691(2) 0.8516(10) 0.183(15) Uani 0.432(17) 1 d D U P G 1
C120 C 0.038(3) 0.917(4) 0.955(2) 0.18(3) Uani 0.275(17) 1 d D U P H 2
H12H H 0.0601 0.9557 0.9669 0.212 Uiso 0.275(17) 1 calc R U P H 2
H12I H 0.0203 0.9100 0.9757 0.212 Uiso 0.275(17) 1 calc R U P H 2
C121 C 0.052(3) 0.827(4) 0.941(2) 0.17(3) Uani 0.275(17) 1 d D U P H 2
H12J H 0.0762 0.8395 0.9294 0.205 Uiso 0.275(17) 1 calc R U P H 2
H12K H 0.0322 0.8070 0.9166 0.205 Uiso 0.275(17) 1 calc R U P H 2
Cl21 Cl 0.0105(17) 0.958(4) 0.901(2) 0.22(3) Uani 0.275(17) 1 d D U P H 2
Cl22 Cl 0.0646(17) 0.728(3) 0.9766(12) 0.20(2) Uani 0.275(17) 1 d D U P H 2
C122 C -0.021(7) 0.544(8) 1.025(8) 0.35(4) Uani 0.327(15) 1 d D U P I -3
H12L H -0.0152 0.5517 1.0565 0.425 Uiso 0.327(15) 1 calc R U P I -3
H12M H -0.0466 0.5718 1.0139 0.425 Uiso 0.327(15) 1 calc R U P I -3
C123 C -0.025(7) 0.443(8) 1.015(7) 0.35(4) Uani 0.327(15) 1 d D U P I -3
H12N H -0.0533 0.4295 1.0063 0.425 Uiso 0.327(15) 1 calc R U P I -3
H12O H -0.0153 0.4110 1.0423 0.425 Uiso 0.327(15) 1 calc R U P I -3
Cl23 Cl 0.017(3) 0.602(7) 1.003(4) 0.36(4) Uani 0.327(15) 1 d D U P I -3
Cl24 Cl 0.001(3) 0.403(7) 0.975(3) 0.36(4) Uani 0.327(15) 1 d D U P I -3
Zn1 Zn 0.09017(9) -0.04146(16) 0.33835(8) 0.0664(8) Uani 1 1 d . U . . .
Zn2A Zn 0.1657(3) 0.7230(5) 0.5212(2) 0.0653(18) Uani 0.563 1 d . U P . .
Zn2B Zn 0.1812(4) 0.7288(8) 0.5314(5) 0.086(3) Uani 0.437 1 d . U P . .
Zn3A Zn 0.37235(19) -0.0191(4) 0.6903(2) 0.0546(14) Uani 0.4762 1 d . U P . .
Zn3B Zn 0.3586(2) -0.0031(5) 0.7114(3) 0.0726(16) Uani 0.5228 1 d . U P . .
Zn4 Zn 0.08360(10) 1.20637(14) 0.84349(8) 0.0727(9) Uani 1 1 d . U . . .
Zn5A Zn 0.37235(11) 1.1857(2) 1.19224(12) 0.0667(10) Uani 0.8224 1 d . U P . .
Zn5B Zn 0.3580(6) 1.1703(11) 1.2141(6) 0.0667(10) Uani 0.1776 1 d . U P . .
Zn6A Zn 0.67240(14) 0.9443(2) 1.01889(13) 0.0644(9) Uani 0.7852 1 d . U P . .
Zn6B Zn 0.6907(6) 0.9428(9) 1.0396(6) 0.078(3) Uani 0.2148 1 d . U P . .
I1 I 0.03308(5) -0.08201(10) 0.37611(5) 0.0832(5) Uani 1 1 d . U . . .
I2A I 0.1242(2) -0.1588(5) 0.3040(3) 0.0705(16) Uani 0.476 1 d . U P . .
I2B I 0.1352(3) -0.1401(4) 0.2979(3) 0.0889(19) Uani 0.524 1 d . U P . .
I3A I 0.12414(11) 0.74513(18) 0.44557(9) 0.0699(8) Uani 0.563 1 d . U P . .
I3B I 0.1468(2) 0.7689(3) 0.4541(3) 0.1177(19) Uani 0.437 1 d . U P . .
I4A I 0.22934(12) 0.81503(19) 0.54627(12) 0.0780(8) Uani 0.563 1 d . U P . .
I4B I 0.2472(2) 0.8038(3) 0.5708(3) 0.1129(17) Uani 0.437 1 d . U P . .
I5A I 0.34553(12) -0.0216(4) 0.76041(14) 0.0886(12) Uani 0.4403 1 d . U P . .
I5B I 0.33407(14) 0.0305(4) 0.78119(15) 0.1235(16) Uani 0.5597 1 d . U P . .
I6A I 0.39275(13) -0.1576(2) 0.65228(15) 0.0909(12) Uani 0.49 1 d . U P . .
I6B I 0.37450(19) -0.1582(3) 0.6815(2) 0.0837(16) Uani 0.4019 1 d . U P . .
I6C I 0.3614(5) -0.1591(10) 0.7019(6) 0.075(3) Uani 0.118 1 d . U P . .
I7 I 0.02484(6) 1.23741(12) 0.88079(6) 0.0971(6) Uani 1 1 d . U . . .
I8A I 0.12158(14) 1.3190(2) 0.80339(11) 0.0893(13) Uani 0.8373 1 d . U P . .
I8B I 0.1118(6) 1.3211(10) 0.8158(5) 0.073(2) Uani 0.1627 1 d . U P . .
I9A I 0.34747(18) 1.1799(3) 1.26518(17) 0.1014(15) Uani 0.7059 1 d . U P . .
I9B I 0.3301(4) 1.1096(11) 1.2922(5) 0.105(3) Uani 0.1321 1 d . U P . .
I9C I 0.3442(4) 1.2112(10) 1.2594(5) 0.081(2) Uani 0.2094 1 d . U P . .
I10A I 0.39147(10) 1.32470(13) 1.15434(10) 0.1148(11) Uani 0.8067 1 d . U P . .
I10B I 0.3713(7) 1.3297(9) 1.1832(7) 0.1148(11) Uani 0.131 1 d . U P . .
I10C I 0.3582(12) 1.3172(18) 1.2110(13) 0.1148(11) Uani 0.0623 1 d . U P . .
I11A I 0.62673(12) 0.92277(16) 0.94442(8) 0.0955(9) Uani 0.759 1 d . U P . .
I11B I 0.6464(5) 0.9068(7) 0.9570(4) 0.105(3) Uani 0.2194 1 d . U P . .
I11C I 0.6752(12) 0.8771(14) 0.9761(10) 0.078(5) Uani 0.0468 1 d . U P . .
I12A I 0.73472(12) 0.8523(2) 1.04195(12) 0.0728(8) Uani 0.6111 1 d . U P . .
I12B I 0.7445(3) 0.8668(5) 1.0611(3) 0.088(2) Uani 0.2778 1 d . U P . .
I12C I 0.7607(7) 0.8800(11) 1.0888(8) 0.056(4) Uani 0.0594 1 d . U P . .
loop_
_atom_site_aniso_label
_atom_site_aniso_U_11
_atom_site_aniso_U_22
_atom_site_aniso_U_33
_atom_site_aniso_U_23
_atom_site_aniso_U_13
_atom_site_aniso_U_12
C1 0.076(11) 0.043(7) 0.072(9) -0.010(6) -0.046(9) 0.000(6)
C2 0.059(9) 0.036(7) 0.065(8) -0.009(6) -0.031(7) 0.002(6)
C3 0.045(7) 0.029(6) 0.054(7) 0.002(5) -0.025(6) -0.008(5)
C4 0.081(11) 0.031(6) 0.066(9) -0.001(5) -0.037(8) 0.006(6)
C5 0.096(12) 0.040(8) 0.075(9) 0.001(6) -0.045(10) 0.006(7)
N1 0.078(9) 0.035(6) 0.057(7) 0.001(5) -0.026(6) -0.002(5)
C6 0.048(7) 0.027(5) 0.058(7) 0.002(5) -0.028(6) -0.004(5)
C7 0.046(7) 0.024(5) 0.056(7) -0.001(4) -0.021(6) -0.001(4)
C8 0.055(8) 0.025(5) 0.066(7) -0.001(5) -0.033(7) -0.001(5)
N2 0.049(7) 0.027(5) 0.065(7) 0.002(4) -0.026(6) -0.006(4)
N3 0.053(7) 0.023(5) 0.066(7) -0.004(4) -0.037(6) -0.003(4)
N4 0.059(7) 0.023(5) 0.066(7) -0.003(5) -0.036(6) -0.003(5)
C9 0.101(12) 0.028(7) 0.106(12) -0.015(6) -0.013(10) -0.011(6)
C10 0.097(13) 0.030(7) 0.100(12) -0.018(7) -0.038(11) -0.011(7)
C11 0.069(9) 0.023(5) 0.063(8) -0.001(5) -0.015(7) -0.005(5)
C12 0.119(14) 0.035(7) 0.085(11) -0.013(7) -0.045(11) 0.020(7)
C13 0.121(14) 0.039(7) 0.099(13) -0.008(7) -0.019(12) 0.022(7)
C14 0.084(12) 0.039(8) 0.134(11) 0.015(7) -0.085(11) -0.012(7)
C15 0.102(14) 0.024(7) 0.131(13) 0.002(7) -0.085(12) 0.005(7)
C16 0.058(9) 0.022(6) 0.087(9) 0.009(5) -0.051(8) -0.004(5)
C17 0.097(13) 0.037(7) 0.093(10) 0.006(7) -0.073(10) -0.009(7)
C18 0.097(13) 0.043(7) 0.113(12) 0.013(7) -0.086(11) -0.023(7)
C19 0.142(14) 0.064(12) 0.111(13) -0.044(11) 0.021(11) -0.018(11)
C20 0.144(16) 0.061(11) 0.110(13) -0.039(10) 0.018(12) -0.015(11)
C21 0.081(9) 0.040(8) 0.066(8) -0.008(6) -0.030(6) 0.014(6)
C22 0.111(12) 0.066(12) 0.110(13) -0.034(10) 0.005(10) -0.016(10)
C23 0.113(13) 0.061(11) 0.110(12) -0.026(10) 0.010(10) -0.010(10)
C24 0.075(8) 0.039(7) 0.063(7) -0.008(5) -0.042(5) 0.016(5)
C25 0.067(7) 0.031(6) 0.059(7) -0.002(5) -0.055(5) 0.007(5)
C26 0.062(7) 0.036(6) 0.050(6) -0.003(5) -0.045(5) 0.002(5)
C27 0.070(10) 0.063(11) 0.129(12) 0.003(9) -0.052(8) -0.024(9)
C28 0.078(10) 0.054(10) 0.090(9) -0.011(8) -0.044(7) -0.025(8)
C29 0.068(8) 0.035(7) 0.084(9) -0.007(6) -0.050(6) -0.002(6)
C30 0.115(15) 0.094(15) 0.118(12) -0.042(10) -0.045(10) -0.044(13)
C31 0.117(15) 0.090(16) 0.140(14) -0.035(12) -0.051(11) -0.052(13)
C32 0.107(11) 0.043(8) 0.055(8) -0.006(6) -0.024(7) -0.027(7)
C33 0.097(10) 0.048(8) 0.067(9) -0.012(7) -0.023(7) -0.022(7)
C34 0.074(8) 0.034(6) 0.044(6) -0.002(5) -0.036(5) -0.003(5)
C35 0.065(8) 0.048(8) 0.058(8) -0.016(6) -0.039(6) -0.003(6)
C36 0.086(9) 0.045(8) 0.045(7) -0.013(6) -0.035(6) -0.006(6)
C37 0.121(13) 0.013(6) 0.088(10) -0.002(6) -0.078(11) -0.007(7)
C38 0.080(10) 0.021(6) 0.063(8) -0.005(5) -0.051(8) -0.004(6)
C39 0.063(8) 0.023(5) 0.055(7) -0.005(5) -0.043(7) 0.005(5)
C40 0.098(12) 0.027(6) 0.075(9) 0.004(6) -0.069(10) -0.012(7)
C41 0.126(15) 0.029(6) 0.085(10) 0.002(6) -0.086(11) -0.013(7)
C42 0.062(8) 0.025(5) 0.052(7) -0.004(4) -0.034(6) 0.007(5)
C43 0.068(9) 0.027(5) 0.061(8) -0.001(5) -0.040(7) 0.014(5)
C44 0.081(9) 0.028(6) 0.052(7) 0.003(5) -0.028(7) 0.006(5)
C45 0.096(12) 0.044(7) 0.081(10) -0.002(6) -0.063(10) 0.005(7)
C46 0.086(11) 0.033(7) 0.075(9) -0.003(6) -0.053(9) 0.009(7)
C47 0.069(9) 0.031(6) 0.068(8) -0.005(5) -0.045(8) 0.019(5)
C48 0.093(12) 0.037(7) 0.100(12) 0.006(7) -0.072(11) 0.008(7)
C49 0.106(14) 0.036(8) 0.107(11) 0.001(7) -0.075(11) 0.002(8)
C50 0.143(17) 0.027(7) 0.107(14) 0.002(7) -0.064(14) -0.013(8)
C51 0.137(15) 0.024(7) 0.087(12) -0.002(6) -0.057(12) -0.007(7)
C52 0.107(12) 0.023(6) 0.075(10) 0.011(5) -0.044(10) 0.000(6)
C53 0.103(13) 0.025(7) 0.090(12) 0.017(6) -0.040(11) 0.001(7)
C54 0.117(15) 0.027(7) 0.098(12) 0.021(7) -0.042(12) 0.000(7)
C55 0.114(13) 0.096(15) 0.071(9) 0.011(8) -0.020(8) 0.041(12)
C56 0.109(14) 0.103(16) 0.076(9) 0.027(9) -0.014(8) 0.044(13)
C57 0.074(8) 0.044(8) 0.065(7) 0.005(6) -0.029(6) 0.007(7)
C58 0.070(9) 0.029(7) 0.068(8) 0.003(6) -0.031(6) 0.007(6)
C59 0.070(9) 0.044(8) 0.069(8) -0.003(6) -0.037(6) 0.007(7)
C60 0.071(8) 0.045(7) 0.065(8) 0.009(6) -0.025(6) 0.012(6)
C61 0.066(8) 0.031(6) 0.053(7) 0.002(5) -0.027(5) -0.001(5)
C62 0.077(8) 0.046(7) 0.065(8) 0.007(6) -0.021(6) 0.002(6)
C63 0.077(9) 0.040(7) 0.059(8) 0.010(6) -0.041(6) -0.005(6)
C64 0.063(8) 0.044(7) 0.054(7) 0.008(6) -0.044(5) -0.010(6)
C65 0.079(9) 0.034(6) 0.048(7) 0.005(5) -0.034(6) -0.003(5)
C66 0.130(13) 0.075(11) 0.100(15) 0.041(11) 0.015(12) 0.038(11)
C67 0.131(14) 0.070(12) 0.098(14) 0.040(11) 0.013(12) 0.036(11)
C68 0.118(14) 0.083(14) 0.116(13) 0.035(12) 0.024(11) 0.009(11)
C69 0.096(11) 0.086(14) 0.104(13) 0.041(11) 0.005(10) 0.021(10)
C70 0.083(9) 0.056(10) 0.082(9) 0.020(8) -0.011(7) 0.003(7)
C71 0.108(13) 0.098(15) 0.103(13) 0.050(13) 0.010(10) 0.026(12)
C72 0.138(13) 0.088(16) 0.137(16) 0.051(14) 0.039(12) 0.023(12)
N5 0.111(11) 0.043(6) 0.092(10) -0.007(6) -0.001(8) 0.008(6)
N6 0.073(9) 0.044(6) 0.119(9) 0.017(6) -0.067(7) -0.026(5)
N7 0.111(9) 0.036(7) 0.087(8) -0.006(6) -0.005(7) 0.012(6)
N8 0.073(7) 0.043(7) 0.069(7) -0.011(5) -0.046(5) 0.012(5)
N9 0.067(7) 0.036(6) 0.058(6) -0.003(5) -0.042(5) -0.002(5)
N10 0.079(8) 0.040(6) 0.053(6) -0.004(5) -0.038(5) 0.013(5)
N11 0.073(10) 0.053(9) 0.138(12) 0.001(9) -0.069(8) -0.014(8)
N13 0.093(9) 0.022(5) 0.062(7) -0.007(4) -0.051(7) 0.000(5)
N12 0.094(9) 0.037(6) 0.046(6) -0.004(5) -0.042(5) -0.014(6)
N15 0.070(8) 0.030(5) 0.052(7) -0.004(4) -0.025(6) 0.009(5)
N14 0.068(8) 0.021(5) 0.068(7) -0.004(5) -0.050(7) 0.011(5)
N16 0.087(9) 0.024(5) 0.051(7) 0.002(4) -0.040(7) 0.001(5)
N17 0.084(9) 0.037(6) 0.081(7) -0.011(5) -0.053(7) 0.007(5)
N19 0.078(8) 0.052(7) 0.064(6) 0.004(5) -0.038(5) 0.021(6)
N18 0.108(12) 0.029(6) 0.087(10) 0.008(6) -0.029(9) -0.004(7)
N20 0.064(7) 0.037(6) 0.052(6) 0.005(5) -0.036(5) 0.005(5)
N21 0.071(8) 0.043(7) 0.058(7) 0.005(5) -0.023(5) 0.004(6)
N24 0.108(9) 0.041(8) 0.088(8) 0.008(6) 0.005(7) -0.010(6)
N23 0.095(10) 0.036(7) 0.056(8) 0.010(6) -0.029(6) 0.004(6)
N22 0.077(8) 0.049(7) 0.070(8) 0.016(6) -0.020(6) 0.009(6)
C100 0.108(17) 0.16(2) 0.085(15) -0.023(14) -0.026(13) 0.043(16)
C101 0.108(18) 0.16(2) 0.087(17) -0.045(15) -0.007(14) 0.045(16)
Cl1 0.138(14) 0.25(2) 0.089(10) -0.037(11) -0.022(9) 0.091(14)
Cl2 0.112(12) 0.24(3) 0.102(12) -0.079(14) -0.013(10) 0.020(14)
C102 0.119(19) 0.12(3) 0.19(2) 0.00(2) -0.016(15) -0.010(18)
C103 0.122(18) 0.12(3) 0.18(3) -0.02(2) -0.024(15) -0.010(16)
Cl3 0.131(17) 0.12(2) 0.19(2) 0.009(15) -0.019(14) 0.034(15)
Cl4 0.106(10) 0.092(9) 0.048(6) 0.001(5) -0.001(5) -0.002(7)
C73 0.072(11) 0.066(11) 0.059(11) 0.004(8) 0.001(8) 0.014(8)
C74 0.070(15) 0.076(16) 0.062(10) 0.009(9) 0.009(9) 0.017(13)
C75 0.069(14) 0.070(14) 0.049(10) 0.012(10) 0.006(9) 0.015(12)
C76 0.084(13) 0.108(12) 0.050(13) -0.001(9) 0.009(10) 0.028(9)
C77 0.091(15) 0.132(17) 0.047(14) -0.024(12) -0.001(12) 0.047(12)
C78 0.093(17) 0.139(17) 0.066(16) -0.028(12) -0.013(14) 0.044(12)
C79 0.087(18) 0.140(17) 0.068(17) -0.030(12) -0.031(15) 0.036(13)
C80 0.076(17) 0.119(15) 0.061(17) -0.021(12) -0.020(14) 0.024(12)
C81 0.090(17) 0.114(13) 0.061(18) -0.004(11) -0.025(15) 0.018(11)
C82 0.092(19) 0.066(11) 0.083(17) 0.001(9) -0.011(15) 0.014(9)
C83 0.12(3) 0.067(13) 0.12(3) 0.004(13) 0.02(2) 0.009(13)
C84 0.13(3) 0.069(14) 0.15(3) 0.002(14) 0.04(3) 0.010(14)
C85 0.12(3) 0.067(16) 0.14(3) -0.001(15) 0.03(3) 0.007(14)
C86 0.11(3) 0.067(15) 0.12(3) -0.007(15) 0.01(2) 0.005(14)
C87 0.10(2) 0.064(15) 0.10(2) -0.004(13) 0.00(2) 0.008(13)
C88 0.18(4) 0.10(3) 0.18(5) 0.00(3) 0.07(4) 0.03(2)
C89 0.057(13) 0.059(14) 0.041(11) 0.008(9) 0.000(9) 0.001(11)
C90 0.064(14) 0.091(19) 0.048(11) 0.028(12) 0.005(9) 0.013(14)
C93 0.15(3) 0.16(2) 0.096(18) 0.055(18) 0.012(18) 0.05(2)
C94 0.17(4) 0.16(2) 0.13(3) 0.05(2) 0.01(3) 0.06(3)
C96 0.070(13) 0.084(14) 0.079(15) -0.011(11) 0.005(11) 0.017(10)
C97 0.104(19) 0.12(3) 0.124(19) -0.004(17) -0.029(16) 0.012(18)
C98 0.096(19) 0.06(3) 0.18(4) 0.00(3) -0.026(18) 0.018(17)
C99 0.10(3) 0.14(2) 0.08(3) -0.029(17) -0.05(3) 0.033(16)
O1 0.065(14) 0.10(2) 0.040(11) 0.026(11) 0.001(9) 0.013(13)
O2 0.088(14) 0.13(2) 0.068(14) 0.028(14) 0.004(11) 0.040(14)
O3 0.11(2) 0.092(12) 0.073(15) 0.029(10) 0.022(13) 0.044(11)
O4 0.088(11) 0.080(16) 0.080(16) 0.014(12) 0.017(10) 0.026(10)
O5 0.073(14) 0.082(15) 0.095(15) -0.002(12) -0.009(12) 0.009(11)
O6 0.070(14) 0.082(13) 0.038(11) -0.022(9) 0.003(10) 0.015(10)
S1 0.088(7) 0.081(6) 0.053(5) 0.021(4) 0.012(4) 0.032(5)
N25 0.076(11) 0.069(12) 0.056(8) 0.013(7) 0.005(7) 0.017(9)
C90A 0.100(16) 0.085(13) 0.095(14) 0.021(10) 0.000(12) 0.021(11)
C91A 0.16(2) 0.114(14) 0.117(18) 0.014(12) 0.029(15) 0.029(12)
C92A 0.17(2) 0.131(16) 0.107(15) 0.003(12) 0.032(15) 0.017(14)
C93A 0.058(11) 0.112(14) 0.050(9) -0.004(9) -0.009(7) 0.022(9)
C94A 0.18(2) 0.151(16) 0.16(2) 0.012(12) 0.051(18) 0.015(12)
C95A 0.19(2) 0.159(18) 0.133(16) -0.001(13) 0.033(16) -0.008(15)
C116 0.17(3) 0.18(2) 0.13(2) -0.002(17) -0.01(2) 0.01(2)
C117 0.23(4) 0.21(3) 0.13(2) 0.005(19) -0.009(19) 0.01(3)
Cl17 0.120(13) 0.168(16) 0.101(10) 0.004(10) -0.015(9) -0.002(11)
Cl18 0.30(4) 0.36(5) 0.27(4) 0.04(4) -0.08(3) 0.05(4)
C126 0.12(2) 0.10(3) 0.15(3) -0.01(2) -0.03(2) 0.01(2)
C127 0.11(3) 0.10(3) 0.16(3) -0.02(2) -0.03(3) 0.01(2)
Cl27 0.12(3) 0.09(3) 0.16(3) -0.01(2) -0.03(2) 0.01(2)
Cl28 0.16(4) 0.11(3) 0.14(4) -0.03(2) -0.02(3) 0.00(3)
C106 0.19(4) 0.21(3) 0.20(3) 0.06(2) 0.06(3) -0.02(3)
C107 0.18(4) 0.20(2) 0.24(4) 0.05(2) 0.05(3) 0.00(2)
Cl7 0.084(9) 0.156(15) 0.110(11) 0.028(10) 0.008(8) 0.001(9)
Cl8 0.21(3) 0.20(2) 0.16(2) 0.052(17) 0.002(19) -0.005(19)
C110 0.21(5) 0.28(4) 0.28(4) 0.02(3) 0.08(3) 0.01(3)
C111 0.21(5) 0.28(4) 0.27(3) 0.02(3) 0.07(3) 0.01(3)
Cl11 0.128(19) 0.26(3) 0.17(2) 0.05(2) 0.031(17) 0.05(2)
Cl12 0.27(4) 0.31(4) 0.29(3) 0.05(3) 0.10(3) 0.04(4)
C108 0.13(2) 0.33(4) 0.17(3) -0.03(3) 0.03(2) -0.02(2)
C109 0.15(3) 0.32(3) 0.18(3) -0.03(2) 0.02(2) -0.02(2)
Cl9 0.13(2) 0.26(3) 0.16(3) -0.070(19) 0.07(2) -0.017(18)
Cl10 0.16(2) 0.38(5) 0.20(2) -0.09(3) -0.02(2) 0.08(3)
C104 0.15(3) 0.34(3) 0.17(4) -0.04(2) 0.01(2) 0.01(2)
C105 0.16(3) 0.35(3) 0.15(3) -0.04(2) 0.02(3) 0.03(2)
Cl5 0.117(17) 0.35(4) 0.104(16) 0.00(2) -0.035(14) 0.01(2)
Cl6 0.132(17) 0.35(3) 0.136(17) -0.041(19) -0.009(13) 0.057(18)
C112 0.44(6) 0.39(5) 0.28(5) 0.12(4) 0.16(4) 0.13(5)
C113 0.47(7) 0.40(6) 0.29(5) 0.13(4) 0.19(5) 0.15(5)
Cl13 0.40(6) 0.29(4) 0.19(3) 0.04(3) 0.10(3) 0.09(4)
Cl14 0.71(9) 0.41(5) 0.26(4) 0.16(4) 0.26(5) 0.17(5)
C114 0.20(5) 0.26(6) 0.38(6) 0.14(4) 0.18(4) -0.01(4)
C115 0.22(5) 0.26(6) 0.39(5) 0.15(5) 0.16(4) -0.01(4)
Cl15 0.18(4) 0.31(5) 0.40(5) 0.11(4) 0.15(4) 0.03(3)
Cl16 0.35(6) 0.23(4) 0.38(5) 0.17(4) 0.14(4) 0.00(4)
C118 0.27(5) 0.23(6) 0.14(3) 0.01(3) 0.02(3) -0.06(4)
C119 0.26(4) 0.23(6) 0.14(3) 0.00(3) 0.02(3) -0.07(4)
Cl19 0.31(5) 0.31(5) 0.12(2) -0.01(3) 0.00(3) 0.00(4)
Cl20 0.26(4) 0.15(3) 0.130(19) 0.007(17) 0.02(2) -0.05(2)
C120 0.16(5) 0.18(4) 0.18(4) 0.02(3) 0.01(3) -0.14(4)
C121 0.15(5) 0.18(4) 0.16(4) 0.02(3) -0.02(4) -0.14(4)
Cl21 0.22(5) 0.23(4) 0.19(4) 0.03(3) -0.01(3) -0.11(4)
Cl22 0.28(5) 0.16(3) 0.11(2) -0.010(19) -0.06(3) -0.13(3)
C122 0.24(6) 0.49(7) 0.31(6) 0.15(6) 0.02(5) 0.10(6)
C123 0.24(6) 0.49(7) 0.32(6) 0.15(6) 0.02(5) 0.10(6)
Cl23 0.25(6) 0.50(8) 0.31(6) 0.15(6) 0.02(5) 0.10(6)
Cl24 0.24(6) 0.49(8) 0.32(6) 0.15(6) 0.02(5) 0.10(6)
Zn1 0.0940(19) 0.0291(11) 0.0546(13) -0.0006(9) -0.0398(12) 0.0002(11)
Zn2A 0.088(5) 0.026(3) 0.069(3) -0.008(2) -0.019(3) 0.013(3)
Zn2B 0.098(6) 0.033(4) 0.116(7) -0.008(4) -0.007(4) 0.005(4)
Zn3A 0.048(3) 0.035(3) 0.063(3) 0.014(2) -0.033(2) -0.009(2)
Zn3B 0.055(3) 0.059(3) 0.083(4) 0.016(3) -0.040(3) -0.017(2)
Zn4 0.105(2) 0.0241(11) 0.0587(13) -0.0037(9) -0.0615(13) 0.0063(11)
Zn5A 0.069(2) 0.0406(15) 0.066(2) -0.0158(14) -0.0488(15) 0.0134(14)
Zn5B 0.069(2) 0.0406(15) 0.066(2) -0.0158(14) -0.0488(15) 0.0134(14)
Zn6A 0.097(3) 0.0268(15) 0.060(2) 0.0078(14) -0.0084(19) -0.0084(16)
Zn6B 0.104(7) 0.036(6) 0.086(6) 0.005(5) -0.001(5) -0.011(5)
I1 0.0997(11) 0.0518(7) 0.0738(8) 0.0079(6) -0.0443(7) -0.0288(7)
I2A 0.100(4) 0.022(2) 0.075(3) 0.0034(16) -0.021(2) -0.0033(17)
I2B 0.126(5) 0.031(3) 0.097(3) -0.001(2) -0.008(3) 0.020(2)
I3A 0.099(2) 0.0371(14) 0.0630(14) 0.0071(10) -0.0111(14) 0.0190(14)
I3B 0.149(5) 0.044(2) 0.157(5) 0.019(3) 0.019(4) 0.024(3)
I4A 0.101(2) 0.0335(12) 0.094(2) -0.0214(13) 0.0064(16) -0.0042(13)
I4B 0.111(4) 0.056(3) 0.175(5) -0.041(3) 0.033(3) -0.012(2)
I5A 0.072(2) 0.118(3) 0.067(2) 0.039(2) -0.0080(17) -0.013(2)
I5B 0.091(3) 0.176(5) 0.091(2) 0.023(3) -0.0144(19) -0.047(3)
I6A 0.099(3) 0.0387(14) 0.109(3) -0.0072(16) -0.047(2) 0.0166(15)
I6B 0.085(4) 0.0365(17) 0.101(4) 0.006(2) -0.054(3) 0.002(2)
I6C 0.062(7) 0.041(5) 0.091(7) 0.017(5) -0.068(4) -0.010(4)
I7 0.1098(13) 0.0681(9) 0.0874(10) -0.0153(7) -0.0468(9) 0.0333(9)
I8A 0.135(3) 0.0395(12) 0.0731(17) 0.0066(11) -0.0312(14) -0.0208(15)
I8B 0.094(5) 0.019(4) 0.079(6) 0.013(4) -0.052(4) -0.004(3)
I9A 0.094(2) 0.098(3) 0.090(2) -0.041(2) -0.0374(15) 0.041(2)
I9B 0.078(7) 0.104(7) 0.107(7) -0.045(5) -0.045(5) 0.022(5)
I9C 0.055(5) 0.087(5) 0.085(5) -0.046(4) -0.025(3) 0.025(4)
I10A 0.145(2) 0.0447(9) 0.1136(17) 0.0073(11) -0.0797(16) -0.0201(11)
I10B 0.145(2) 0.0447(9) 0.1136(17) 0.0073(11) -0.0797(16) -0.0201(11)
I10C 0.145(2) 0.0447(9) 0.1136(17) 0.0073(11) -0.0797(16) -0.0201(11)
I11A 0.152(3) 0.0430(12) 0.0707(14) -0.0041(9) -0.0319(15) -0.0194(14)
I11B 0.153(7) 0.048(4) 0.096(6) -0.002(4) -0.020(5) -0.019(4)
I11C 0.137(10) 0.013(7) 0.075(8) -0.002(6) -0.003(7) -0.031(7)
I12A 0.106(2) 0.0360(14) 0.073(2) 0.0165(14) 0.0080(17) 0.0144(13)
I12B 0.134(6) 0.038(3) 0.087(5) 0.016(4) 0.005(4) 0.014(3)
I12C 0.080(9) 0.016(6) 0.078(7) 0.027(5) 0.030(6) 0.009(6)
loop_
_atom_type_symbol
_atom_type_description
_atom_type_scat_dispersion_real
_atom_type_scat_dispersion_imag
_atom_type_scat_source
C C 0.0181 0.0091 'International Tables Vol C Tables 4.2.6.8 and 6.1.1.4'
H H 0.0000 0.0000 'International Tables Vol C Tables 4.2.6.8 and 6.1.1.4'
N N 0.0311 0.0180 'International Tables Vol C Tables 4.2.6.8 and 6.1.1.4'
O O 0.0492 0.0322 'International Tables Vol C Tables 4.2.6.8 and 6.1.1.4'
Zn Zn -1.5491 0.6778 'International Tables Vol C Tables 4.2.6.8 and 6.1.1.4'
I I -0.3257 6.8362 'International Tables Vol C Tables 4.2.6.8 and 6.1.1.4'
S S 0.3331 0.5567 'International Tables Vol C Tables 4.2.6.8 and 6.1.1.4'
Cl Cl 0.3639 0.7018 'International Tables Vol C Tables 4.2.6.8 and 6.1.1.4'
loop_
_geom_angle_atom_site_label_1
_geom_angle_atom_site_label_2
_geom_angle_atom_site_label_3
_geom_angle
_geom_angle_site_symmetry_1
_geom_angle_site_symmetry_3
C2 C1 N1 120.0 . .
C2 C1 H1 120.0 . .
N1 C1 H1 120.0 . .
C3 C2 C1 120.0 . .
C3 C2 H2 120.0 . .
C1 C2 H2 120.0 . .
C2 C3 C4 120.0 . .
C2 C3 C6 119.5(8) . .
C4 C3 C6 120.5(8) . .
C5 C4 C3 120.0 . .
C5 C4 H4 120.0 . .
C3 C4 H4 120.0 . .
C4 C5 N1 120.0 . .
C4 C5 H5 120.0 . .
N1 C5 H5 120.0 . .
C5 N1 C1 120.0 . .
C5 N1 Zn1 120.2(5) . .
C1 N1 Zn1 119.0(6) . .
N4 C6 N2 125.6(13) . .
N4 C6 C3 119.0(12) . .
N2 C6 C3 115.4(11) . .
N3 C7 N2 124.8(12) . .
N3 C7 C11 119.7(12) . .
N2 C7 C11 115.5(12) . .
N4 C8 N3 126.9(13) . .
N4 C8 C16 116.4(12) . .
N3 C8 C16 116.7(12) . .
C6 N2 C7 114.0(12) . .
C7 N3 C8 114.0(12) . .
C8 N4 C6 114.4(12) . .
N5 C9 C10 123.5(16) . .
N5 C9 H9 118.2 . .
C10 C9 H9 118.2 . .
C11 C10 C9 117.1(16) . .
C11 C10 H10 121.5 . .
C9 C10 H10 121.5 . .
C12 C11 C10 119.3(14) . .
C12 C11 C7 119.2(13) . .
C10 C11 C7 121.5(14) . .
C11 C12 C13 120.0(16) . .
C11 C12 H12 120.0 . .
C13 C12 H12 120.0 . .
N5 C13 C12 121.7(17) . .
N5 C13 H13 119.1 . .
C12 C13 H13 119.1 . .
N6 C14 C15 122.4(16) . .
N6 C14 H14 118.8 . .
C15 C14 H14 118.8 . .
C16 C15 C14 118.4(15) . .
C16 C15 H15 120.8 . .
C14 C15 H15 120.8 . .
C15 C16 C17 119.8(14) . .
C15 C16 C8 118.9(13) . .
C17 C16 C8 121.1(13) . .
C16 C17 C18 118.2(15) . .
C16 C17 H17 120.9 . .
C18 C17 H17 120.9 . .
N6 C18 C17 122.8(15) . .
N6 C18 H18 118.6 . .
C17 C18 H18 118.6 . .
N7 C19 C20 123.0(18) . .
N7 C19 H19 118.5 . .
C20 C19 H19 118.5 . .
C19 C20 C21 119.4(19) . .
C19 C20 H20 120.3 . .
C21 C20 H20 120.3 . .
C22 C21 C20 115.7(17) . .
C22 C21 C24 121.2(15) . .
C20 C21 C24 122.5(17) . .
C21 C22 C23 121.3(17) . .
C21 C22 H22 119.4 . .
C23 C22 H22 119.4 . .
N7 C23 C22 122.0(19) . .
N7 C23 H23 119.0 . .
C22 C23 H23 119.0 . .
N8 C24 N10 127.2(17) . .
N8 C24 C21 116.2(14) . .
N10 C24 C21 116.5(16) . .
N9 C25 N8 124.7(16) . .
N9 C25 C29 118.6(17) . .
N8 C25 C29 116.7(14) . .
N10 C26 N9 127.3(14) . .
N10 C26 C34 115.8(14) . .
N9 C26 C34 116.8(15) . .
N11 C27 C28 121.9(19) . .
N11 C27 H27 119.0 . .
C28 C27 H27 119.0 . .
C29 C28 C27 120.6(16) . .
C29 C28 H28 119.7 . .
C27 C28 H28 119.7 . .
C28 C29 C30 117.6(17) . .
C28 C29 C25 122.6(14) . .
C30 C29 C25 119.1(18) . .
C29 C30 C31 117.7(19) . .
C29 C30 H30 121.1 . .
C31 C30 H30 121.1 . .
N11 C31 C30 124.1(19) . .
N11 C31 H31 117.9 . .
C30 C31 H31 117.9 . .
N12 C32 C33 122.2(16) . .
N12 C32 H32 118.9 . .
C33 C32 H32 118.9 . .
C32 C33 C34 120.2(17) . .
C32 C33 H33 119.9 . .
C34 C33 H33 119.9 . .
C35 C34 C33 117.3(14) . .
C35 C34 C26 123.4(14) . .
C33 C34 C26 119.1(15) . .
C34 C35 C36 121.2(16) . .
C34 C35 H35 119.4 . .
C36 C35 H35 119.4 . .
N12 C36 C35 120.6(16) . .
N12 C36 H36 119.7 . .
C35 C36 H36 119.7 . .
N13 C37 C38 125.6(13) . .
N13 C37 H37 117.2 . .
C38 C37 H37 117.2 . .
C37 C38 C39 119.5(12) . .
C37 C38 H38 120.3 . .
C39 C38 H38 120.3 . .
C40 C39 C38 116.1(12) . .
C40 C39 C42 120.7(12) . .
C38 C39 C42 122.6(12) . .
C39 C40 C41 120.0(13) . .
C39 C40 H40 120.0 . .
C41 C40 H40 120.0 . .
N13 C41 C40 124.0(13) . .
N13 C41 H41 118.0 . .
C40 C41 H41 118.0 . .
N14 C42 N16 124.4(12) . .
N14 C42 C39 118.7(12) . .
N16 C42 C39 116.8(12) . .
N15 C43 N14 125.8(14) . .
N15 C43 C47 119.0(12) . .
N14 C43 C47 114.9(13) . .
N16 C44 N15 126.7(14) . .
N16 C44 C52 114.4(13) . .
N15 C44 C52 118.1(13) . .
N17 C45 C46 122.6(14) . .
N17 C45 H45 118.7 . .
C46 C45 H45 118.7 . .
C45 C46 C47 119.5(15) . .
C45 C46 H46 120.2 . .
C47 C46 H46 120.2 . .
C46 C47 C48 117.6(13) . .
C46 C47 C43 121.4(13) . .
C48 C47 C43 121.0(12) . .
C49 C48 C47 119.7(14) . .
C49 C48 H48 120.1 . .
C47 C48 H48 120.1 . .
N17 C49 C48 122.9(15) . .
N17 C49 H49 118.6 . .
C48 C49 H49 118.6 . .
N18 C50 C51 120.9(16) . .
N18 C50 H50 119.5 . .
C51 C50 H50 119.5 . .
C50 C51 C52 121.7(16) . .
C50 C51 H51 119.2 . .
C52 C51 H51 119.2 . .
C53 C52 C51 117.4(14) . .
C53 C52 C44 122.0(14) . .
C51 C52 C44 120.3(13) . .
C52 C53 C54 118.5(15) . .
C52 C53 H53 120.7 . .
C54 C53 H53 120.7 . .
N18 C54 C53 123.0(15) . .
N18 C54 H54 118.5 . .
C53 C54 H54 118.5 . .
N19 C55 C56 123.6(17) . .
N19 C55 H55 118.2 . .
C56 C55 H55 118.2 . .
C55 C56 C57 117.4(18) . .
C55 C56 H56 121.3 . .
C57 C56 H56 121.3 . .
C58 C57 C56 119.3(16) . .
C58 C57 C60 121.2(14) . .
C56 C57 C60 119.4(17) . .
C57 C58 C59 119.3(14) . .
C57 C58 H58 120.3 . .
C59 C58 H58 120.3 . .
N19 C59 C58 121.4(16) . .
N19 C59 H59 119.3 . .
C58 C59 H59 119.3 . .
N22 C60 N20 127.3(15) . .
N22 C60 C57 115.3(14) . .
N20 C60 C57 117.4(16) . .
N21 C61 N20 127.3(14) . .
N21 C61 C65 116.5(14) . .
N20 C61 C65 116.2(15) . .
N22 C62 N21 125.2(17) . .
N22 C62 C70 118.8(15) . .
N21 C62 C70 116.0(16) . .
N23 C63 C64 121.9(16) . .
N23 C63 H63 119.1 . .
C64 C63 H63 119.1 . .
C65 C64 C63 118.6(16) . .
C65 C64 H64 120.7 . .
C63 C64 H64 120.7 . .
C64 C65 C66 119.2(14) . .
C64 C65 C61 120.8(14) . .
C66 C65 C61 120.0(16) . .
C65 C66 C67 118.9(18) . .
C65 C66 H66 120.5 . .
C67 C66 H66 120.5 . .
N23 C67 C66 122.8(18) . .
N23 C67 H67 118.6 . .
C66 C67 H67 118.6 . .
N24 C68 C69 122(2) . .
N24 C68 H68 119.1 . .
C69 C68 H68 119.1 . .
C68 C69 C70 120.0(18) . .
C68 C69 H69 120.0 . .
C70 C69 H69 120.0 . .
C71 C70 C69 118.2(17) . .
C71 C70 C62 119.7(17) . .
C69 C70 C62 122.1(16) . .
C72 C71 C70 117.8(19) . .
C72 C71 H71 121.1 . .
C70 C71 H71 121.1 . .
N24 C72 C71 124.4(19) . .
N24 C72 H72 117.8 . .
C71 C72 H72 117.8 . .
C13 N5 C9 118.3(15) . .
C13 N5 Zn2A 115.1(13) . .
C9 N5 Zn2A 126.6(12) . .
C13 N5 Zn2B 129.6(14) . .
C9 N5 Zn2B 111.9(12) . .
Zn2A N5 Zn2B 15.4(3) . .
C18 N6 C14 118.2(14) . .
C18 N6 Zn3A 126.4(11) . .
C14 N6 Zn3A 114.2(12) . .
C18 N6 Zn3B 112.8(13) . .
C14 N6 Zn3B 127.7(12) . .
Zn3A N6 Zn3B 25.2(3) . .
C23 N7 C19 116.6(17) . .
C23 N7 Zn2A 122.6(15) . .
C19 N7 Zn2A 120.7(13) . .
C23 N7 Zn2B 110.6(15) . .
C19 N7 Zn2B 131.9(13) . .
Zn2A N7 Zn2B 15.0(3) . .
C24 N8 C25 113.7(14) . .
C25 N9 C26 114.9(15) . .
C26 N10 C24 111.9(15) . .
C31 N11 C27 116.7(17) . .
C31 N11 Zn3A 106.4(13) . 3_455
C27 N11 Zn3A 136.8(18) . 3_455
C31 N11 Zn3B 129.3(13) . 3_455
C27 N11 Zn3B 113.9(16) . 3_455
Zn3A N11 Zn3B 23.8(3) 3_455 3_455
C41 N13 C37 114.3(12) . .
C41 N13 Zn4 119.6(10) . .
C37 N13 Zn4 125.2(9) . .
C32 N12 C36 118.3(13) . .
C32 N12 Zn4 120.2(11) . .
C36 N12 Zn4 120.7(12) . .
C43 N15 C44 112.9(12) . .
C42 N14 C43 115.0(13) . .
C44 N16 C42 114.6(13) . .
C49 N17 C45 117.6(13) . .
C49 N17 Zn5A 122.5(11) . .
C45 N17 Zn5A 119.8(10) . .
C49 N17 Zn5B 131.2(14) . .
C45 N17 Zn5B 105.3(13) . .
Zn5A N17 Zn5B 24.7(6) . .
C55 N19 C59 118.0(15) . .
C55 N19 Zn5A 116.3(11) . .
C59 N19 Zn5A 125.0(13) . .
C55 N19 Zn5B 133.9(12) . .
C59 N19 Zn5B 105.0(13) . .
Zn5A N19 Zn5B 20.9(5) . .
C50 N18 C54 118.0(14) . .
C50 N18 Zn6A 115.9(12) . 3_445
C54 N18 Zn6A 125.8(11) . 3_445
C50 N18 Zn6B 138.4(14) . 3_445
C54 N18 Zn6B 103.3(12) . 3_445
Zn6A N18 Zn6B 22.5(5) 3_445 3_445
C61 N20 C60 110.9(14) . .
C61 N21 C62 114.9(15) . .
C68 N24 C72 117.6(18) . .
C68 N24 Zn6A 123.0(15) . .
C72 N24 Zn6A 119.3(14) . .
C68 N24 Zn6B 106.3(16) . .
C72 N24 Zn6B 134.1(15) . .
Zn6A N24 Zn6B 22.4(5) . .
C67 N23 C63 118.0(14) . .
C67 N23 Zn1 118.1(12) . 3_556
C63 N23 Zn1 123.9(12) . 3_556
C62 N22 C60 114.4(15) . .
C101 C100 Cl1 99(2) . .
C101 C100 H10A 111.9 . .
Cl1 C100 H10A 111.9 . .
C101 C100 H10B 111.9 . .
Cl1 C100 H10B 111.9 . .
H10A C100 H10B 109.6 . .
C100 C101 Cl2 117(3) . .
C100 C101 H10C 108.0 . .
Cl2 C101 H10C 108.0 . .
C100 C101 H10D 108.0 . .
Cl2 C101 H10D 108.0 . .
H10C C101 H10D 107.2 . .
C103 C102 Cl3 99(3) . .
C103 C102 H10E 112.0 . .
Cl3 C102 H10E 112.0 . .
C103 C102 H10F 112.0 . .
Cl3 C102 H10F 112.0 . .
H10E C102 H10F 109.6 . .
C102 C103 Cl4 122(4) . .
C102 C103 H10G 106.8 . .
Cl4 C103 H10G 106.8 . .
C102 C103 H10H 106.8 . .
Cl4 C103 H10H 106.8 . .
H10G C103 H10H 106.7 . .
N25 C73 C74 86(3) . .
N25 C73 C96 109(4) . .
C74 C73 C96 122(4) . .
N25 C73 C82 118(3) . .
C74 C73 C82 105(4) . .
C96 C73 C82 115(4) . .
C73 C74 C75 86(4) . .
C73 C74 H74A 114.3 . .
C75 C74 H74A 114.3 . .
C73 C74 H74B 114.3 . .
C75 C74 H74B 114.3 . .
H74A C74 H74B 111.5 . .
N25 C75 C89 133(4) . .
N25 C75 C74 89(3) . .
C89 C75 C74 137(4) . .
C81 C76 C77 122(4) . .
C81 C76 S1 119(3) . .
C77 C76 S1 119(3) . .
C78 C77 C76 122(4) . .
C78 C77 H77 118.9 . .
C76 C77 H77 118.9 . .
C77 C78 C79 118(4) . .
C77 C78 H78 121.2 . .
C79 C78 H78 121.2 . .
C99 C79 C78 123(5) . .
C99 C79 C80 112(6) . .
C78 C79 C80 124(4) . .
C81 C80 C79 116(4) . .
C81 C80 H80 122.2 . .
C79 C80 H80 122.2 . .
C76 C81 C80 118(4) . .
C76 C81 H81 121.1 . .
C80 C81 H81 121.1 . .
C87 C82 C83 123(3) . .
C87 C82 C73 120(4) . .
C83 C82 C73 117(3) . .
C84 C83 C82 122(3) . .
C84 C83 C88 128(4) . .
C82 C83 C88 111(3) . .
C83 C84 C85 117(4) . .
C83 C84 H84 121.5 . .
C85 C84 H84 121.5 . .
C84 C85 C86 125(4) . .
C84 C85 H85 117.4 . .
C86 C85 H85 117.4 . .
C87 C86 C85 115(4) . .
C87 C86 H86 122.4 . .
C85 C86 H86 122.4 . .
C82 C87 C86 117(4) . .
C82 C87 H87 121.3 . .
C86 C87 H87 121.3 . .
C83 C88 H88A 109.5 . .
C83 C88 H88B 109.5 . .
H88A C88 H88B 109.5 . .
C83 C88 H88C 109.5 . .
H88A C88 H88C 109.5 . .
H88B C88 H88C 109.5 . .
C75 C89 C90 115(3) . .
C75 C89 H89 122.3 . .
C90 C89 H89 122.3 . .
O1 C90 O2 120(3) . .
O1 C90 C89 131(3) . .
O2 C90 C89 109(3) . .
O2 C93 C94 110(5) . .
O2 C93 H93A 109.7 . .
C94 C93 H93A 109.7 . .
O2 C93 H93B 109.7 . .
C94 C93 H93B 109.7 . .
H93A C93 H93B 108.2 . .
C93 C94 H94A 109.5 . .
C93 C94 H94B 109.5 . .
H94A C94 H94B 109.5 . .
C93 C94 H94C 109.5 . .
H94A C94 H94C 109.5 . .
H94B C94 H94C 109.5 . .
O6 C96 O5 117(4) . .
O6 C96 C73 124(4) . .
O5 C96 C73 118(4) . .
O5 C97 C98 119(5) . .
O5 C97 H97A 107.7 . .
C98 C97 H97A 107.7 . .
O5 C97 H97B 107.7 . .
C98 C97 H97B 107.7 . .
H97A C97 H97B 107.1 . .
C97 C98 H98A 109.5 . .
C97 C98 H98B 109.5 . .
H98A C98 H98B 109.5 . .
C97 C98 H98C 109.5 . .
H98A C98 H98C 109.5 . .
H98B C98 H98C 109.5 . .
C79 C99 H99A 109.5 . .
C79 C99 H99B 109.5 . .
H99A C99 H99B 109.5 . .
C79 C99 H99C 109.5 . .
H99A C99 H99C 109.5 . .
H99B C99 H99C 109.5 . .
C90 O2 C93 114(4) . .
C96 O5 C97 138(5) . .
O3 S1 O4 114(2) . .
O3 S1 N25 106.3(19) . .
O4 S1 N25 106(2) . .
O3 S1 C76 115(2) . .
O4 S1 C76 108(2) . .
N25 S1 C76 107(2) . .
C75 N25 C73 96(3) . .
C75 N25 S1 123(3) . .
C73 N25 S1 132(3) . .
C91A C90A C95A 103(2) . .
C91A C90A H90A 111.1 . .
C95A C90A H90A 111.1 . .
C91A C90A H90B 111.1 . .
C95A C90A H90B 111.1 . .
H90A C90A H90B 109.1 . .
C92A C91A C90A 111(2) . .
C92A C91A H91A 109.4 . .
C90A C91A H91A 109.4 . .
C92A C91A H91B 109.4 . .
C90A C91A H91B 109.4 . .
H91A C91A H91B 108.0 . .
C91A C92A C93A 111(2) . .
C91A C92A H92A 109.5 . .
C93A C92A H92A 109.5 . .
C91A C92A H92B 109.5 . .
C93A C92A H92B 109.5 . .
H92A C92A H92B 108.1 . .
C94A C93A C92A 105(2) . .
C94A C93A H93C 110.7 . .
C92A C93A H93C 110.7 . .
C94A C93A H93D 110.7 . .
C92A C93A H93D 110.7 . .
H93C C93A H93D 108.8 . .
C93A C94A C95A 115(3) . .
C93A C94A H94D 108.5 . .
C95A C94A H94D 108.5 . .
C93A C94A H94E 108.5 . .
C95A C94A H94E 108.5 . .
H94D C94A H94E 107.5 . .
C94A C95A C90A 99(2) . .
C94A C95A H95A 112.0 . .
C90A C95A H95A 112.0 . .
C94A C95A H95B 112.0 . .
C90A C95A H95B 112.0 . .
H95A C95A H95B 109.7 . .
C117 C116 Cl17 105(3) . .
C117 C116 H11A 110.8 . .
Cl17 C116 H11A 110.8 . .
C117 C116 H11B 110.8 . .
Cl17 C116 H11B 110.8 . .
H11A C116 H11B 108.9 . .
C116 C117 Cl18 123(4) . .
C116 C117 H11C 106.6 . .
Cl18 C117 H11C 106.6 . .
C116 C117 H11D 106.6 . .
Cl18 C117 H11D 106.6 . .
H11C C117 H11D 106.6 . .
C127 C126 Cl27 101(3) . .
C127 C126 H12D 111.6 . .
Cl27 C126 H12D 111.6 . .
C127 C126 H12E 111.6 . .
Cl27 C126 H12E 111.6 . .
H12D C126 H12E 109.4 . .
C126 C127 Cl28 124(4) . .
C126 C127 H12F 106.3 . .
Cl28 C127 H12F 106.3 . .
C126 C127 H12G 106.3 . .
Cl28 C127 H12G 106.3 . .
H12F C127 H12G 106.4 . .
C126 Cl27 I9B 74(7) . 3_444
C107 C106 Cl7 103(3) . .
C107 C106 H10I 111.2 . .
Cl7 C106 H10I 111.2 . .
C107 C106 H10J 111.2 . .
Cl7 C106 H10J 111.2 . .
H10I C106 H10J 109.1 . .
C106 C107 Cl8 124(4) . .
C106 C107 H10K 106.3 . .
Cl8 C107 H10K 106.3 . .
C106 C107 H10L 106.3 . .
Cl8 C107 H10L 106.3 . .
H10K C107 H10L 106.4 . .
C111 C110 Cl11 104(3) . .
C111 C110 H11E 110.9 . .
Cl11 C110 H11E 110.9 . .
C111 C110 H11F 110.9 . .
Cl11 C110 H11F 110.9 . .
H11E C110 H11F 108.9 . .
C110 C111 Cl12 129(4) . .
C110 C111 H11G 104.9 . .
Cl12 C111 H11G 104.9 . .
C110 C111 H11H 104.9 . .
Cl12 C111 H11H 104.9 . .
H11G C111 H11H 105.8 . .
C109 C108 Cl9 99(3) . .
C109 C108 H10M 111.9 . .
Cl9 C108 H10M 111.9 . .
C109 C108 H10N 111.9 . .
Cl9 C108 H10N 111.9 . .
H10M C108 H10N 109.6 . .
C108 C109 Cl10 123(4) . .
C108 C109 H10O 106.5 . .
Cl10 C109 H10O 106.5 . .
C108 C109 H10P 106.5 . .
Cl10 C109 H10P 106.5 . .
H10O C109 H10P 106.5 . .
C109 Cl10 Cl15 140(4) . 4_547
C105 C104 Cl5 100(3) . .
C105 C104 H10Q 111.7 . .
Cl5 C104 H10Q 111.7 . .
C105 C104 H10R 111.7 . .
Cl5 C104 H10R 111.7 . .
H10Q C104 H10R 109.5 . .
C104 C105 Cl6 122(4) . .
C104 C105 H10S 106.8 . .
Cl6 C105 H10S 106.8 . .
C104 C105 H10T 106.8 . .
Cl6 C105 H10T 106.8 . .
H10S C105 H10T 106.6 . .
C113 C112 Cl13 100(3) . .
C113 C112 H11I 111.8 . .
Cl13 C112 H11I 111.8 . .
C113 C112 H11J 111.8 . .
Cl13 C112 H11J 111.8 . .
H11I C112 H11J 109.5 . .
C112 C113 Cl14 124(4) . .
C112 C113 H11K 106.4 . .
Cl14 C113 H11K 106.4 . .
C112 C113 H11L 106.4 . .
Cl14 C113 H11L 106.4 . .
H11K C113 H11L 106.5 . .
C115 C114 Cl15 102(3) . .
C115 C114 H11M 111.4 . .
Cl15 C114 H11M 111.4 . .
C115 C114 H11N 111.4 . .
Cl15 C114 H11N 111.4 . .
H11M C114 H11N 109.3 . .
C114 C115 Cl16 126(4) . .
C114 C115 H11O 105.8 . .
Cl16 C115 H11O 105.8 . .
C114 C115 H11P 105.8 . .
Cl16 C115 H11P 105.8 . .
H11O C115 H11P 106.2 . .
C114 Cl15 Cl10 92(5) . 4_557
C119 C118 Cl19 101(3) . .
C119 C118 H11Q 111.6 . .
Cl19 C118 H11Q 111.6 . .
C119 C118 H11R 111.6 . .
Cl19 C118 H11R 111.6 . .
H11Q C118 H11R 109.4 . .
C118 C119 Cl20 127(4) . .
C118 C119 H11S 105.6 . .
Cl20 C119 H11S 105.6 . .
C118 C119 H11T 105.6 . .
Cl20 C119 H11T 105.6 . .
H11S C119 H11T 106.1 . .
C121 C120 Cl21 100(3) . .
C121 C120 H12H 111.7 . .
Cl21 C120 H12H 111.7 . .
C121 C120 H12I 111.7 . .
Cl21 C120 H12I 111.7 . .
H12H C120 H12I 109.5 . .
C120 C121 Cl22 126(4) . .
C120 C121 H12J 105.8 . .
Cl22 C121 H12J 105.8 . .
C120 C121 H12K 105.8 . .
Cl22 C121 H12K 105.8 . .
H12J C121 H12K 106.2 . .
C123 C122 Cl23 117(4) . .
C123 C122 H12L 108.1 . .
Cl23 C122 H12L 108.1 . .
C123 C122 H12M 108.1 . .
Cl23 C122 H12M 108.1 . .
H12L C122 H12M 107.3 . .
C122 C123 Cl24 115(4) . .
C122 C123 H12N 108.4 . .
Cl24 C123 H12N 108.4 . .
C122 C123 H12O 108.4 . .
Cl24 C123 H12O 108.4 . .
H12N C123 H12O 107.5 . .
N23 Zn1 N1 97.1(6) 3_444 .
N23 Zn1 I2A 111.0(5) 3_444 .
N1 Zn1 I2A 113.1(4) . .
N23 Zn1 I1 109.0(5) 3_444 .
N1 Zn1 I1 104.0(4) . .
I2A Zn1 I1 120.00(16) . .
N23 Zn1 I2B 103.8(5) 3_444 .
N1 Zn1 I2B 106.4(4) . .
I2A Zn1 I2B 11.45(18) . .
I1 Zn1 I2B 131.45(16) . .
Zn2B Zn2A N7 98(2) . .
Zn2B Zn2A N5 84(2) . .
N7 Zn2A N5 102.7(9) . .
Zn2B Zn2A I3B 124(3) . .
N7 Zn2A I3B 124.4(7) . .
N5 Zn2A I3B 115.4(6) . .
Zn2B Zn2A I3A 143(3) . .
N7 Zn2A I3A 112.9(7) . .
N5 Zn2A I3A 108.3(6) . .
I3B Zn2A I3A 18.8(2) . .
Zn2B Zn2A I4A 26.6(19) . .
N7 Zn2A I4A 103.9(6) . .
N5 Zn2A I4A 107.3(6) . .
I3B Zn2A I4A 101.6(4) . .
I3A Zn2A I4A 120.3(4) . .
Zn2B Zn2A I4B 13.9(18) . .
N7 Zn2A I4B 97.4(6) . .
N5 Zn2A I4B 97.4(6) . .
I3B Zn2A I4B 115.0(4) . .
I3A Zn2A I4B 133.7(4) . .
I4A Zn2A I4B 13.69(16) . .
Zn2A Zn2B I4A 146(2) . .
Zn2A Zn2B N5 80.8(19) . .
I4A Zn2B N5 128.0(9) . .
Zn2A Zn2B N7 67(2) . .
I4A Zn2B N7 117.5(8) . .
N5 Zn2B N7 97.4(10) . .
Zn2A Zn2B I3B 45(2) . .
I4A Zn2B I3B 105.5(6) . .
N5 Zn2B I3B 101.6(7) . .
N7 Zn2B I3B 103.8(7) . .
Zn2A Zn2B I4B 163(2) . .
I4A Zn2B I4B 17.9(2) . .
N5 Zn2B I4B 115.7(8) . .
N7 Zn2B I4B 111.6(7) . .
I3B Zn2B I4B 123.1(6) . .
Zn2A Zn2B I3A 31(2) . .
I4A Zn2B I3A 119.9(6) . .
N5 Zn2B I3A 93.1(6) . .
N7 Zn2B I3A 93.3(7) . .
I3B Zn2B I3A 14.71(17) . .
I4B Zn2B I3A 137.7(6) . .
Zn3B Zn3A N11 96.7(10) . 3_545
Zn3B Zn3A N6 79.8(9) . .
N11 Zn3A N6 102.0(7) 3_545 .
Zn3B Zn3A I6B 112.8(7) . .
N11 Zn3A I6B 132.5(8) 3_545 .
N6 Zn3A I6B 118.6(5) . .
Zn3B Zn3A I6C 90.1(9) . .
N11 Zn3A I6C 141.2(7) 3_545 .
N6 Zn3A I6C 116.8(6) . .
I6B Zn3A I6C 22.7(5) . .
Zn3B Zn3A I5A 19.2(5) . .
N11 Zn3A I5A 101.2(8) 3_545 .
N6 Zn3A I5A 97.1(8) . .
I6B Zn3A I5A 97.1(4) . .
I6C Zn3A I5A 74.9(7) . .
Zn3B Zn3A I6A 140.6(7) . .
N11 Zn3A I6A 114.5(8) 3_545 .
N6 Zn3A I6A 114.0(6) . .
I6B Zn3A I6A 27.8(2) . .
I6C Zn3A I6A 50.5(6) . .
I5A Zn3A I6A 124.5(3) . .
Zn3A Zn3B I5A 150.6(8) . .
Zn3A Zn3B N6 75.0(9) . .
I5A Zn3B N6 130.7(8) . .
Zn3A Zn3B N11 59.4(8) . 3_545
I5A Zn3B N11 123.4(7) . 3_545
N6 Zn3B N11 91.6(8) . 3_545
Zn3A Zn3B I6C 67.1(8) . .
I5A Zn3B I6C 88.7(6) . .
N6 Zn3B I6C 107.9(6) . .
N11 Zn3B I6C 115.1(8) 3_545 .
Zn3A Zn3B I5B 167.5(7) . .
I5A Zn3B I5B 21.3(3) . .
N6 Zn3B I5B 117.0(8) . .
N11 Zn3B I5B 114.7(6) 3_545 .
I6C Zn3B I5B 109.6(6) . .
Zn3A Zn3B I6B 48.3(6) . .
I5A Zn3B I6B 106.7(4) . .
N6 Zn3B I6B 98.9(6) . .
N11 Zn3B I6B 99.7(7) 3_545 .
I6C Zn3B I6B 18.8(5) . .
I5B Zn3B I6B 127.9(4) . .
N13 Zn4 N12 97.6(5) . .
N13 Zn4 I8B 112.5(6) . .
N12 Zn4 I8B 113.2(7) . .
N13 Zn4 I7 103.6(6) . .
N12 Zn4 I7 109.2(5) . .
I8B Zn4 I7 118.3(5) . .
N13 Zn4 I8A 110.0(5) . .
N12 Zn4 I8A 104.6(5) . .
I8B Zn4 I8A 10.0(6) . .
I7 Zn4 I8A 127.78(14) . .
Zn5B Zn5A N19 107.8(11) . .
Zn5B Zn5A N17 89.0(11) . .
N19 Zn5A N17 101.8(7) . .
Zn5B Zn5A I10C 81.4(17) . .
N19 Zn5A I10C 140.5(10) . .
N17 Zn5A I10C 117.0(9) . .
Zn5B Zn5A I10B 109.8(13) . .
N19 Zn5A I10B 128.4(9) . .
N17 Zn5A I10B 112.7(5) . .
I10C Zn5A I10B 28.6(12) . .
Zn5B Zn5A I9C 24.7(10) . .
N19 Zn5A I9C 117.2(5) . .
N17 Zn5A I9C 108.1(8) . .
I10C Zn5A I9C 59.0(13) . .
I10B Zn5A I9C 87.6(9) . .
Zn5B Zn5A I10A 138.9(10) . .
N19 Zn5A I10A 106.1(6) . .
N17 Zn5A I10A 106.1(5) . .
I10C Zn5A I10A 57.6(13) . .
I10B Zn5A I10A 29.1(8) . .
I9C Zn5A I10A 116.1(4) . .
Zn5B Zn5A I9A 17.7(9) . .
N19 Zn5A I9A 107.5(5) . .
N17 Zn5A I9A 106.2(7) . .
I10C Zn5A I9A 70.1(13) . .
I10B Zn5A I9A 98.5(8) . .
I9C Zn5A I9A 11.3(3) . .
I10A Zn5A I9A 126.58(18) . .
Zn5A Zn5B I9C 141.8(16) . .
Zn5A Zn5B I9A 152.7(15) . .
I9C Zn5B I9A 17.2(6) . .
Zn5A Zn5B I10C 73.6(18) . .
I9C Zn5B I10C 71.2(15) . .
I9A Zn5B I10C 87.7(15) . .
Zn5A Zn5B N17 66.2(10) . .
I9C Zn5B N17 139.2(13) . .
I9A Zn5B N17 139.9(13) . .
I10C Zn5B N17 106.9(12) . .
Zn5A Zn5B N19 51.3(10) . .
I9C Zn5B N19 135.2(9) . .
I9A Zn5B N19 124.6(8) . .
I10C Zn5B N19 113.6(17) . .
N17 Zn5B N19 84.1(9) . .
Zn5A Zn5B I10B 50.7(11) . .
I9C Zn5B I10B 94.2(11) . .
I9A Zn5B I10B 110.2(9) . .
I10C Zn5B I10B 23.2(13) . .
N17 Zn5B I10B 91.8(9) . .
N19 Zn5B I10B 95.3(11) . .
Zn5A Zn5B I9B 167.7(13) . .
I9C Zn5B I9B 39.4(8) . .
I9A Zn5B I9B 24.1(5) . .
I10C Zn5B I9B 110.5(16) . .
N17 Zn5B I9B 121.4(10) . .
N19 Zn5B I9B 117.8(7) . .
I10B Zn5B I9B 133.6(9) . .
Zn6B Zn6A I11C 117.7(19) . .
Zn6B Zn6A I11B 151.3(15) . .
I11C Zn6A I11B 33.8(14) . .
Zn6B Zn6A N18 79.5(12) . 3
I11C Zn6A N18 128.8(11) . 3
I11B Zn6A N18 114.9(6) . 3
Zn6B Zn6A N24 80.0(15) . .
I11C Zn6A N24 129.3(11) . .
I11B Zn6A N24 118.8(8) . .
N18 Zn6A N24 99.9(9) 3 .
Zn6B Zn6A I12A 43.7(13) . .
I11C Zn6A I12A 74.2(13) . .
I11B Zn6A I12A 108.0(5) . .
N18 Zn6A I12A 110.3(6) 3 .
N24 Zn6A I12A 104.2(5) . .
Zn6B Zn6A I11A 164.9(14) . .
I11C Zn6A I11A 47.4(13) . .
I11B Zn6A I11A 13.7(4) . .
N18 Zn6A I11A 107.9(5) 3 .
N24 Zn6A I11A 110.7(6) . .
I12A Zn6A I11A 121.61(19) . .
Zn6B Zn6A I12B 30.8(13) . .
I11C Zn6A I12B 87.0(14) . .
I11B Zn6A I12B 120.8(5) . .
N18 Zn6A I12B 101.4(6) 3 .
N24 Zn6A I12B 97.3(6) . .
I12A Zn6A I12B 12.91(18) . .
I11A Zn6A I12B 134.5(3) . .
Zn6A Zn6B I12A 120.2(16) . .
Zn6A Zn6B N18 78.0(12) . 3
I12A Zn6B N18 134.5(12) . 3
Zn6A Zn6B N24 77.6(16) . .
I12A Zn6B N24 124.6(9) . .
N18 Zn6B N24 99.0(12) 3 .
Zn6A Zn6B I12B 138.2(17) . .
I12A Zn6B I12B 17.9(3) . .
N18 Zn6B I12B 127.9(11) 3 .
N24 Zn6B I12B 121.1(10) . .
Zn6A Zn6B I11C 43.2(15) . .
I12A Zn6B I11C 77.2(12) . .
N18 Zn6B I11C 105.4(12) 3 .
N24 Zn6B I11C 105.5(14) . .
I12B Zn6B I11C 95.1(13) . .
Zn6A Zn6B I12C 155.8(17) . .
I12A Zn6B I12C 35.6(6) . .
N18 Zn6B I12C 118.6(10) 3 .
N24 Zn6B I12C 114.1(10) . .
I12B Zn6B I12C 17.7(5) . .
I11C Zn6B I12C 112.7(14) . .
Zn6A Zn6B I11B 20.7(11) . .
I12A Zn6B I11B 99.9(7) . .
N18 Zn6B I11B 89.7(8) 3 .
N24 Zn6B I11B 92.3(10) . .
I12B Zn6B I11B 117.8(8) . .
I11C Zn6B I11B 22.7(11) . .
I12C Zn6B I11B 135.4(9) . .
I2B I2A Zn1 101.8(18) . .
I2A I2B Zn1 66.8(18) . .
I3B I3A Zn2A 56.3(6) . .
I3B I3A Zn2B 49.9(6) . .
Zn2A I3A Zn2B 6.6(4) . .
I3A I3B Zn2A 104.9(6) . .
I3A I3B Zn2B 115.4(7) . .
Zn2A I3B Zn2B 10.6(5) . .
I4B I4A Zn2B 117.0(7) . .
I4B I4A Zn2A 123.8(6) . .
Zn2B I4A Zn2A 7.1(5) . .
I4A I4B Zn2B 45.1(5) . .
I4A I4B Zn2A 42.5(4) . .
Zn2B I4B Zn2A 3.0(4) . .
I5B I5A Zn3B 125.7(5) . .
I5B I5A Zn3A 135.1(4) . .
Zn3B I5A Zn3A 10.2(3) . .
I5A I5B Zn3B 33.0(3) . .
I6B I6A I6C 0.4(6) . .
I6B I6A Zn3A 54.8(3) . .
I6C I6A Zn3A 55.1(5) . .
I6C I6B I6A 179.0(14) . .
I6C I6B Zn3A 83.2(12) . .
I6A I6B Zn3A 97.4(4) . .
I6C I6B Zn3B 64.3(12) . .
I6A I6B Zn3B 116.3(4) . .
Zn3A I6B Zn3B 18.9(2) . .
I6B I6C I6A 0.6(8) . .
I6B I6C Zn3A 74.1(11) . .
I6A I6C Zn3A 74.4(7) . .
I6B I6C Zn3B 96.9(12) . .
I6A I6C Zn3B 97.2(7) . .
Zn3A I6C Zn3B 22.8(3) . .
I8B I8A Zn4 44.1(19) . .
I8A I8B Zn4 126(2) . .
I9C I9A I9B 138(3) . .
I9C I9A Zn5B 80(3) . .
I9B I9A Zn5B 128.9(8) . .
I9C I9A Zn5A 75(3) . .
I9B I9A Zn5A 137.2(6) . .
Zn5B I9A Zn5A 9.6(6) . .
I9A I9B I9C 10.0(5) . .
I9A I9B Cl27 136.1(16) . 3_556
I9C I9B Cl27 139.7(16) . 3_556
I9A I9B Zn5B 27.0(5) . .
I9C I9B Zn5B 33.5(6) . .
Cl27 I9B Zn5B 143.1(17) 3_556 .
I9A I9C Zn5B 83(2) . .
I9A I9C I9B 32(2) . .
Zn5B I9C I9B 107.1(11) . .
I9A I9C Zn5A 94(2) . .
Zn5B I9C Zn5A 13.5(7) . .
I9B I9C Zn5A 119.7(8) . .
I10B I10A I10C 7.4(10) . .
I10B I10A Zn5A 58.8(7) . .
I10C I10A Zn5A 52.3(7) . .
I10C I10B I10A 164(2) . .
I10C I10B Zn5A 73.7(18) . .
I10A I10B Zn5A 92.1(11) . .
I10C I10B Zn5B 54.3(18) . .
I10A I10B Zn5B 111.6(11) . .
Zn5A I10B Zn5B 19.5(5) . .
I10B I10C Zn5A 78(2) . .
I10B I10C Zn5B 102(3) . .
Zn5A I10C Zn5B 25.0(7) . .
I10B I10C I10A 8.6(14) . .
Zn5A I10C I10A 70.1(14) . .
Zn5B I10C I10A 95.1(18) . .
I10B I10C C111 124(3) . 3_455
Zn5A I10C C111 133(2) . 3_455
Zn5B I10C C111 114(3) . 3_455
I10A I10C C111 131.6(19) . 3_455
I11B I11A I11C 2.8(11) . .
I11B I11A Zn6A 40.0(10) . .
I11C I11A Zn6A 41.3(9) . .
I11A I11B I11C 175.4(18) . .
I11A I11B Zn6A 126.3(14) . .
I11C I11B Zn6A 55.8(15) . .
I11A I11B Zn6B 134.3(13) . .
I11C I11B Zn6B 47.8(15) . .
Zn6A I11B Zn6B 8.0(4) . .
I11B I11C Zn6A 90(2) . .
I11B I11C I11A 1.8(7) . .
Zn6A I11C I11A 91.3(17) . .
I11B I11C Zn6B 110(2) . .
Zn6A I11C Zn6B 19.1(7) . .
I11A I11C Zn6B 110.4(17) . .
I12B I12A I12C 4.8(10) . .
I12B I12A Zn6B 93.2(12) . .
I12C I12A Zn6B 97.8(9) . .
I12B I12A Zn6A 109.3(10) . .
I12C I12A Zn6A 113.9(7) . .
Zn6B I12A Zn6A 16.1(5) . .
I12A I12B I12C 171.9(17) . .
I12A I12B Zn6B 68.9(11) . .
I12C I12B Zn6B 118.9(14) . .
I12A I12B Zn6A 57.8(10) . .
I12C I12B Zn6A 130.0(13) . .
Zn6B I12B Zn6A 11.1(5) . .
I12B I12C I12A 3.3(7) . .
I12B I12C Zn6B 43.4(11) . .
I12A I12C Zn6B 46.6(7) . .
loop_
_geom_bond_atom_site_label_1
_geom_bond_atom_site_label_2
_geom_bond_distance
_geom_bond_site_symmetry_2
C1 C2 1.3900 .
C1 N1 1.3900 .
C1 H1 0.9300 .
C2 C3 1.3900 .
C2 H2 0.9300 .
C3 C4 1.3900 .
C3 C6 1.492(15) .
C4 C5 1.3900 .
C4 H4 0.9300 .
C5 N1 1.3900 .
C5 H5 0.9300 .
N1 Zn1 2.070(7) .
C6 N4 1.335(16) .
C6 N2 1.336(17) .
C7 N3 1.318(16) .
C7 N2 1.365(16) .
C7 C11 1.457(19) .
C8 N4 1.298(16) .
C8 N3 1.355(17) .
C8 C16 1.528(18) .
C9 N5 1.335(18) .
C9 C10 1.397(17) .
C9 H9 0.9300 .
C10 C11 1.382(16) .
C10 H10 0.9300 .
C11 C12 1.370(17) .
C12 C13 1.381(17) .
C12 H12 0.9300 .
C13 N5 1.329(18) .
C13 H13 0.9300 .
C14 N6 1.357(17) .
C14 C15 1.379(16) .
C14 H14 0.9300 .
C15 C16 1.370(17) .
C15 H15 0.9300 .
C16 C17 1.382(17) .
C17 C18 1.389(16) .
C17 H17 0.9300 .
C18 N6 1.319(18) .
C18 H18 0.9300 .
C19 N7 1.349(19) .
C19 C20 1.377(19) .
C19 H19 0.9300 .
C20 C21 1.395(18) .
C20 H20 0.9300 .
C21 C22 1.370(19) .
C21 C24 1.45(3) .
C22 C23 1.392(19) .
C22 H22 0.9300 .
C23 N7 1.346(18) .
C23 H23 0.9300 .
C24 N8 1.337(19) .
C24 N10 1.347(17) .
C25 N9 1.309(17) .
C25 N8 1.355(19) .
C25 C29 1.44(2) .
C26 N10 1.316(19) .
C26 N9 1.350(18) .
C26 C34 1.48(2) .
C27 N11 1.337(18) .
C27 C28 1.383(18) .
C27 H27 0.9300 .
C28 C29 1.367(19) .
C28 H28 0.9300 .
C29 C30 1.371(17) .
C30 C31 1.389(19) .
C30 H30 0.9300 .
C31 N11 1.32(2) .
C31 H31 0.9300 .
C32 N12 1.341(18) .
C32 C33 1.374(17) .
C32 H32 0.9300 .
C33 C34 1.397(18) .
C33 H33 0.9300 .
C34 C35 1.358(18) .
C35 C36 1.392(16) .
C35 H35 0.9300 .
C36 N12 1.364(17) .
C36 H36 0.9300 .
C37 N13 1.335(15) .
C37 C38 1.351(15) .
C37 H37 0.9300 .
C38 C39 1.390(16) .
C38 H38 0.9300 .
C39 C40 1.361(15) .
C39 C42 1.453(17) .
C40 C41 1.387(15) .
C40 H40 0.9300 .
C41 N13 1.332(16) .
C41 H41 0.9300 .
C42 N14 1.328(16) .
C42 N16 1.348(17) .
C43 N15 1.315(17) .
C43 N14 1.358(16) .
C43 C47 1.46(2) .
C44 N16 1.317(16) .
C44 N15 1.359(18) .
C44 C52 1.52(2) .
C45 N17 1.353(17) .
C45 C46 1.368(16) .
C45 H45 0.9300 .
C46 C47 1.382(16) .
C46 H46 0.9300 .
C47 C48 1.382(18) .
C48 C49 1.374(17) .
C48 H48 0.9300 .
C49 N17 1.323(16) .
C49 H49 0.9300 .
C50 N18 1.335(17) .
C50 C51 1.372(17) .
C50 H50 0.9300 .
C51 C52 1.379(17) .
C51 H51 0.9300 .
C52 C53 1.367(16) .
C53 C54 1.396(17) .
C53 H53 0.9300 .
C54 N18 1.341(18) .
C54 H54 0.9300 .
C55 N19 1.343(18) .
C55 C56 1.379(19) .
C55 H55 0.9300 .
C56 C57 1.396(17) .
C56 H56 0.9300 .
C57 C58 1.376(18) .
C57 C60 1.45(2) .
C58 C59 1.396(17) .
C58 H58 0.9300 .
C59 N19 1.343(16) .
C59 H59 0.9300 .
C60 N22 1.34(2) .
C60 N20 1.368(17) .
C61 N21 1.320(19) .
C61 N20 1.348(18) .
C61 C65 1.50(2) .
C62 N22 1.307(19) .
C62 N21 1.359(18) .
C62 C70 1.48(3) .
C63 N23 1.343(18) .
C63 C64 1.402(16) .
C63 H63 0.9300 .
C64 C65 1.367(18) .
C64 H64 0.9300 .
C65 C66 1.369(19) .
C66 C67 1.389(18) .
C66 H66 0.9300 .
C67 N23 1.319(19) .
C67 H67 0.9300 .
C68 N24 1.335(19) .
C68 C69 1.368(19) .
C68 H68 0.9300 .
C69 C70 1.397(19) .
C69 H69 0.9300 .
C70 C71 1.375(18) .
C71 C72 1.374(19) .
C71 H71 0.9300 .
C72 N24 1.337(19) .
C72 H72 0.9300 .
N5 Zn2A 2.110(18) .
N5 Zn2B 2.12(2) .
N6 Zn3A 2.068(16) .
N6 Zn3B 2.107(16) .
N7 Zn2A 2.02(2) .
N7 Zn2B 2.17(2) .
N11 Zn3A 1.942(16) 3_455
N11 Zn3B 2.24(2) 3_455
N13 Zn4 2.050(12) .
N12 Zn4 2.074(13) .
N17 Zn5A 2.052(13) .
N17 Zn5B 2.24(2) .
N19 Zn5A 2.046(15) .
N19 Zn5B 2.50(3) .
N18 Zn6A 2.056(15) 3_445
N18 Zn6B 2.07(2) 3_445
N24 Zn6A 2.065(18) .
N24 Zn6B 2.08(3) .
N23 Zn1 2.060(13) 3_556
C100 C101 1.53(3) .
C100 Cl1 1.82(3) .
C100 H10A 0.9700 .
C100 H10B 0.9700 .
C101 Cl2 1.85(3) .
C101 H10C 0.9700 .
C101 H10D 0.9700 .
C102 C103 1.52(3) .
C102 Cl3 1.84(3) .
C102 H10E 0.9700 .
C102 H10F 0.9700 .
C103 Cl4 1.84(3) .
C103 H10G 0.9700 .
C103 H10H 0.9700 .
C73 N25 1.43(6) .
C73 C74 1.51(5) .
C73 C96 1.52(3) .
C73 C82 1.53(3) .
C74 C75 1.51(5) .
C74 H74A 0.9700 .
C74 H74B 0.9700 .
C75 N25 1.34(5) .
C75 C89 1.37(6) .
C76 C81 1.40(6) .
C76 C77 1.49(5) .
C76 S1 1.79(5) .
C77 C78 1.31(5) .
C77 H77 0.9300 .
C78 C79 1.41(7) .
C78 H78 0.9300 .
C79 C99 1.21(9) .
C79 C80 1.49(6) .
C80 C81 1.45(6) .
C80 H80 0.9300 .
C81 H81 0.9300 .
C82 C87 1.40(6) .
C82 C83 1.48(5) .
C83 C84 1.31(5) .
C83 C88 1.53(3) .
C84 C85 1.42(7) .
C84 H84 0.9300 .
C85 C86 1.49(6) .
C85 H85 0.9300 .
C86 C87 1.45(6) .
C86 H86 0.9300 .
C87 H87 0.9300 .
C88 H88A 0.9600 .
C88 H88B 0.9600 .
C88 H88C 0.9600 .
C89 C90 1.51(5) .
C89 H89 0.9300 .
C90 O1 1.10(4) .
C90 O2 1.40(3) .
C93 O2 1.44(3) .
C93 C94 1.55(3) .
C93 H93A 0.9700 .
C93 H93B 0.9700 .
C94 H94A 0.9600 .
C94 H94B 0.9600 .
C94 H94C 0.9600 .
C96 O6 1.09(4) .
C96 O5 1.40(3) .
C97 O5 1.46(3) .
C97 C98 1.55(3) .
C97 H97A 0.9700 .
C97 H97B 0.9700 .
C98 H98A 0.9600 .
C98 H98B 0.9600 .
C98 H98C 0.9600 .
C99 H99A 0.9600 .
C99 H99B 0.9600 .
C99 H99C 0.9600 .
O3 S1 1.39(3) .
O4 S1 1.42(4) .
S1 N25 1.77(4) .
C90A C91A 1.57(2) .
C90A C95A 1.59(2) .
C90A H90A 0.9700 .
C90A H90B 0.9700 .
C91A C92A 1.50(3) .
C91A H91A 0.9700 .
C91A H91B 0.9700 .
C92A C93A 1.58(2) .
C92A H92A 0.9700 .
C92A H92B 0.9700 .
C93A C94A 1.50(3) .
C93A H93C 0.9700 .
C93A H93D 0.9700 .
C94A C95A 1.55(3) .
C94A H94D 0.9700 .
C94A H94E 0.9700 .
C95A H95A 0.9700 .
C95A H95B 0.9700 .
C116 C117 1.52(3) .
C116 Cl17 1.85(3) .
C116 H11A 0.9700 .
C116 H11B 0.9700 .
C117 Cl18 1.85(3) .
C117 H11C 0.9700 .
C117 H11D 0.9700 .
C126 C127 1.52(3) .
C126 Cl27 1.84(3) .
C126 H12D 0.9700 .
C126 H12E 0.9700 .
C127 Cl28 1.84(3) .
C127 H12F 0.9700 .
C127 H12G 0.9700 .
Cl27 I9B 2.77(8) 3_444
C106 C107 1.52(3) .
C106 Cl7 1.85(3) .
C106 H10I 0.9700 .
C106 H10J 0.9700 .
C107 Cl8 1.85(3) .
C107 H10K 0.9700 .
C107 H10L 0.9700 .
C110 C111 1.51(3) .
C110 Cl11 1.84(3) .
C110 H11E 0.9700 .
C110 H11F 0.9700 .
C111 Cl12 1.85(3) .
C111 H11G 0.9700 .
C111 H11H 0.9700 .
C108 C109 1.52(3) .
C108 Cl9 1.86(3) .
C108 H10M 0.9700 .
C108 H10N 0.9700 .
C109 Cl10 1.85(3) .
C109 H10O 0.9700 .
C109 H10P 0.9700 .
Cl10 Cl15 2.10(8) 4_547
C104 C105 1.52(3) .
C104 Cl5 1.86(3) .
C104 H10Q 0.9700 .
C104 H10R 0.9700 .
C105 Cl6 1.85(3) .
C105 H10S 0.9700 .
C105 H10T 0.9700 .
C112 C113 1.52(3) .
C112 Cl13 1.84(3) .
C112 H11I 0.9700 .
C112 H11J 0.9700 .
C113 Cl14 1.84(3) .
C113 H11K 0.9700 .
C113 H11L 0.9700 .
C114 C115 1.51(3) .
C114 Cl15 1.86(3) .
C114 H11M 0.9700 .
C114 H11N 0.9700 .
C115 Cl16 1.84(3) .
C115 H11O 0.9700 .
C115 H11P 0.9700 .
Cl15 Cl10 2.10(8) 4_557
C118 C119 1.52(3) .
C118 Cl19 1.85(3) .
C118 H11Q 0.9700 .
C118 H11R 0.9700 .
C119 Cl20 1.84(3) .
C119 H11S 0.9700 .
C119 H11T 0.9700 .
C120 C121 1.51(3) .
C120 Cl21 1.85(3) .
C120 H12H 0.9700 .
C120 H12I 0.9700 .
C121 Cl22 1.84(3) .
C121 H12J 0.9700 .
C121 H12K 0.9700 .
C122 C123 1.53(3) .
C122 Cl23 1.79(3) .
C122 H12L 0.9700 .
C122 H12M 0.9700 .
C123 Cl24 1.78(3) .
C123 H12N 0.9700 .
C123 H12O 0.9700 .
Zn1 N23 2.060(13) 3_444
Zn1 I2A 2.454(10) .
Zn1 I1 2.527(4) .
Zn1 I2B 2.614(10) .
Zn2A Zn2B 0.566(11) .
Zn2A I3B 2.174(11) .
Zn2A I3A 2.525(7) .
Zn2A I4A 2.554(9) .
Zn2A I4B 3.140(10) .
Zn2B I4A 2.063(13) .
Zn2B I3B 2.536(16) .
Zn2B I4B 2.594(13) .
Zn2B I3A 2.995(13) .
Zn3A Zn3B 0.911(8) .
Zn3A N11 1.942(16) 3_545
Zn3A I6B 2.096(7) .
Zn3A I6C 2.165(16) .
Zn3A I5A 2.522(9) .
Zn3A I6A 2.543(8) .
Zn3B I5A 1.689(10) .
Zn3B N11 2.24(2) 3_545
Zn3B I6C 2.350(17) .
Zn3B I5B 2.520(11) .
Zn3B I6B 2.589(10) .
Zn4 I8B 2.217(18) .
Zn4 I7 2.538(4) .
Zn4 I8A 2.582(5) .
Zn5A Zn5B 0.94(2) .
Zn5A I10C 2.13(3) .
Zn5A I10B 2.167(14) .
Zn5A I9C 2.490(18) .
Zn5A I10A 2.532(5) .
Zn5A I9A 2.571(8) .
Zn5B I9C 1.68(3) .
Zn5B I9A 1.70(2) .
Zn5B I10C 2.19(3) .
Zn5B I10B 2.64(3) .
Zn5B I9B 2.92(3) .
Zn6A Zn6B 0.806(19) .
Zn6A I11C 1.68(3) .
Zn6A I11B 2.036(13) .
Zn6A N18 2.056(15) 3
Zn6A I12A 2.511(6) .
Zn6A I11A 2.550(5) .
Zn6A I12B 2.801(11) .
Zn6B I12A 2.007(19) .
Zn6B N18 2.07(2) 3
Zn6B I12B 2.15(2) .
Zn6B I11C 2.18(3) .
Zn6B I12C 2.74(3) .
Zn6B I11B 2.77(2) .
I2A I2B 0.530(10) .
I3A I3B 0.842(7) .
I4A I4B 0.894(8) .
I5A I5B 1.128(7) .
I6A I6B 1.196(8) .
I6A I6C 2.04(2) .
I6B I6C 0.841(19) .
I8A I8B 0.56(2) .
I9A I9C 0.505(15) .
I9A I9B 1.53(2) .
I9B I9C 1.94(3) .
I9B Cl27 2.77(8) 3_556
I10A I10B 1.23(3) .
I10A I10C 2.27(5) .
I10B I10C 1.06(5) .
I10C C111 2.34(12) 3_455
I11A I11B 0.748(14) .
I11A I11C 1.88(4) .
I11B I11C 1.13(4) .
I12A I12B 0.663(9) .
I12A I12C 1.61(3) .
I12B I12C 0.95(3) .
