#------------------------------------------------------------------------------
#$Date: 2017-07-25 05:22:00 +0300 (Tue, 25 Jul 2017) $
#$Revision: 198995 $
#$URL: file:///home/coder/svn-repositories/cod/cif/1/54/66/1546605.cif $
#------------------------------------------------------------------------------
#
# This file is available in the Crystallography Open Database (COD),
# http://www.crystallography.net/
#
# All data on this site have been placed in the public domain by the
# contributors.
#
data_1546605
loop_
_publ_author_name
'Asanuma, Yuki'
'Eguchi, Hiroshi'
'Nishiyama, Hiroki'
'Tomita, Ikuyoshi'
'Inagi, Shinsuke'
_publ_section_title
;
 Synthesis of Ring-Fused Pyridinium Salts by Intramolecular Nucleophilic
 Aromatic Substitution Reaction and Their Optoelectronic Properties.
;
_journal_name_full               'Organic letters'
_journal_paper_doi               10.1021/acs.orglett.7b00590
_journal_year                    2017
_chemical_formula_sum            'C18 H8 F7 N O3 S'
_chemical_formula_weight         451.31
_space_group_crystal_system      triclinic
_space_group_IT_number           2
_space_group_name_Hall           '-P 1'
_space_group_name_H-M_alt        'P -1'
_symmetry_space_group_name_Hall  '-P 1'
_symmetry_space_group_name_H-M   'P -1'
_atom_sites_solution_hydrogens   geom
_audit_creation_method           SHELXL-2014/7
_cell_angle_alpha                86.299(6)
_cell_angle_beta                 89.117(6)
_cell_angle_gamma                72.381(5)
_cell_formula_units_Z            2
_cell_length_a                   8.6658(4)
_cell_length_b                   9.3186(6)
_cell_length_c                   10.8500(6)
_cell_measurement_reflns_used    6936
_cell_measurement_temperature    93(2)
_cell_measurement_theta_max      27.49
_cell_measurement_theta_min      3.06
_cell_volume                     833.32(8)
_computing_cell_refinement       'RAPID AUTO'
_computing_data_collection       'RAPID AUTO'
_computing_data_reduction        'RAPID AUTO'
_computing_publication_material  'Yadokari-XG (Wakita, Nemoto et al., 2009)'
_computing_structure_refinement  'SHELXL-2014/7 (Sheldrick, 2014)'
_computing_structure_solution    'SHELXT Version 2014/4 (Sheldrick, 2014)'
_diffrn_ambient_temperature      93(2)
_diffrn_measured_fraction_theta_full 0.997
_diffrn_measured_fraction_theta_max 0.993
_diffrn_measurement_device_type  'rigaku raxis rapid'
_diffrn_measurement_method       'oscillation method'
_diffrn_radiation_type           MoK\a
_diffrn_radiation_wavelength     0.71075
_diffrn_reflns_av_R_equivalents  0.0250
_diffrn_reflns_av_unetI/netI     0.0386
_diffrn_reflns_Laue_measured_fraction_full 0.997
_diffrn_reflns_Laue_measured_fraction_max 0.993
_diffrn_reflns_limit_h_max       10
_diffrn_reflns_limit_h_min       -11
_diffrn_reflns_limit_k_max       12
_diffrn_reflns_limit_k_min       -12
_diffrn_reflns_limit_l_max       14
_diffrn_reflns_limit_l_min       -14
_diffrn_reflns_number            8046
_diffrn_reflns_point_group_measured_fraction_full 0.997
_diffrn_reflns_point_group_measured_fraction_max 0.993
_diffrn_reflns_theta_full        25.242
_diffrn_reflns_theta_max         27.485
_diffrn_reflns_theta_min         3.060
_diffrn_source                   'fine-focus sealed tube'
_exptl_absorpt_coefficient_mu    0.293
_exptl_absorpt_correction_T_max  1.0000
_exptl_absorpt_correction_T_min  0.7335
_exptl_absorpt_correction_type   multi-scan
_exptl_absorpt_process_details   'ABSCOR (Rigaku, 1995)'
_exptl_crystal_colour            colorless
_exptl_crystal_density_diffrn    1.799
_exptl_crystal_description       needle
_exptl_crystal_F_000             452
_exptl_crystal_size_max          0.570
_exptl_crystal_size_mid          0.170
_exptl_crystal_size_min          0.110
_refine_diff_density_max         0.571
_refine_diff_density_min         -0.280
_refine_diff_density_rms         0.099
_refine_ls_extinction_method     none
_refine_ls_goodness_of_fit_ref   1.064
_refine_ls_hydrogen_treatment    constr
_refine_ls_matrix_type           full
_refine_ls_number_parameters     271
_refine_ls_number_reflns         3784
_refine_ls_number_restraints     0
_refine_ls_restrained_S_all      1.064
_refine_ls_R_factor_all          0.0541
_refine_ls_R_factor_gt           0.0414
_refine_ls_shift/su_max          0.000
_refine_ls_shift/su_mean         0.000
_refine_ls_structure_factor_coef Fsqd
_refine_ls_weighting_details
'w=1/[\s^2^(Fo^2^)+(0.0500P)^2^+0.3841P] where P=(Fo^2^+2Fc^2^)/3'
_refine_ls_weighting_scheme      calc
_refine_ls_wR_factor_gt          0.0923
_refine_ls_wR_factor_ref         0.0979
_reflns_Friedel_coverage         0.000
_reflns_number_gt                3158
_reflns_number_total             3784
_reflns_threshold_expression     'I > 2\s(I)'
_cod_data_source_file            ol7b00590_si_002.cif
_cod_data_source_block           2a
_cod_database_code               1546605
_shelx_shelxl_version_number     2014/7
_shelx_space_group_comment
;
The symmetry employed for this shelxl refinement is uniquely defined
by the following loop, which should always be used as a source of
symmetry information in preference to the above space-group names.
They are only intended as comments.
;
_shelx_estimated_absorpt_t_min   0.851
_shelx_estimated_absorpt_t_max   0.968
_shelx_res_file
;

    asa6.res created by SHELXL-2014/7

TITL asa6_a.res in P-1
REM  Yadorkari-X generated
CELL 0.71075 8.6658 9.3186 10.8500 86.2990 89.1170 72.3810
ZERR 2.0 0.0004 0.0006 0.0006 0.0060 0.0060 0.0050
LATT 1
REM  SPGR P-1 triclinic
SFAC C H F N O S
UNIT 36 16 14 2 6 2
SIZE 0.57 0.17 0.11
TEMP -180.0
L.S. 10
FMAP 2
PLAN -20
ACTA
CONF
LIST 4
BOND $H
MERG 2
OMIT -10.000000 55.000000

WGHT    0.050000    0.384100
FVAR       1.91404
C1    1    0.565777    0.622290    0.722563    11.00000    0.01184    0.01289 =
         0.01660   -0.00156    0.00129   -0.00494
C2    1    0.535469    0.656485    0.846142    11.00000    0.01582    0.01667 =
         0.01462    0.00140   -0.00052   -0.00554
C3    1    0.420600    0.787067    0.876877    11.00000    0.01792    0.02106 =
         0.01358   -0.00370    0.00474   -0.00801
C4    1    0.334260    0.888292    0.786215    11.00000    0.01277    0.01534 =
         0.02090   -0.00409    0.00460   -0.00330
C5    1    0.368697    0.859825    0.664247    11.00000    0.01305    0.01476 =
         0.01647    0.00106   -0.00084   -0.00317
C6    1    0.487502    0.730418    0.627591    11.00000    0.01151    0.01391 =
         0.01497   -0.00121    0.00076   -0.00585
C7    1    0.543925    0.710399    0.499994    11.00000    0.01064    0.01310 =
         0.01434   -0.00173    0.00119   -0.00472
C8    1    0.476472    0.813644    0.399717    11.00000    0.01425    0.01519 =
         0.01753   -0.00137   -0.00079   -0.00324
AFIX  43
H8    2    0.382898    0.896428    0.412222    11.00000   -1.20000
AFIX   0
C9    1    0.544719    0.795782    0.283950    11.00000    0.01994    0.01775 =
         0.01619    0.00109   -0.00184   -0.00485
AFIX  43
H9    2    0.497037    0.865825    0.217449    11.00000   -1.20000
AFIX   0
C10   1    0.682717    0.676281    0.263361    11.00000    0.02270    0.02251 =
         0.01550   -0.00221    0.00454   -0.00518
AFIX  43
H10   2    0.730687    0.666386    0.183800    11.00000   -1.20000
AFIX   0
C11   1    0.749239    0.572554    0.358956    11.00000    0.01612    0.01784 =
         0.02001   -0.00258    0.00393   -0.00012
AFIX  43
H11   2    0.842531    0.490223    0.344609    11.00000   -1.20000
AFIX   0
C12   1    0.680856    0.586926    0.477544    11.00000    0.01231    0.01423 =
         0.01655   -0.00149   -0.00050   -0.00417
C13   1    0.745716    0.469503    0.574040    11.00000    0.01193    0.01413 =
         0.01733   -0.00212    0.00023   -0.00489
C14   1    0.868313    0.336339    0.550995    11.00000    0.01677    0.01749 =
         0.02064   -0.00364    0.00148   -0.00191
AFIX  43
H14   2    0.917354    0.326124    0.471817    11.00000   -1.20000
AFIX   0
C15   1    0.919321    0.220304    0.639923    11.00000    0.01628    0.01442 =
         0.02887   -0.00186   -0.00362    0.00076
AFIX  43
H15   2    1.005075    0.132221    0.623660    11.00000   -1.20000
AFIX   0
C16   1    0.843447    0.233966    0.753893    11.00000    0.02182    0.01601 =
         0.02255    0.00313   -0.00623   -0.00481
AFIX  43
H16   2    0.873936    0.153286    0.815524    11.00000   -1.20000
AFIX   0
C17   1    0.725085    0.363433    0.777157    11.00000    0.02079    0.01555 =
         0.01785    0.00162   -0.00177   -0.00664
AFIX  43
H17   2    0.672157    0.371245    0.854874    11.00000   -1.20000
AFIX   0
C18   1    0.984333    0.743273    0.908780    11.00000    0.02581    0.02419 =
         0.02220    0.00044    0.00134   -0.01141
F1    3    0.618804    0.570639    0.941909    11.00000    0.02558    0.02354 =
         0.01287    0.00126   -0.00337   -0.00324
F2    3    0.394610    0.816592    0.995978    11.00000    0.02822    0.02756 =
         0.01328   -0.00525    0.00516   -0.00556
F3    3    0.223429    1.014545    0.816819    11.00000    0.01955    0.01806 =
         0.02293   -0.00629    0.00722    0.00023
F4    3    0.284706    0.966793    0.581808    11.00000    0.01832    0.01686 =
         0.01860    0.00139    0.00076    0.00362
S1    6    0.893384    0.798516    0.755841    11.00000    0.01375    0.01319 =
         0.01816   -0.00236    0.00096   -0.00289
F5    3    1.132099    0.643669    0.902477    11.00000    0.02444    0.03672 =
         0.03960    0.01098   -0.01075   -0.00386
F6    3    0.895821    0.680205    0.982385    11.00000    0.04599    0.05076 =
         0.02846    0.01134    0.00653   -0.02528
O1    5    0.892503    0.656354    0.710427    11.00000    0.01744    0.02036 =
         0.03191   -0.01108    0.00201   -0.00668
F7    3    1.000979    0.862220    0.963297    11.00000    0.06301    0.04330 =
         0.02377   -0.01002   -0.00421   -0.02735
O2    5    1.004759    0.865836    0.692731    11.00000    0.02551    0.02337 =
         0.02167    0.00047    0.00239   -0.01158
O3    5    0.736144    0.899821    0.781205    11.00000    0.01912    0.02012 =
         0.03951   -0.00456    0.00236    0.00241
N1    4    0.680316    0.483630    0.690226    11.00000    0.01250    0.01251 =
         0.01574   -0.00085   -0.00080   -0.00402

HKLF 4

REM  asa6_a.res in P-1
REM R1 =  0.0414 for    3158 Fo > 4sig(Fo)  and  0.0541 for all    3784 data
REM    271 parameters refined using      0 restraints

END

WGHT      0.0500      0.3841

REM Highest difference peak  0.571,  deepest hole -0.280,  1-sigma level  0.099
Q1    1   0.9542  0.7618  0.8265  11.00000  0.05    0.57
Q2    1   0.6163  0.6492  0.4886  11.00000  0.05    0.52
Q3    1   0.6997  0.5681  0.4164  11.00000  0.05    0.49
Q4    1   0.7089  0.5316  0.5162  11.00000  0.05    0.49
Q5    1   0.7960  0.4009  0.5599  11.00000  0.05    0.47
Q6    1   0.5375  0.6835  0.6811  11.00000  0.05    0.46
Q7    1   0.6195  0.5547  0.7106  11.00000  0.05    0.46
Q8    1   0.5445  0.6395  0.7826  11.00000  0.05    0.45
Q9    1   0.3815  0.8417  0.8338  11.00000  0.05    0.45
Q10   1   0.5025  0.7417  0.8584  11.00000  0.05    0.44
Q11   1   0.8828  0.7064  0.7626  11.00000  0.05    0.43
Q12   1   0.5060  0.7211  0.5605  11.00000  0.05    0.43
Q13   1   0.6037  0.7230  0.2805  11.00000  0.05    0.42
Q14   1   0.4456  0.8037  0.6543  11.00000  0.05    0.42
Q15   1   0.9038  0.7216  0.7134  11.00000  0.05    0.41
Q16   1   0.4594  0.7066  0.8680  11.00000  0.05    0.41
Q17   1   0.3764  0.8862  0.7267  11.00000  0.05    0.41
Q18   1   0.3487  0.8619  0.7338  11.00000  0.05    0.40
Q19   1   0.5030  0.7517  0.4470  11.00000  0.05    0.39
Q20   1   0.7116  0.4742  0.6325  11.00000  0.05    0.39
;
_shelx_res_checksum              27774
_shelx_hkl_file
;
   0   0   2 7210.97  113.96
   0   0  -2 7073.41  103.70
   0   0   3 6663.21  100.47
   0   0  -3 6641.97  101.79
   0   0   411240.97  232.11
   0   0  -410400.18  202.76
   0   0   5  636.68   13.67
   0   0  -5  604.40   21.35
   0   0   6  751.38   22.80
   0   0  -6  749.70   15.91
   0   0   7  131.20   11.01
   0   0  -7  130.87   18.72
   0   0   8  431.99   14.84
   0   0  -8  403.48   15.71
   0   0   9  103.54   20.53
   0   0  -9   81.21   15.46
   0   0  -9   63.78   13.58
   0   0  10   23.27   13.04
   0   0 -10   24.67   25.84
   0   0 -10   -1.36   23.03
   0   0  11   62.12   23.87
   0   0 -11   25.46   17.94
   0   0 -11   77.21   15.03
   0   0  12  241.62   17.67
   0   0 -12  267.14   36.42
   0   0  13   14.95   16.92
   0   0 -13  -13.75   21.90
   0   0  14   78.10   30.33
   0   0 -14   63.71   23.91
   0   1 -13   43.32   34.74
   0  -1  13   22.12   15.99
   0   1 -12   43.07   20.13
   0  -1  12   49.72   15.24
   0   1 -11   84.30   18.35
   0  -1  11   69.94   14.36
   0   1 -10 1522.88   49.43
   0  -1  10 1591.46   40.54
   0   1  -9  836.18   24.13
   0  -1   9  880.89   29.29
   0   1  -8   26.64   13.75
   0  -1   8   52.71   17.50
   0   1  -7    5.78   12.05
   0  -1   7    9.60    9.82
   0   1  -6  257.89   21.35
   0  -1   6  255.71   16.48
   0   1  -515537.70  389.27
   0  -1   515888.13  404.26
   0   1  -4 9096.34  166.66
   0  -1   4 9030.97  158.69
   0   1  -3   10.24    9.48
   0  -1   3   -9.43    8.02
   0   1  -2 2259.01   28.76
   0  -1   2 2235.21   28.53
   0   1  -120835.73  552.21
   0   1  -121658.34  567.58
   0  -1   121357.84  562.89
   0  -1   121122.73  575.36
   0   1   234866.72 1342.71
   0  -1  -234171.57 1325.34
   0   1   3 1470.52   22.95
   0  -1  -3 1475.87   23.16
   0   1   4 7200.61  134.42
   0  -1  -4 7154.35  135.64
   0   1   5 4362.02   63.59
   0  -1  -5 4290.03   64.26
   0   1   6   52.52   10.66
   0  -1  -6   31.60   10.67
   0   1   7   -1.29   18.19
   0  -1  -7   23.86   11.72
   0   1   8   47.10   12.32
   0  -1  -8   46.58   20.97
   0   1   9    9.37   13.05
   0  -1  -9   -4.83   22.26
   0   1  10  204.12   25.37
   0  -1 -10  190.14   17.22
   0   1  11  146.69   16.82
   0  -1 -11  171.30   18.31
   0   1  12  221.50   29.94
   0  -1 -12  181.56   22.76
   0  -1 -12  211.18   20.97
   0   1  13  275.13   21.30
   0  -1 -13  289.24   24.98
   0  -1 -13  225.51   34.11
   0   1  14  715.37   41.68
   0  -1 -14  723.13   51.24
   0   2 -13   55.96   20.96
   0  -2  13   59.47   25.98
   0  -2  13   58.93   15.21
   0   2 -12  410.60   23.74
   0  -2  12  389.09   18.14
   0  -2  12  361.72   17.67
   0   2 -11  442.16   34.83
   0  -2  11  437.04   17.80
   0   2 -10 2617.90   50.16
   0  -2  10 2552.49   43.06
   0   2  -9  129.46   15.40
   0  -2   9   83.30   12.59
   0   2  -815988.82  443.82
   0  -2   816082.71  447.14
   0   2  -7   69.31   12.44
   0  -2   7   68.65   10.47
   0   2  -6 1101.94   29.64
   0  -2   6  996.67   17.51
   0   2  -5 3370.51   49.65
   0  -2   5 3311.18   45.43
   0   2  -412123.48  252.37
   0  -2   411742.27  242.73
   0  -2   411643.79  236.87
   0  -2   411437.04  249.71
   0   2  -310140.66  211.95
   0  -2   310358.22  213.52
   0  -2   3 9971.74  186.28
   0   2  -2  679.88   15.22
   0   2  -2  716.43   14.80
   0  -2   2  709.89   23.24
   0  -2   2  687.99   14.60
   0   2  -1  324.02   12.36
   0  -2   1  298.35   19.70
   0  -2   1  323.17   12.38
   0   2   017848.07  441.61
   0  -2   017414.36  433.94
   0   2   112644.44  260.23
   0  -2  -112164.05  254.80
   0   2   2 4550.97   87.12
   0  -2  -2 4521.49   68.87
   0   2   3  250.54   13.34
   0  -2  -3  226.17   13.71
   0   2   4   66.83   11.86
   0  -2  -4   60.66   12.00
   0   2   5  153.88   12.59
   0  -2  -5  175.24   13.16
   0   2   6  103.03   20.11
   0  -2  -6  131.63   20.51
   0   2   7  405.12   15.75
   0  -2  -7  389.88   25.16
   0   2   8 2778.09   60.73
   0  -2  -8 2769.15   62.48
   0   2   9 1284.06   40.68
   0  -2  -9 1271.63   44.13
   0   2  10 1167.42   27.97
   0  -2 -10 1074.75   44.52
   0   2  11   62.45   17.30
   0  -2 -11   62.75   18.62
   0   2  12   18.40   28.81
   0  -2 -12    1.60   19.54
   0   2  13  496.26   25.09
   0  -2 -13  469.83   28.13
   0  -2 -14   24.41   22.84
   0   3 -13  658.87   27.87
   0  -3  13  565.59   33.55
   0  -3  13  612.03   21.71
   0   3 -12   66.11   30.96
   0  -3  12   47.93   23.89
   0  -3  12   42.47   14.31
   0   3 -11  569.13   23.89
   0  -3  11  595.66   29.29
   0  -3  11  555.96   27.71
   0   3 -10  195.67   18.05
   0  -3  10  196.18   14.39
   0  -3  10  214.91   13.55
   0   3  -9 2145.35   40.99
   0  -3   9 2108.89   35.97
   0  -3   9 2078.08   34.40
   0   3  -8  100.95   23.17
   0  -3   8   74.30   19.76
   0  -3   8   90.42   11.02
   0   3  -7  793.56   28.62
   0  -3   7  762.55   17.12
   0  -3   7  756.09   23.98
   0   3  -6  120.80   12.29
   0  -3   6  132.97   12.70
   0  -3   6  119.76   17.50
   0  -3   6  118.72   10.44
   0   3  -5  548.48   15.08
   0  -3   5  542.16   22.78
   0  -3   5  523.05   13.47
   0   3  -4  344.92   13.14
   0  -3   4  405.80   20.87
   0  -3   4  371.12   12.07
   0   3  -312658.94  293.11
   0   3  -312701.04  272.34
   0  -3   312263.30  266.71
   0  -3   312246.35  263.05
   0   3  -2  986.46   18.46
   0  -3   2  961.10   27.20
   0  -3   2  925.70   18.25
   0   3  -1 1394.38   23.93
   0  -3   1 1403.32   24.35
   0   3   0  195.40   13.65
   0  -3   0  199.14   13.52
   0   3   1 1678.22   29.06
   0  -3  -1 1730.44   29.90
   0   3   2  518.61   17.36
   0  -3  -2  523.85   17.22
   0   3   3 6931.80  120.43
   0  -3  -3 6989.93  142.28
   0   3   4 3675.02   57.51
   0  -3  -4 3741.70   58.97
   0   3   5 2161.45   48.38
   0  -3  -5 2179.96   49.98
   0   3   6  188.20   14.23
   0  -3  -6  228.33   15.28
   0   3   7   43.48   13.88
   0  -3  -7   16.16   14.14
   0   3   8 1703.97   34.22
   0  -3  -8 1743.52   35.78
   0   3   9   31.21   15.65
   0  -3  -9    0.80   16.44
   0   3  10   86.72   17.81
   0  -3 -10   86.68   18.82
   0   3  11  790.43   40.83
   0  -3 -11  748.81   30.09
   0   3  12   43.51   32.19
   0  -3 -12   52.49   20.98
   0   3  13   34.92   21.18
   0  -3 -13   32.07   37.29
   0   4 -12  678.99   26.05
   0  -4  12  563.21   33.01
   0  -4  12  672.27   31.42
   0   4 -11 1009.78   29.14
   0  -4  11  929.55   24.58
   0  -4  11  956.29   34.38
   0   4 -10   12.06   16.08
   0  -4  10   57.27   13.59
   0  -4  10   40.46   12.95
   0   4  -9  916.21   24.20
   0  -4   9  876.01   31.38
   0  -4   9  900.60   29.97
   0   4  -8  658.52   29.97
   0  -4   8  649.44   18.46
   0  -4   8  649.87   25.53
   0   4  -7   98.47   13.63
   0  -4   7   93.53   14.76
   0  -4   7   84.47   12.53
   0  -4   7   92.14   11.70
   0   4  -6  408.69   24.34
   0  -4   6  398.70   24.94
   0  -4   6  379.87   13.88
   0   4  -5  335.64   14.25
   0  -4   5  320.26   14.58
   0  -4   5  287.73   13.01
   0   4  -4 2873.91   43.97
   0  -4   4 2844.24   44.18
   0  -4   4 2795.76   42.30
   0   4  -3  620.90   16.23
   0  -4   3  632.65   16.26
   0  -4   3  606.81   15.99
   0   4  -2 2945.44   56.15
   0  -4   2 2814.56   54.80
   0  -4   2 2916.16   43.32
   0   4  -1  854.18   29.56
   0  -4   1  798.53   19.02
   0   4   0 2024.44   32.57
   0  -4   0 1933.28   32.59
   0   4   1 4077.47   65.31
   0  -4  -1 4048.92   66.11
   0   4   2 5748.92   97.79
   0  -4  -2 5776.53   99.21
   0   4   3 4364.12   88.26
   0  -4  -3 4350.05   71.89
   0   4   4  814.26   20.90
   0  -4  -4  801.80   21.50
   0   4   5 3440.85   58.42
   0  -4  -5 3327.74   57.17
   0   4   6   36.11   15.28
   0  -4  -6   44.47   25.09
   0   4   7  -17.09   25.73
   0  -4  -7    8.42   16.07
   0   4   8   21.47   16.71
   0  -4  -8   14.66   17.23
   0   4   9  376.10   21.92
   0  -4  -9  361.90   22.44
   0   4  10   46.48   19.50
   0  -4 -10   63.63   20.02
   0   4  11  398.50   38.67
   0  -4 -11  384.16   25.68
   0   4  12  371.51   42.41
   0  -4 -12  311.39   44.42
   0   4  13   -3.04   23.30
   0  -4 -13  -15.31   41.53
   0   5 -12    9.85   19.45
   0  -5  12   25.96   15.92
   0  -5  12   24.02   24.50
   0   5 -11   31.97   17.58
   0  -5  11    8.75   15.22
   0  -5  11   11.46   14.49
   0   5 -10  507.72   22.21
   0  -5  10  421.54   30.74
   0  -5  10  474.24   18.57
   0   5  -9  231.76   17.70
   0  -5   9  201.01   16.09
   0  -5   9  176.53   15.06
   0   5  -8  340.64   17.78
   0  -5   8  355.58   19.79
   0  -5   8  320.03   26.23
   0  -5   8  328.38   24.60
   0   5  -7  613.41   20.81
   0  -5   7  684.47   21.66
   0  -5   7  644.55   19.55
   0  -5   7  593.27   18.47
   0   5  -6  259.95   15.67
   0  -5   6  282.79   26.64
   0  -5   6  239.46   14.65
   0  -5   5 1084.16   24.41
   0  -5   5 1024.27   21.79
   0   5  -4 1586.75   29.12
   0  -5   4 1592.90   29.91
   0  -5   4 1541.34   38.68
   0   5  -3  410.45   16.31
   0  -5   3  422.99   15.70
   0  -5   3  407.49   24.87
   0   5  -2  177.53   14.03
   0  -5   2  175.68   13.53
   0  -5   2  227.96   23.00
   0   5  -1 1158.39   24.17
   0  -5   1 1159.84   35.49
   0   5   0 2265.34   38.59
   0  -5   0 2272.60   39.11
   0   5   1 4404.88   74.25
   0  -5  -1 4457.22   76.19
   0   5   2  435.69   18.99
   0  -5  -2  432.90   18.94
   0   5   3 1474.92   30.32
   0  -5  -3 1395.64   30.17
   0   5   4 2462.80   45.13
   0  -5  -4 2481.55   62.36
   0   5   5   18.74   16.10
   0  -5  -5   37.77   16.63
   0   5   6 1933.57   40.45
   0  -5  -6 1983.86   41.91
   0   5   7 1818.07   57.10
   0  -5  -7 1803.74   40.85
   0   5   8 2076.98   65.70
   0  -5  -8 2095.90   47.33
   0   5   9   12.65   20.30
   0  -5  -9  -37.01   19.84
   0   5  10  212.55   24.07
   0  -5 -10  232.34   24.83
   0   5  11  536.00   47.01
   0  -5 -11  524.24   29.76
   0   5  12  699.85   49.92
   0  -5 -12  616.76   52.73
   0   5  13   46.46   25.18
   0  -5 -13   42.71   45.82
   0   6 -11  439.94   23.77
   0  -6  11  372.99   21.97
   0  -6  11  385.67   19.93
   0  -6  10  351.98   30.96
   0  -6  10  349.39   18.85
   0  -6   9  177.52   17.51
   0  -6   9  180.85   16.07
   0  -6   8   53.37   27.72
   0  -6   8   -6.55   25.56
   0  -6   8    5.28   14.10
   0  -6   7   86.56   18.12
   0  -6   7   75.54   14.91
   0  -6   6  445.17   20.26
   0  -6   6  421.46   27.57
   0  -6   5  898.23   24.72
   0  -6   5  857.53   22.47
   0   6  -4    2.24   14.52
   0  -6   4   40.80   24.10
   0  -6   4   29.01   14.30
   0   6  -3  253.56   17.08
   0  -6   3  239.17   15.82
   0  -6   3  277.25   26.92
   0   6  -2  101.50   15.50
   0  -6   2   97.93   14.38
   0  -6   2   88.00   15.55
   0   6  -1  160.71   16.92
   0  -6   1  168.55   16.82
   0   6   0 3260.79   57.62
   0  -6   0 3258.16   58.05
   0   6   1   67.82   28.15
   0  -6  -1  114.98   17.50
   0   6   2   91.69   28.69
   0  -6  -2   79.45   17.38
   0   6   3  373.75   21.68
   0  -6  -3  366.92   21.14
   0   6   4 1418.63   35.06
   0  -6  -4 1471.67   35.75
   0   6   5   91.54   32.18
   0  -6  -5   77.93   19.96
   0   6   6 3425.05   69.49
   0  -6  -6 3432.12   70.60
   0   6   710606.04  259.81
   0  -6  -710848.39  273.84
   0   6   8  578.15   44.78
   0  -6  -8  564.16   28.94
   0   6   9    4.98   22.07
   0  -6  -9   -4.15   22.58
   0   6  10   -6.47   23.63
   0  -6 -10   51.35   23.97
   0   6  11  684.91   33.19
   0  -6 -11  662.09   35.65
   0   6  12  143.09   45.05
   0  -6 -12  128.71   28.67
   0  -7  10  303.72   21.24
   0  -7  10  288.74   19.57
   0  -7   9   69.00   21.15
   0  -7   9   41.82   18.24
   0  -7   9   30.28   16.18
   0  -7   8  477.78   24.50
   0  -7   8  450.38   22.69
   0  -7   8  466.46   20.87
   0  -7   7 1014.08   47.40
   0  -7   7  983.08   40.46
   0  -7   6 1883.97   42.02
   0  -7   6 1796.52   39.10
   0  -7   5  204.77   19.77
   0  -7   5  247.48   18.07
   0   7  -4  317.58   20.33
   0  -7   4  345.42   19.32
   0  -7   4  316.83   19.11
   0   7  -3  124.28   18.05
   0  -7   3   90.49   17.08
   0  -7   3  178.17   28.37
   0   7  -2 3112.50   79.42
   0  -7   2 3179.52   59.40
   0  -7   2 3152.90   60.31
   0   7  -1  490.03   22.89
   0  -7   1  473.79   22.07
   0  -7   1  458.07   22.29
   0   7   0  595.71   24.27
   0  -7   0  590.96   24.82
   0   7   1  213.98   20.76
   0  -7  -1  220.35   34.25
   0   7   2 3082.34   62.46
   0  -7  -2 3010.63   85.03
   0   7   3  108.97   34.58
   0  -7  -3   72.11   20.83
   0   7   4  458.87   26.97
   0  -7  -4  495.17   27.02
   0   7   5  -40.43   21.43
   0  -7  -5   15.02   21.57
   0   7   6 2171.44   51.62
   0  -7  -6 2102.57   52.53
   0   7   7  613.51   47.87
   0  -7  -7  576.12   31.12
   0   7   8  982.04   57.61
   0  -7  -8 1085.20   38.64
   0   7   9 2039.47   55.59
   0  -7  -9 2132.34   58.80
   0   7  10   26.55   26.13
   0  -7 -10   40.71   43.97
   0   7  11  154.96   29.34
   0  -7 -11  185.46   48.26
   0  -8   9   74.17   23.08
   0  -8   9   47.43   20.75
   0  -8   9   47.05   30.37
   0  -8   8  244.94   40.61
   0  -8   8  191.94   31.78
   0  -8   7  -27.51   20.88
   0  -8   7    0.35   17.91
   0  -8   6  118.45   21.16
   0  -8   6  129.00   19.32
   0  -8   5  101.83   33.17
   0  -8   5   83.13   19.08
   0   8  -4  113.75   19.90
   0  -8   4   73.92   19.11
   0  -8   4   61.81   18.52
   0   8  -3  369.87   23.89
   0  -8   3  359.75   22.22
   0  -8   3  363.35   22.59
   0   8  -2 4980.36  102.94
   0  -8   2 5049.25  126.10
   0  -8   2 4921.97  101.73
   0   8  -1   53.42   21.10
   0  -8   1   69.13   19.87
   0  -8   1   34.66   34.65
   0   8   0   42.89   20.80
   0  -8   0   31.50   21.28
   0   8   1  113.54   22.35
   0  -8  -1   88.59   22.46
   0   8   2  421.55   26.43
   0  -8  -2  390.00   26.83
   0   8   3 1657.85   44.61
   0  -8  -3 1613.12   65.98
   0   8   4 1351.06   42.00
   0  -8  -4 1340.71   43.42
   0   8   5  300.36   28.18
   0  -8  -5  214.76   27.41
   0   8   6  134.49   27.68
   0  -8  -6  160.99   27.15
   0   8   7  316.63   48.24
   0  -8  -7  372.78   31.44
   0   8   8 1833.21   55.62
   0  -8  -8 1938.25   84.38
   0   8   9  406.34   32.94
   0  -8  -9  319.53   53.52
   0   8  10   86.13   29.30
   0  -8 -10   -0.83   31.13
   0  -9   8  102.57   25.80
   0  -9   8   72.14   33.26
   0  -9   7  -13.69   23.01
   0  -9   7   -2.56   19.92
   0  -9   6  811.77   33.16
   0  -9   6  835.72   30.34
   0  -9   5  220.62   40.11
   0  -9   5  278.83   23.68
   0   9  -4  892.18   33.56
   0  -9   4  914.81   31.80
   0  -9   4  875.68   31.77
   0   9  -3  581.27   30.72
   0  -9   3  607.07   28.59
   0  -9   3  658.01   28.85
   0   9  -2 2572.77   61.19
   0  -9   2 2591.68   59.39
   0  -9   2 2550.38   84.30
   0   9  -1   74.75   24.10
   0  -9   1  120.52   23.54
   0  -9   1   65.82   24.25
   0   9   0 1596.56   46.53
   0  -9   0 1633.48   45.53
   0  -9   0 1679.84   46.80
   0   9   1  309.92   28.67
   0  -9  -1  378.40   29.16
   0   9   2   32.37   24.97
   0  -9  -2   42.07   24.83
   0   9   3 1849.16   53.09
   0  -9  -3 1912.95   55.82
   0   9   4   85.24   46.66
   0  -9  -4  294.03   48.62
   0   9   5  779.71   39.84
   0  -9  -5  792.94   40.52
   0   9   6   36.38   48.22
   0  -9  -6   72.03   29.42
   0   9   7  213.85   32.83
   0  -9  -7  230.11   33.17
   0   9   8  300.23   34.98
   0  -9  -8  302.73   56.82
   0   9   9  265.86   35.59
   0  -9  -9  276.59   36.10
   0 -10   6   27.83   24.68
   0 -10   6   16.18   22.53
   0 -10   5  253.25   44.10
   0 -10   5  203.26   25.57
   0  10  -4 1111.50   60.05
   0 -10   4  987.54   56.78
   0 -10   4 1001.57   56.32
   0  10  -3   11.12   42.02
   0 -10   3   16.10   23.82
   0 -10   3   35.98   24.15
   0  10  -2  391.95   48.28
   0 -10   2  326.65   28.65
   0 -10   2  299.53   28.53
   0  10  -1   48.39   43.15
   0 -10   1  -30.42   25.22
   0 -10   1   21.68   24.58
   0  10   0  279.40   29.63
   0 -10   0  235.42   29.06
   0 -10   0  197.34   29.37
   0  10   1   42.67   27.97
   0 -10  -1   19.58   27.47
   0  10   2  513.54   36.24
   0 -10  -2  525.25   34.84
   0  10   3  472.99   36.43
   0 -10  -3  548.52   37.15
   0  10   4  702.55   40.97
   0 -10  -4  728.10   40.60
   0  10   5   -1.48   30.01
   0 -10  -5   24.63   31.48
   0  10   6   69.40   53.42
   0 -10  -6   52.15   33.38
   0  10   7  325.39   37.25
   0 -10  -7  307.16   38.67
   0  11  -3  934.64   43.32
   0 -11   3  951.80   63.44
   0 -11   3 1007.76   62.19
   0  11  -2   56.14   29.60
   0 -11   2   27.22   44.63
   0 -11   2   59.77   27.70
   0  11  -1  342.43   34.80
   0 -11   1  317.77   53.42
   0 -11   1  336.11   32.41
   0  11   0   14.48   29.32
   0 -11   0  -11.09   29.45
   0 -11   0    9.27   28.41
   0  11   1  133.67   51.15
   0 -11  -1   70.51   30.69
   0 -11  -1   30.29   31.37
   0  11   2  -14.24   31.80
   0 -11  -2   21.90   31.67
   0  11   3   18.77   33.98
   0 -11  -3  116.77   34.00
   0  11   4  387.07   40.32
   0 -11  -4  383.37   41.04
   0 -11  -5  115.85   59.84
   1 -11  -3  328.99   62.17
  -1  11   3  286.78   38.95
   1 -11  -2  461.77   41.84
   1 -11  -2  463.19   39.66
  -1  11   2  427.52   63.62
   1 -11  -1  108.59   55.49
   1 -11  -1   79.09   32.25
  -1  11   1  123.59   32.54
   1 -11   0  223.58   57.71
   1 -11   0  235.62   32.41
  -1  11   0  275.01   33.99
   1 -11   1   97.52   33.32
   1 -11   1  156.33   47.54
  -1  11  -1  121.42   51.31
   1 -10  -6  137.87   37.38
  -1  10   6  126.32   35.24
   1 -10  -5  224.59   36.53
  -1  10   5  241.21   35.25
   1 -10  -4   -0.16   31.15
  -1  10   4   23.33   31.16
   1 -10  -3   63.49   30.61
  -1  10   3  124.53   30.93
   1 -10  -2  264.04   52.35
  -1  10   2  297.73   32.68
   1 -10  -1  360.51   35.26
   1 -10  -1  364.17   32.19
  -1  10   1  458.54   52.78
   1 -10   0  112.88   29.82
   1 -10   0   85.64   42.45
  -1  10   0  107.17   28.00
   1 -10   1   -3.20   28.19
   1 -10   1   15.88   24.29
  -1  10  -1   72.26   26.44
   1 -10   2  231.05   29.61
   1 -10   2  210.16   42.46
  -1  10  -2  277.39   28.79
   1 -10   3   72.67   27.25
   1 -10   3   35.65   23.94
  -1  10  -3   45.07   25.56
   1 -10   4   78.97   27.64
   1 -10   4   55.85   23.30
  -1  10  -4   32.63   25.19
   1 -10   5  386.14   32.94
   1 -10   5  373.72   42.67
  -1  10  -5  430.99   30.37
   1  -9  -8   40.36   33.37
  -1   9   8   12.66   53.65
   1  -9  -7  149.37   55.39
  -1   9   7  218.87   33.65
   1  -9  -6  878.32   43.12
  -1   9   6  854.95   43.89
   1  -9  -5  780.64   40.43
  -1   9   5  741.25   40.63
   1  -9  -4  480.43   57.02
  -1   9   4  528.92   34.37
   1  -9  -3   30.01   27.30
  -1   9   3   28.46   26.58
   1  -9  -2  178.04   28.22
  -1   9   2  203.22   27.52
   1  -9  -1  185.17   43.76
  -1   9   1  273.08   27.92
   1  -9   0  532.76   48.95
   1  -9   0  442.03   27.81
  -1   9   0  480.20   47.55
   1  -9   1  351.86   46.77
   1  -9   1  336.47   41.34
  -1   9  -1  355.37   42.96
   1  -9   2  775.36   53.93
   1  -9   2  770.25   30.97
  -1   9  -2  770.50   49.83
   1  -9   3  708.81   51.04
   1  -9   3  697.63   44.85
  -1   9  -3  720.26   47.20
   1  -9   4  405.70   47.28
   1  -9   4  450.10   25.40
  -1   9  -4  418.10   42.42
   1  -9   5  322.18   28.68
   1  -9   5  346.51   24.35
  -1   9  -5  401.22   26.51
   1  -9   6  282.38   28.97
   1  -9   6  321.01   36.68
   1  -9   7  440.05   31.89
   1  -9   7  464.14   38.47
   1  -8 -10  206.64   34.15
  -1   8  10   98.03   55.14
   1  -8  -9   89.64   31.83
  -1   8   9   95.35   51.44
   1  -8  -8   85.53   49.16
  -1   8   8  121.42   30.41
   1  -8  -7  435.81   34.78
  -1   8   7  425.36   34.09
   1  -8  -6  184.57   29.51
  -1   8   6  145.54   28.61
   1  -8  -5   14.77   24.94
  -1   8   5    2.43   42.81
   1  -8  -4   31.96   42.07
  -1   8   4   49.57   26.31
   1  -8  -3  654.49   32.54
  -1   8   3  667.14   49.98
   1  -8  -2  331.10   27.20
  -1   8   2  332.99   26.57
   1  -8  -1  579.49   28.43
  -1   8   1  560.23   28.60
   1  -8   0  364.15   26.90
   1  -8   0  399.88   24.29
  -1   8   0  385.46   25.50
   1  -8   1   16.07   21.60
   1  -8   1   10.92   18.98
  -1   8  -1   21.20   19.88
   1  -8   2 4020.54   85.81
   1  -8   2 4130.00  105.82
  -1   8  -2 3969.17   82.22
   1  -8   3  262.38   24.06
   1  -8   3  223.88   20.86
  -1   8  -3  281.56   22.23
   1  -8   4 1122.16   55.96
   1  -8   4 1176.64   45.30
  -1   8  -4 1214.41   50.10
   1  -8   5  636.86   30.12
   1  -8   5  631.06   24.43
  -1   8  -5  685.80   26.95
   1  -8   6  368.91   26.92
   1  -8   6  289.16   20.57
   1  -8   7   89.25   23.82
   1  -8   7   64.33   27.86
   1  -8   8  404.81   31.21
   1  -8   8  438.42   33.31
   1  -8   9   -3.87   29.82
   1  -8   9   22.63   16.99
   1  -7 -11  -15.64   31.22
  -1   7  11   26.11   49.16
   1  -7 -10   61.90   29.52
  -1   7  10  104.37   47.51
   1  -7  -9 1023.79   67.84
  -1   7   9 1091.74   64.96
   1  -7  -8  -20.83   27.21
  -1   7   8   76.50   25.96
   1  -7  -7 1139.05   41.73
  -1   7   7 1153.64   40.11
   1  -7  -6   49.37   24.67
  -1   7   6    3.37   24.09
   1  -7  -5  480.84   28.65
  -1   7   5  426.40   44.82
   1  -7  -4  178.14   38.57
  -1   7   4  183.25   24.53
   1  -7  -3 3513.81   74.16
  -1   7   3 3618.62   76.39
   1  -7  -2   88.44   20.99
  -1   7   2   57.07   21.27
   1  -7  -1 1089.10   31.87
  -1   7   1 1082.55   32.40
   1  -7   0  548.35   24.16
  -1   7   0  534.20   24.32
   1  -7   112263.70  307.96
   1  -7   111831.84  330.56
  -1   7  -112004.05  296.90
   1  -7   2 5277.49  106.08
   1  -7   2 5150.62  101.25
  -1   7  -2 5282.62  125.19
   1  -7   3 2836.48   57.54
   1  -7   3 2882.81   52.98
  -1   7  -3 2841.02   54.60
   1  -7   4   55.70   32.24
   1  -7   4   58.33   15.60
  -1   7  -4   78.80   17.07
   1  -7   5  177.93   21.18
   1  -7   5  182.41   16.60
  -1   7  -5  177.57   18.09
   1  -7   6 1052.24   33.99
   1  -7   6 1128.61   27.07
   1  -7   7   60.92   35.42
   1  -7   7   28.05   23.91
   1  -7   8   56.03   36.11
   1  -7   8   25.30   14.96
   1  -7   9  134.13   25.16
   1  -7   9  111.33   17.72
   1  -7   9  141.81   16.44
   1  -7  10   60.73   16.48
   1  -7  10   35.23   15.87
   1  -6 -12   88.31   31.16
  -1   6  12  114.70   30.17
   1  -6 -11  497.39   56.55
  -1   6  11  456.06   54.07
   1  -6 -10   45.54   26.91
  -1   6  10  -12.31   43.19
   1  -6  -9   83.64   25.86
  -1   6   9  132.32   41.98
   1  -6  -8   92.41   25.06
  -1   6   8   40.42   24.00
   1  -6  -7  665.21   32.49
  -1   6   7  696.87   30.91
   1  -6  -6 1122.30   35.92
  -1   6   6 1123.05   35.83
   1  -6  -5 1163.52   53.60
  -1   6   5 1123.15   52.83
   1  -6  -4 2197.64   67.94
  -1   6   4 2191.28   48.35
   1  -6  -3  486.53   23.61
  -1   6   3  472.69   23.69
   1  -6  -2 3081.48   59.75
  -1   6   2 3089.56   78.03
   1  -6  -1  976.92   26.61
  -1   6   1  927.85   41.48
   1  -6   0  195.87   17.40
  -1   6   0  166.99   28.14
   1  -6   1  259.33   30.31
   1  -6   1  244.03   16.89
  -1   6  -1  211.44   17.08
   1  -6   2  -18.91   16.55
   1  -6   2   -6.19   13.70
  -1   6  -2  -36.80   14.65
   1  -6   3  232.24   29.57
   1  -6   3  246.09   24.08
  -1   6  -3  248.47   16.49
   1  -6   4  401.09   20.73
   1  -6   4  371.34   16.04
  -1   6  -4  428.95   28.08
   1  -6   5   10.70   17.56
   1  -6   5   27.07   12.70
  -1   6  -5    3.05   14.10
   1  -6   6  598.79   38.62
   1  -6   6  585.85   18.27
   1  -6   7 1360.52   38.05
   1  -6   7 1383.60   38.71
   1  -6   8  575.29   26.42
   1  -6   8  495.49   28.45
   1  -6   8  547.32   18.85
   1  -6   9  209.94   23.53
   1  -6   9  124.19   14.90
   1  -6   9  139.06   14.74
   1  -6  10  406.70   17.75
  -1   6 -10  417.99   26.22
  -1   6 -11  403.81   26.55
   1  -5 -12  -10.79   26.98
  -1   5  12   26.51   26.48
   1  -5 -11   63.70   26.63
  -1   5  11   94.97   26.56
   1  -5 -10  603.50   32.52
  -1   5  10  581.82   50.32
   1  -5  -9 1658.81   67.23
  -1   5   9 1702.72   66.86
   1  -5  -8  641.16   46.14
  -1   5   8  681.39   46.75
   1  -5  -712648.05  341.25
  -1   5   712837.96  335.42
   1  -5  -6 1308.42   35.54
  -1   5   6 1357.24   35.66
   1  -5  -5 1621.38   38.11
  -1   5   5 1711.39   38.34
   1  -5  -4 2845.87   54.73
  -1   5   4 2985.00   55.39
   1  -5  -3 4719.92   86.10
  -1   5   3 4730.69  105.84
   1  -5  -2 1280.37   29.22
  -1   5   2 1262.40   41.21
   1  -5  -1  354.40   17.22
  -1   5   1  369.93   28.24
   1  -5   0   25.68   13.56
  -1   5   0   16.95   13.33
   1  -5   1  337.93   27.65
   1  -5   1  324.92   16.03
  -1   5  -1  335.33   15.57
   1  -5   2 1412.87   29.28
   1  -5   2 1397.19   25.56
  -1   5  -2 1433.04   26.31
   1  -5   3  784.05   22.91
   1  -5   3  782.63   18.43
  -1   5  -3  837.06   19.37
   1  -5   4 2299.28   43.00
   1  -5   4 2275.52   35.54
  -1   5  -4 2422.80   49.54
   1  -5   5 1465.74   32.01
   1  -5   5 1384.76   24.92
   1  -5   6  654.72   23.79
   1  -5   6  661.95   25.21
  -1   5  -6  651.92   23.10
   1  -5   7 1549.50   51.48
   1  -5   7 1474.47   26.23
  -1   5  -7 1479.62   49.23
   1  -5   8  157.26   20.47
   1  -5   8  128.37   20.45
   1  -5   8  145.80   19.93
  -1   5  -8  202.90   19.01
   1  -5   9   23.11   12.12
   1  -5   9   55.41   18.88
  -1   5  -9   39.52   18.58
   1  -5  10  495.86   17.90
   1  -5  10  559.78   25.27
  -1   5 -10  527.76   25.44
   1  -5  11   42.95   21.20
   1  -5  11   29.75   20.35
  -1   5 -11   39.99   20.76
   1  -4 -13  385.23   52.35
  -1   4  13  431.44   31.12
   1  -4 -12   -8.60   26.08
  -1   4  12   37.12   24.15
   1  -4 -11    5.69   23.60
  -1   4  11    6.33   37.07
   1  -4 -10  161.08   23.73
  -1   4  10  159.50   36.88
   1  -4  -9  907.43   32.85
  -1   4   9  934.03   30.77
   1  -4  -8  -32.27   31.96
  -1   4   8   28.76   18.71
  -1   4   7  293.69   33.78
   1  -4  -6  125.98   30.00
  -1   4   6  125.16   17.82
   1  -4  -5 1762.68   51.01
  -1   4   5 1751.99   35.48
   1  -4  -4  337.52   28.94
  -1   4   4  327.03   28.87
   1  -4  -3 1232.39   39.94
  -1   4   3 1305.12   28.03
   1  -4  -210055.70  210.91
  -1   4   210203.10  210.22
   1  -4  -1 2755.35   44.72
  -1   4   1 2824.94   45.19
   1  -4   0  229.25   14.23
  -1   4   0  260.39   14.46
   1  -4   1  295.39   24.69
   1  -4   1  299.41   21.22
  -1   4  -1  291.23   20.97
   1  -4   2  -18.84   21.65
   1  -4   2   23.98   10.18
  -1   4  -2   14.19   10.27
   1  -4   3  162.67   14.12
   1  -4   3  161.12   10.80
  -1   4  -3  157.50   10.96
   1  -4   4  340.27   16.68
   1  -4   4  346.96   11.92
  -1   4  -4  314.80   16.49
  -1   4  -4  348.71   12.23
   1  -4   5  509.70   18.63
   1  -4   5  471.82   13.05
  -1   4  -5  509.46   18.72
   1  -4   6 1964.99   39.00
   1  -4   6 1938.93   28.95
  -1   4  -6 1938.95   37.36
   1  -4   7 1256.57   42.72
   1  -4   7 1199.19   21.58
   1  -4   7 1250.06   28.49
  -1   4  -7 1193.89   28.74
   1  -4   8  790.07   17.17
  -1   4  -8  895.12   37.89
   1  -4   9   69.70   18.40
   1  -4   9   88.19   17.09
  -1   4  -9   49.72   17.77
   1  -4  10   10.00   11.28
   1  -4  10   14.89   17.40
  -1   4 -10  -13.66   18.09
   1  -4  11  599.45   17.86
   1  -4  11  620.38   25.41
  -1   4 -11  693.12   27.79
  -1   4 -12 1338.58   39.45
   1  -3 -13  111.49   44.00
  -1   3  13  115.82   24.33
   1  -3 -12  541.42   31.25
  -1   3  12  577.55   28.85
   1  -3 -11 1057.52   37.47
  -1   3  11 1042.21   50.73
   1  -3 -10  647.67   28.51
  -1   3  10  707.52   28.29
   1  -3  -9  161.35   20.67
  -1   3   9  203.91   20.78
   1  -3  -8  153.09   31.26
  -1   3   8  154.75   18.95
   1  -3  -7  107.54   28.43
  -1   3   7   98.06   17.25
   1  -3  -6 1327.43   29.30
  -1   3   6 1388.62   29.56
   1  -3  -5  486.80   19.31
  -1   3   5  484.08   29.24
   1  -3  -4  360.64   27.63
  -1   3   4  330.49   16.58
   1  -3  -3  -21.87   14.01
  -1   3   3   23.08   22.08
   1  -3  -2 5154.73   84.19
  -1   3   2 5023.87   99.98
   1  -3  -1   76.55   21.63
  -1   3   1   52.52   12.45
   1  -3   0 1039.02   20.34
  -1   3   0 1078.54   20.33
   1  -3   1 6461.13  108.30
   1  -3   1 6270.68   99.56
  -1   3  -1 6432.77  101.46
   1  -3   2 1132.43   22.29
   1  -3   2 1099.16   25.25
  -1   3  -2 1163.63   18.30
   1  -3   3 3361.20   52.09
   1  -3   3 3185.48   42.84
  -1   3  -3 3385.37   52.41
  -1   3  -3 3300.02   43.92
   1  -3   4 1593.50   29.09
   1  -3   4 1584.31   21.59
  -1   3  -4 1665.49   29.19
   1  -3   5  511.57   17.84
   1  -3   5  473.58   10.88
  -1   3  -5  478.78   17.29
   1  -3   6  883.31   22.25
   1  -3   6  881.53   15.26
  -1   3  -6  887.50   33.30
   1  -3   7  164.55    9.60
   1  -3   7  165.33    9.43
  -1   3  -7  180.00   15.82
   1  -3   8   70.49    9.74
   1  -3   8   60.50    9.07
  -1   3  -8   59.01   15.82
   1  -3   9    5.82   15.34
   1  -3   9    2.64   14.75
  -1   3  -9   -4.20   26.83
   1  -3  10  544.71   15.12
   1  -3  10  506.97   21.94
  -1   3 -10  512.56   36.88
   1  -3  11  627.42   23.88
  -1   3 -11  673.45   41.71
   1  -3  12  318.26   22.67
   1  -3  12  302.43   14.21
  -1   3 -13  220.65   25.14
   1  -2 -13   72.10   24.60
  -1   2  13   48.78   22.60
   1  -2 -12   28.56   22.04
  -1   2  12   -3.64   20.66
   1  -2 -11  402.22   24.96
  -1   2  11  360.81   23.81
  -1   2  10  785.68   27.27
   1  -2  -9  249.61   20.78
  -1   2   9  203.97   19.08
   1  -2  -8  345.23   19.84
  -1   2   8  327.29   30.03
   1  -2  -7   -2.78   14.51
  -1   2   7    9.49   14.37
   1  -2  -6  816.10   22.07
  -1   2   6  914.83   22.01
   1  -2  -5  708.82   19.82
  -1   2   5  677.87   29.64
   1  -2  -4   41.92   13.44
  -1   2   4   43.28   13.09
   1  -2  -3 4720.87   76.03
  -1   2   3 4793.01   75.82
   1  -2  -2   47.51   22.54
  -1   2   2   -4.66   13.06
   1  -2  -1 8749.27  158.60
  -1   2   1 8770.25  158.54
   1  -2   0 8004.65  135.86
  -1   2   0 8206.91  138.56
   1  -2   1 3120.67   46.49
   1  -2   1 3030.44   38.88
  -1   2  -1 3093.66   39.74
   1  -2   2 2037.79   32.62
   1  -2   2 1987.04   31.34
  -1   2  -2 2086.70   33.79
  -1   2  -2 2052.18   32.03
   1  -2   311018.84  228.92
   1  -2   310890.23  202.17
  -1   2  -311117.82  229.43
  -1   2  -311249.23  220.43
   1  -2   4 6856.10  118.63
   1  -2   4 6625.76  107.05
  -1   2  -4 6647.03  136.09
   1  -2   5 2784.54   55.93
   1  -2   5 2676.05   38.57
   1  -2   5 2681.37   32.72
  -1   2  -5 2802.44   44.91
   1  -2   6 1280.25   17.14
   1  -2   6 1289.98   17.53
  -1   2  -6 1379.14   27.24
   1  -2   7  -13.93   11.88
   1  -2   7   12.64   11.37
  -1   2  -7    9.99   14.35
   1  -2   8 1284.11   19.47
   1  -2   8 1254.48   19.17
  -1   2  -8 1360.19   30.43
   1  -2   9  744.58   22.59
   1  -2   9  705.21   14.75
  -1   2  -9  729.50   24.82
   1  -2  10  156.93   17.75
   1  -2  10  138.21   10.34
  -1   2 -10  189.01   19.70
   1  -2  11  531.75   15.83
   1  -2  11  514.61   14.74
  -1   2 -11  615.84   26.56
   1  -2  12  425.92   15.92
   1  -2  12  432.28   22.90
  -1   2 -12  490.47   27.37
  -1   2 -13  158.29   40.13
   1  -1 -13  486.86   26.03
   1  -1 -13  441.35   29.49
  -1   1  13  439.41   26.14
   1  -1 -12   -1.79   33.74
  -1   1  12   38.53   30.99
   1  -1 -11  277.01   22.33
  -1   1  11  304.72   20.86
   1  -1 -10 2999.43   60.68
  -1   1  10 2978.24   75.63
   1  -1  -9  112.98   16.94
  -1   1   9  105.66   16.75
   1  -1  -8 2849.24   51.86
  -1   1   8 2930.33   51.62
   1  -1  -7 1791.57   34.14
  -1   1   7 1826.43   45.47
   1  -1  -6  141.41   13.69
  -1   1   6  100.48   13.59
   1  -1  -518188.18  508.92
  -1   1   518801.68  516.24
   1  -1  -4 2328.97   49.83
  -1   1   4 2200.24   35.14
   1  -1  -3  413.18   26.35
  -1   1   3  401.03   15.90
   1  -1  -2 3851.56   58.24
  -1   1   2 3943.07   58.03
   1  -1  -1 8429.37  143.32
  -1   1   1 8514.40  143.28
   1  -1   0 1991.20   26.56
   1  -1   0 1918.41   31.61
  -1   1   0 1967.31   31.33
   1  -1   116005.56  368.86
   1  -1   115962.74  351.46
  -1   1  -114580.78  372.40
   1  -1   2 3994.14   76.03
   1  -1   2 3912.60   42.77
  -1   1  -2 4017.24   60.17
  -1   1  -2 4081.08   44.49
   1  -1   3   57.46   12.13
   1  -1   3   55.26    4.62
   1  -1   3   50.07    8.00
  -1   1  -3   58.43   12.65
   1  -1   413048.95  300.18
   1  -1   413818.79  286.89
   1  -1   413364.20  269.71
  -1   1  -413184.01  328.07
   1  -1   5 2642.47   30.23
  -1   1  -5 2708.76   42.92
   1  -1   6  193.55   11.47
  -1   1  -6  176.55   14.58
   1  -1   7   62.40   12.02
  -1   1  -7   44.63   14.57
   1  -1   8 2170.10   37.54
  -1   1  -8 2231.84   42.28
   1  -1   911075.29  250.20
  -1   1  -911207.22  274.04
   1  -1  10   47.16   17.08
  -1   1 -10   85.01   18.42
   1  -1  11   99.07   19.26
  -1   1 -11  115.55   32.95
   1  -1  12   13.57   12.43
  -1   1 -12   29.42   21.10
   1  -1  13  287.90   16.49
   1  -1  13  307.81   15.56
  -1   1 -13  326.38   27.59
   1   0 -13   64.61   32.63
  -1   0  13   26.38   19.16
   1   0 -12  268.94   20.64
   1   0 -12  291.96   23.27
  -1   0  12  323.39   34.01
   1   0 -11   86.40   27.07
   1   0 -11   99.96   31.00
  -1   0  11   46.28   17.99
   1   0 -10   12.22   14.51
   1   0 -10    9.73   16.87
  -1   0  10   -3.15   15.36
   1   0  -9 1820.30   37.96
  -1   0   9 1907.78   49.60
   1   0  -8   27.54   14.21
  -1   0   8   22.76   13.52
   1   0  -7  401.37   16.87
   1   0  -6  511.56   16.89
  -1   0   6  514.95   16.01
   1   0  -5 4213.83   66.16
  -1   0   5 4317.77   80.84
   1   0  -4 3927.29   60.98
  -1   0   4 4094.76   61.39
   1   0  -3 1243.72   23.92
  -1   0   3 1191.03   22.65
   1   0  -2  762.09   17.86
  -1   0   2  733.15   16.55
   1   0  -112515.79  248.20
  -1   0   112515.87  261.18
   1   0   1  258.52   15.01
  -1   0  -1  254.47    9.78
  -1   0  -1  261.50    4.11
  -1   0  -2  232.72   12.54
  -1   0  -2  241.34    4.38
   1   0   315516.20  327.46
  -1   0  -314723.09  316.88
   1   0   4   52.05    9.05
  -1   0  -4   49.99    5.64
   1   0   5 8473.14  146.14
  -1   0  -5 8422.98  158.53
  -1   0  -5 8261.62  148.17
   1   0   6 2038.78   25.11
  -1   0  -6 2041.45   35.00
  -1   0  -6 2046.85   26.09
   1   0   7    3.19   12.51
  -1   0  -7   40.70   22.66
  -1   0  -7  -17.47   12.82
   1   0   8  189.62    9.90
  -1   0  -8  188.36   16.44
  -1   0  -8  156.33   10.46
   1   0   9  126.21   17.68
  -1   0  -9  164.75   18.09
   1   0  10 1610.66   26.84
  -1   0 -10 1589.67   54.11
   1   0  11  430.43   15.61
  -1   0 -11  484.96   25.50
   1   0  12  844.77   32.28
  -1   0 -12  909.15   33.22
   1   0  13  265.86   17.30
  -1   0 -13  283.34   27.11
   1   1 -13 1442.32   38.29
  -1  -1  13 1449.14   37.44
   1   1 -12  175.64   19.09
  -1  -1  12  161.44   19.23
   1   1 -11   -8.29   16.01
  -1  -1  11   -3.48   26.83
   1   1 -10  187.54   16.67
  -1  -1  10  231.61   17.06
   1   1  -9 1082.71   34.00
  -1  -1   9 1121.51   25.37
   1   1  -8 1690.49   28.43
   1   1  -8 1663.69   32.80
  -1  -1   8 1685.99   31.93
   1   1  -7 3331.92   60.37
   1   1  -7 3394.64   55.30
  -1  -1   7 3410.36   67.18
   1   1  -6   13.27    8.89
   1   1  -6   11.54   18.74
  -1  -1   6   -6.01   17.72
   1   1  -5 2598.77   52.51
  -1  -1   5 2675.06   52.25
   1   1  -4 1397.12   18.50
   1   1  -4 1409.70   34.81
  -1  -1   4 1434.52   34.32
   1   1  -3 4141.67   58.22
   1   1  -3 4084.91   61.10
  -1  -1   3 4308.79   62.84
   1   1  -2 2488.72   28.34
  -1  -1   2 2530.00   35.81
  -1  -1   1   35.32    2.31
   1   1   1  777.54   10.68
  -1  -1  -1  778.84   10.76
   1   1   2   94.29    6.72
  -1  -1  -2   99.13    6.63
   1   1   3 3852.49   46.49
  -1  -1  -3 3838.27   46.98
   1   1   414149.65  295.43
  -1  -1  -413246.35  299.52
   1   1   5 4322.11   65.44
  -1  -1  -5 4372.82   59.71
   1   1   6  510.96   11.52
  -1  -1  -6  526.52   12.04
   1   1   7 1301.78   20.01
  -1  -1  -7 1363.96   21.91
   1   1   8    9.59    9.63
  -1  -1  -8   21.31   10.09
   1   1   9  738.08   25.64
  -1  -1  -9  749.04   18.76
   1   1  10   17.10   12.17
  -1  -1 -10   28.57   19.04
  -1  -1 -10   -0.48   13.01
   1   1  11  671.28   19.45
  -1  -1 -11  644.18   28.38
  -1  -1 -11  608.68   30.35
   1   1  12   18.83   13.79
  -1  -1 -12   17.10   21.73
  -1  -1 -12  -10.76   23.87
   1   1  13  784.39   24.01
  -1  -1 -13  889.81   52.09
   1   1  14   87.91   18.18
  -1  -1 -14  148.90   27.81
   1   2 -13 1561.80   39.28
  -1  -2  13 1472.84   37.66
   1   2 -12  934.06   40.27
  -1  -2  12  834.34   27.13
   1   2 -11   64.70   15.50
  -1  -2  11   62.66   16.48
   1   2 -10  429.59   18.04
  -1  -2  10  399.21   19.50
   1   2  -9 1961.03   34.38
  -1  -2   9 1879.05   35.96
   1   2  -8 2437.85   50.19
  -1  -2   8 2455.80   42.29
   1   2  -7 2534.75   47.99
  -1  -2   7 2667.53   43.55
   1   2  -6 3397.33   48.75
  -1  -2   6 3631.23   55.01
   1   2  -5  916.53   21.45
  -1  -2   5  920.96   19.08
   1   2  -4 2026.96   31.62
  -1  -2   4 1973.84   30.74
   1   2  -3 3169.73   45.34
  -1  -2   3 3346.72   46.52
  -1  -2   2 3586.38   48.35
  -1  -2   2 3454.40   67.45
   1   2  -1 3583.72   52.15
  -1  -2   1 3588.61   52.51
   1   2   0  240.08   12.52
  -1  -2   0  243.77   21.72
   1   2   1  632.91   15.14
  -1  -2  -1  638.95   15.65
   1   2   2 3928.69   54.46
  -1  -2  -2 3957.53   67.96
   1   2   3 1366.05   20.73
  -1  -2  -3 1362.62   29.90
   1   2   4 9677.43  177.69
  -1  -2  -4 9649.62  179.29
   1   2   5  479.74   12.45
  -1  -2  -5  474.16   12.96
   1   2   6 9993.52  194.00
  -1  -2  -610186.52  202.55
   1   2   7  255.11   11.70
  -1  -2  -7  257.18   12.53
   1   2   8  355.56   13.76
  -1  -2  -8  341.07   22.49
   1   2   9  773.64   19.38
  -1  -2  -9  843.44   31.94
   1   2  10  655.83   19.13
  -1  -2 -10  608.25   31.26
   1   2  11  205.30   25.44
  -1  -2 -11  189.24   28.22
   1   2  12  114.46   16.65
  -1  -2 -12  125.64   29.44
   1   2  13   -8.21   16.94
  -1  -2 -13   29.98   24.99
  -1  -2 -13   -0.56   28.75
  -1  -2 -14  347.51   38.51
   1   3 -13  434.16   34.21
  -1  -3  13  411.96   23.01
  -1  -3  13  439.16   21.86
   1   3 -12   68.94   28.02
  -1  -3  12   69.87   17.97
  -1  -3  12   83.04   16.89
   1   3 -11 1709.51   36.36
  -1  -3  11 1769.10   38.53
  -1  -3  11 1743.76   37.09
   1   3 -10 2462.22   45.01
  -1  -3  10 2394.44   45.70
  -1  -3  10 2382.63   45.01
   1   3  -9 3757.64   64.77
  -1  -3   9 3790.08   67.47
  -1  -3   9 3759.74   66.76
   1   3  -8  592.78   17.06
  -1  -3   8  610.22   30.41
   1   3  -7 5712.28  113.42
  -1  -3   7 6416.46  131.69
  -1  -3   7 6163.24  109.69
   1   3  -6  301.86   11.46
  -1  -3   6  301.09   14.54
  -1  -3   6  308.06   14.09
   1   3  -5 2102.66   28.57
  -1  -3   5 2130.48   28.60
  -1  -3   5 2025.98   43.15
  -1  -3   5 2037.44   43.73
   1   3  -4  360.90   15.61
  -1  -3   4  356.61   15.95
  -1  -3   4  346.17   13.69
  -1  -3   3 1473.48   25.87
  -1  -3   3 1307.44   24.14
   1   3  -2  184.42   13.66
  -1  -3   2  196.63    8.75
  -1  -3   2  210.15   13.47
   1   3  -1 2904.38   60.08
  -1  -3   1 2932.42   60.55
   1   3   0   -3.07   12.73
  -1  -3   0    8.79   21.60
   1   3   1 6387.45  105.66
  -1  -3  -1 6381.71  105.26
   1   3   2 6109.80   99.75
  -1  -3  -2 6039.24   98.82
   1   3   3   45.00   19.71
  -1  -3  -3   74.15   11.89
   1   3   4 2946.35   43.03
  -1  -3  -4 2912.21   43.89
   1   3   5 4620.13   86.12
  -1  -3  -5 4661.11   73.19
   1   3   6   21.01   11.21
  -1  -3  -6  -10.73   11.54
   1   3   7  192.47   21.33
  -1  -3  -7  176.70   13.57
   1   3   8   90.44   13.78
  -1  -3  -8  107.62   22.73
   1   3   9   73.03   14.22
  -1  -3  -9   78.30   24.05
   1   3  10 1202.70   39.61
  -1  -3 -10 1157.71   29.31
   1   3  11  972.67   40.08
  -1  -3 -11  908.45   29.30
   1   3  12   45.32   17.64
  -1  -3 -12    6.46   18.64
   1   3  13  685.74   26.74
  -1  -3 -13  599.68   29.50
   1   4 -12  680.58   23.97
  -1  -4  12  699.10   25.97
  -1  -4  12  703.24   24.76
   1   4 -11    4.32   14.93
  -1  -4  11   21.18   16.46
  -1  -4  11   17.05   15.72
   1   4 -10 1072.60   24.81
  -1  -4  10 1021.00   40.37
  -1  -4  10 1048.11   26.47
   1   4  -9   55.77   12.73
  -1  -4   9   68.24   25.30
  -1  -4   9   80.02   23.25
   1   4  -8  204.09   21.63
  -1  -4   8  201.78   16.35
  -1  -4   8  205.82   15.42
   1   4  -7 1333.97   24.33
  -1  -4   7 1387.32   28.40
  -1  -4   7 1288.71   26.70
   1   4  -6 3900.64   59.38
  -1  -4   6 3890.72   70.64
  -1  -4   6 3798.75   78.96
  -1  -4   6 3833.65   63.45
   1   4  -5   -5.74    9.09
  -1  -4   5   13.57   16.04
  -1  -4   5   -7.38   12.11
  -1  -4   4 6021.54   95.09
  -1  -4   4 5887.53  117.86
   1   4  -3  403.66   15.68
  -1  -4   3  337.48   17.94
  -1  -4   3  356.06   24.13
   1   4  -2  206.23   22.88
  -1  -4   2  181.51   10.17
  -1  -4   2  194.75   14.33
   1   4  -1 3796.98   59.93
  -1  -4   1 3725.41   58.71
   1   4   0  612.92   18.03
  -1  -4   0  602.57   19.07
   1   4   1   63.61   13.63
  -1  -4  -1   74.58   23.01
   1   4   2 1314.51   25.48
  -1  -4  -2 1323.22   25.94
   1   4   3 9266.35  202.57
  -1  -4  -3 9205.44  181.24
   1   4   4 9598.78  212.36
  -1  -4  -4 9478.81  214.34
   1   4   5  605.37   18.32
  -1  -4  -5  606.77   18.48
   1   4   6 2032.83   35.34
  -1  -4  -6 2087.61   49.95
   1   4   7 2880.91   49.34
  -1  -4  -7 2981.11   51.58
   1   4   8 1185.74   40.14
  -1  -4  -8 1165.75   28.15
   1   4   9   -2.39   25.82
  -1  -4  -9   23.24   15.89
   1   4  10 2004.22   58.01
  -1  -4 -10 1918.44   60.28
   1   4  11   23.83   29.50
  -1  -4 -11  -25.98   30.24
   1   4  12   84.99   20.00
  -1  -4 -12   98.69   34.37
   1   4  13   66.21   21.08
   1   5 -12  248.50   19.30
  -1  -5  12  238.90   20.79
  -1  -5  12  265.25   19.78
   1   5 -11 2036.68   42.10
  -1  -5  11 1900.54   43.39
  -1  -5  11 1877.53   56.27
   1   5 -10  673.00   21.59
  -1  -5  10  653.23   37.65
  -1  -5  10  645.67   34.41
   1   5  -9  194.14   14.75
  -1  -5   9  177.07   18.20
  -1  -5   9  134.06   27.00
   1   5  -8   -9.70   19.90
  -1  -5   8   17.47   15.52
  -1  -5   8   39.14   23.11
   1   5  -7  902.43   20.80
  -1  -5   7  959.46   21.44
  -1  -5   7  946.88   37.44
  -1  -5   7  890.61   23.02
  -1  -5   6 1556.66   27.92
  -1  -5   6 1364.08   28.67
  -1  -5   5   71.57   11.70
  -1  -5   5   81.68   14.02
  -1  -5   4   31.24   10.84
  -1  -5   4   23.02   22.50
   1   5  -3 5511.88  115.63
  -1  -5   3 5445.00   87.21
  -1  -5   3 5514.70   96.47
   1   5  -2 2981.65   49.44
  -1  -5   2 2842.25   52.06
  -1  -5   2 2951.72   48.92
   1   5  -110974.69  234.38
  -1  -5   110804.46  260.19
   1   5   0  747.88   21.39
  -1  -5   0  760.58   20.88
   1   5   1  671.47   32.98
  -1  -5  -1  755.70   21.49
   1   5   2 7236.21  133.45
  -1  -5  -2 7118.38  133.03
   1   5   3  970.05   24.50
  -1  -5  -3  990.83   23.77
   1   5   4  627.06   20.28
  -1  -5  -4  550.21   19.98
   1   5   5   39.76   14.94
  -1  -5  -5   49.03   26.27
   1   5   6  520.42   21.35
  -1  -5  -6  583.86   21.42
   1   5   7 1164.78   29.02
  -1  -5  -7 1202.82   29.69
   1   5   8 1974.60   57.17
  -1  -5  -8 2012.74   42.83
   1   5   9  581.18   36.96
  -1  -5  -9  634.10   25.65
   1   5  10  214.88   20.57
  -1  -5 -10  216.01   21.70
   1   5  11  308.70   37.29
  -1  -5 -11  306.79   39.69
   1   5  12  976.44   50.50
  -1  -5 -12  910.26   52.54
   1   5  13  136.09   23.78
  -1  -5 -13  129.01   41.04
  -1  -6  11   55.85   19.95
  -1  -6  11   -3.07   17.26
  -1  -6  10   22.69   30.32
  -1  -6  10   22.93   16.73
  -1  -6   9  225.66   20.09
  -1  -6   9  207.50   18.60
  -1  -6   8  279.44   17.61
  -1  -6   8  290.62   20.85
  -1  -6   8  272.35   18.48
  -1  -6   7  867.17   22.50
  -1  -6   7  885.86   37.00
  -1  -6   6  174.20   15.25
  -1  -6   6  171.68   16.69
  -1  -6   5  261.14   15.52
  -1  -6   5  292.97   17.73
  -1  -6   4   52.83   12.63
  -1  -6   4   57.53   15.41
   1   6  -3   91.54   16.22
  -1  -6   3   96.47   20.71
  -1  -6   3  110.58   16.02
   1   6  -2  289.38   29.18
  -1  -6   2  208.09   22.46
  -1  -6   2  261.93   28.84
   1   6  -1  397.50   19.49
  -1  -6   1  444.23   31.57
   1   6   0 1132.30   28.06
  -1  -6   0 1124.19   41.52
   1   6   1  173.47   18.56
  -1  -6  -1  197.66   29.44
   1   6   2 7665.96  153.94
  -1  -6  -2 7902.22  159.31
   1   6   3  661.93   23.43
  -1  -6  -3  645.74   23.26
   1   6   4  224.93   19.86
  -1  -6  -4  233.18   19.52
   1   6   5  146.98   31.12
  -1  -6  -5  148.02   19.08
   1   6   6  -18.49   18.12
  -1  -6  -6   22.64   18.06
   1   6   7   98.39   19.77
  -1  -6  -7  181.71   33.00
   1   6   8  458.85   37.84
  -1  -6  -8  421.64   39.50
   1   6   9  215.47   21.84
  -1  -6  -9  201.13   36.96
   1   6  10   27.63   20.87
  -1  -6 -10   26.76   35.37
   1   6  11   44.06   22.24
  -1  -6 -11   18.55   38.40
   1   6  12   30.29   24.02
  -1  -6 -12   98.22   40.85
  -1  -7  10  482.29   26.51
  -1  -7  10  522.30   36.71
  -1  -7   9   40.83   32.48
  -1  -7   9    4.92   28.42
  -1  -7   8  199.30   28.23
  -1  -7   8  211.25   21.44
  -1  -7   8  158.82   19.07
  -1  -7   7  858.53   26.46
  -1  -7   7  759.12   26.54
  -1  -7   6  331.14   18.63
  -1  -7   6  318.30   20.26
  -1  -7   5  131.19   16.19
  -1  -7   5  137.90   18.25
   1   7  -4  -12.45   18.50
  -1  -7   4   27.71   14.25
  -1  -7   4   25.73   16.86
   1   7  -3  291.30   20.41
  -1  -7   3  299.92   16.76
  -1  -7   3  274.12   21.07
   1   7  -2 1990.21   59.95
  -1  -7   2 1976.55   49.94
  -1  -7   2 1977.81   60.18
   1   7  -1  771.79   26.10
  -1  -7   1  768.11   26.44
   1   7   0  181.36   20.11
  -1  -7   0  169.57   19.74
   1   7   1  393.07   22.63
  -1  -7  -1  406.64   22.86
   1   7   2 1182.60   32.49
  -1  -7  -2 1219.57   33.90
   1   7   3   30.17   32.61
  -1  -7  -3   29.55   19.33
   1   7   4 2847.33   58.60
  -1  -7  -4 2700.63   57.21
   1   7   5  -18.21   20.65
  -1  -7  -5    4.26   20.61
   1   7   6  223.87   23.59
  -1  -7  -6  209.72   23.81
   1   7   7 5993.43  161.34
  -1  -7  -7 5876.17  131.00
   1   7   8 2696.59   61.47
  -1  -7  -8 2723.32   64.28
   1   7   9   70.47   23.70
  -1  -7  -9   67.81   24.31
   1   7  10 1083.79   38.42
  -1  -7 -10 1166.97   40.71
   1   7  11  222.87   27.73
  -1  -7 -11  194.19   28.59
  -1  -8   9   64.14   20.16
  -1  -8   9   78.79   23.60
  -1  -8   9   59.03   19.94
  -1  -8   8   26.42   18.26
  -1  -8   8   54.94   21.71
  -1  -8   8   38.10   19.08
  -1  -8   7  543.69   37.06
  -1  -8   7  480.02   24.96
  -1  -8   6  467.94   22.94
  -1  -8   6  439.70   37.54
  -1  -8   5  440.49   33.64
  -1  -8   5  413.67   24.11
   1   8  -4  121.93   21.20
  -1  -8   4  103.91   17.19
  -1  -8   4  140.10   20.63
   1   8  -3  879.11   30.62
  -1  -8   3  913.51   25.82
  -1  -8   3  887.91   30.26
   1   8  -2   36.35   34.20
  -1  -8   2   57.20   17.12
  -1  -8   2   79.66   33.98
   1   8  -1   74.28   33.77
  -1  -8   1  -26.32   20.31
   1   8   0   -8.01   34.43
  -1  -8   0   46.53   21.02
   1   8   1 1310.22   37.52
  -1  -8  -1 1307.18   58.02
   1   8   2  353.60   25.33
  -1  -8  -2  321.27   43.08
   1   8   3   84.34   22.88
  -1  -8  -3   74.59   23.04
   1   8   4  125.82   37.90
  -1  -8  -4   63.75   23.13
   1   8   5  354.43   27.28
  -1  -8  -5  376.45   28.34
   1   8   6   -3.26   24.01
  -1  -8  -6   58.28   24.14
   1   8   7   64.00   25.10
  -1  -8  -7   61.61   25.52
   1   8   8  -35.86   25.02
  -1  -8  -8   -2.92   25.60
   1   8   9  390.49   31.71
  -1  -8  -9  414.95   31.85
   1   8  10   95.40   28.76
  -1  -8 -10  108.72   29.25
  -1  -8 -11  309.89   52.61
  -1  -9   8  129.49   37.32
  -1  -9   8   95.46   22.70
  -1  -9   7   21.48   20.63
  -1  -9   7   18.99   21.30
  -1  -9   6  415.65   25.01
  -1  -9   6  416.26   41.80
  -1  -9   5  111.36   20.52
  -1  -9   5  132.72   22.87
   1   9  -4 2025.34   53.28
  -1  -9   4 2084.15   46.60
  -1  -9   4 2065.76   51.01
   1   9  -3 2046.24   51.63
  -1  -9   3 2012.27   63.07
  -1  -9   3 1975.31   50.38
   1   9  -2   61.68   23.62
  -1  -9   2   33.13   19.68
  -1  -9   2    4.29   23.18
   1   9  -1 2743.28   64.85
  -1  -9   1 2755.82   59.23
  -1  -9   1 2683.59   65.73
   1   9   0 5684.04  129.18
  -1  -9   0 5771.88  166.99
   1   9   1  487.37   31.10
  -1  -9  -1  507.72   32.23
   1   9   2  544.82   51.09
  -1  -9  -2  575.17   31.76
   1   9   3   68.47   25.94
  -1  -9  -3   48.44   42.51
   1   9   4   48.02   25.81
  -1  -9  -4   73.38   43.64
   1   9   5    8.14   25.72
  -1  -9  -5  -32.84   27.49
   1   9   6  425.42   32.53
  -1  -9  -6  475.09   33.74
   1   9   7  851.65   39.27
  -1  -9  -7  863.81   40.02
   1   9   8  371.62   33.13
  -1  -9  -8  341.20   34.39
   1   9   9  385.48   34.20
  -1  -9  -9  371.13   57.31
  -1 -10   6  125.46   38.11
  -1 -10   6   86.21   39.59
  -1 -10   5  444.74   27.56
  -1 -10   5  515.97   30.63
   1  10  -4  111.95   27.89
  -1 -10   4  147.47   22.55
  -1 -10   4  114.16   25.34
   1  10  -3  708.46   35.84
  -1 -10   3  760.69   30.37
  -1 -10   3  783.64   53.74
   1  10  -2  806.51   37.57
  -1 -10   2  867.28   49.47
  -1 -10   2  772.31   35.79
   1  10  -1   14.62   26.50
  -1 -10   1   -0.67   37.41
  -1 -10   1   -3.20   44.08
   1  10   0  827.44   60.87
  -1 -10   0  888.83   41.18
   1  10   1  109.20   29.10
  -1 -10  -1   65.24   29.20
   1  10   2   -5.50   28.46
  -1 -10  -2   -9.92   28.04
   1  10   3   95.28   50.19
  -1 -10  -3  154.83   30.12
   1  10   4  538.53   36.69
  -1 -10  -4  510.62   37.18
   1  10   5   15.39   48.74
  -1 -10  -5   80.08   50.80
   1  10   6  301.03   34.22
  -1 -10  -6  303.88   35.82
   1  10   7  -19.66   31.24
  -1 -10  -7  -31.48   31.83
   1  10   8   61.49   52.47
  -1 -10  -8  117.38   34.25
   1  11  -4  839.40   43.02
  -1 -11   4  869.96   36.33
  -1 -11   4  883.15   39.28
   1  11  -3  187.23   31.61
  -1 -11   3  212.49   26.32
  -1 -11   3  126.00   30.32
   1  11  -2   29.97   48.09
  -1 -11   2   27.78   25.20
  -1 -11   2   -0.12   28.03
   1  11  -1  459.19   56.53
  -1 -11   1  365.37   31.85
  -1 -11   1  418.56   36.29
   1  11   0  142.72   32.56
  -1 -11   0  164.18   28.28
  -1 -11   0  113.33   32.60
   1  11   1  547.05   39.41
  -1 -11  -1  607.16   39.76
   1  11   2  283.94   58.43
  -1 -11  -2  321.20   35.50
   1  11   3  195.33   34.69
  -1 -11  -3  189.88   57.32
   1  11   4   52.14   55.21
  -1 -11  -4   62.15   35.40
   1  11   5 1302.53   56.28
  -1 -11  -5 1319.36   58.26
  -1 -11  -6  117.29   59.05
   2 -10  -5  250.11   38.07
  -2  10   5  233.64   37.08
   2 -10  -4  120.78   34.14
  -2  10   4  137.84   33.41
   2 -10  -3   85.84   31.94
  -2  10   3   67.93   31.82
   2 -10  -2   65.77   32.99
   2 -10  -2   11.00   27.99
  -2  10   2  -39.49   28.42
   2 -10  -1   17.42   31.70
   2 -10  -1    9.07   26.21
  -2  10   1   37.83   28.76
   2 -10   0   84.18   32.08
   2 -10   0  137.20   25.90
  -2  10   0   23.91   28.40
   2 -10   1  640.85   62.06
   2 -10   1  562.40   31.99
  -2  10  -1  548.32   53.74
   2 -10   2   48.91   30.33
   2 -10   2   56.60   24.35
  -2  10  -2   87.88   42.10
   2 -10   3  -28.06   29.51
   2 -10   3   19.45   22.84
  -2  10  -3   38.36   40.83
   2  -9  -7  128.73   58.21
  -2   9   7   69.75   34.42
   2  -9  -6   72.51   32.46
  -2   9   6   66.19   54.78
   2  -9  -5  162.98   32.45
  -2   9   5  103.74   32.71
   2  -9  -4  500.21   57.23
  -2   9   4  454.09   35.15
   2  -9  -3   53.51   27.20
  -2   9   3  -34.31   27.36
   2  -9  -2  -41.15   29.50
   2  -9  -2    5.68   41.44
  -2   9   2   16.48   42.38
   2  -9  -1   89.54   48.37
  -2   9   1  136.38   26.25
   2  -9   0  277.77   32.31
   2  -9   0  327.36   41.99
  -2   9   0  259.75   27.96
   2  -9   1  328.50   32.04
   2  -9   1  352.98   25.69
  -2   9  -1  383.78   27.91
   2  -9   2  782.87   36.64
   2  -9   2  713.98   46.16
  -2   9  -2  750.42   31.88
   2  -9   3  434.17   33.04
   2  -9   3  442.38   25.10
  -2   9  -3  435.14   28.28
   2  -9   4  285.61   30.97
   2  -9   4  226.70   22.19
  -2   9  -4  261.86   24.41
   2  -9   5  922.88   41.27
   2  -9   5  902.06   45.43
  -2   9  -5 1031.60   50.70
   2  -9   6  959.16   41.36
   2  -9   6  818.41   44.89
   2  -8  -9  382.32   38.33
  -2   8   9  325.29   37.69
   2  -8  -8   55.60   31.17
  -2   8   8  -13.74   31.26
   2  -8  -7  111.02   50.11
  -2   8   7  -10.57   29.93
   2  -8  -6  -27.26   28.93
  -2   8   6   58.10   46.86
   2  -8  -5  147.83   29.90
  -2   8   5  249.49   30.11
   2  -8  -4 1563.51   74.12
  -2   8   4 1441.43   70.26
   2  -8  -3 2128.94   56.61
  -2   8   3 2171.58   56.82
   2  -8  -2  259.62   26.68
  -2   8   2  317.53   43.06
   2  -8  -1  935.67   38.74
   2  -8  -1  931.88   32.92
  -2   8   1  965.95   34.74
   2  -8   0  175.89   26.98
   2  -8   0  238.60   22.61
  -2   8   0  205.17   23.14
   2  -8   1  222.49   26.72
   2  -8   1  225.96   34.23
  -2   8  -1  250.45   23.12
   2  -8   2  489.14   30.04
   2  -8   2  509.55   23.43
  -2   8  -2  529.09   25.49
   2  -8   3   48.49   24.49
   2  -8   3   50.38   17.89
  -2   8  -3   31.66   31.20
   2  -8   4  608.57   32.74
   2  -8   4  617.56   24.13
  -2   8  -4  623.48   25.80
   2  -8   5  -12.39   25.07
   2  -8   5   -3.65   16.78
  -2   8  -5   -5.72   18.11
   2  -8   6   49.89   25.56
   2  -8   6   47.17   16.95
   2  -8   7    0.72   26.05
   2  -8   7  -19.18   26.79
   2  -8   8  253.01   32.23
   2  -8   8  253.47   30.63
   2  -7 -10   96.89   32.69
  -2   7  10   38.46   31.27
   2  -7  -9   68.01   31.49
  -2   7   9  109.12   31.12
   2  -7  -8  125.69   50.01
  -2   7   8  134.46   29.87
   2  -7  -7   62.10   28.40
  -2   7   7   88.10   27.45
   2  -7  -6  214.26   29.52
  -2   7   6  278.89   46.50
   2  -7  -5  643.72   33.53
  -2   7   5  622.80   31.90
   2  -7  -4 1867.44   50.06
  -2   7   4 1980.25   71.68
   2  -7  -3 4923.21  106.69
  -2   7   3 4995.26  105.60
   2  -7  -2  160.93   22.25
  -2   7   2  178.36   23.66
   2  -7  -1  495.09   39.42
  -2   7   1  526.54   40.80
   2  -7   0  966.41   50.30
   2  -7   0  844.77   28.84
  -2   7   0  911.12   44.28
   2  -7   1 1290.15   38.02
   2  -7   1 1242.01   30.77
  -2   7  -1 1233.74   47.07
   2  -7   2  767.69   30.00
   2  -7   2  731.21   23.96
  -2   7  -2  773.87   25.51
   2  -7   3  139.71   23.24
   2  -7   3  162.74   16.72
  -2   7  -3  191.22   17.69
   2  -7   4  526.30   28.36
   2  -7   4  536.60   20.19
  -2   7  -4  537.33   33.48
   2  -7   5  828.49   33.36
   2  -7   5  805.59   34.63
  -2   7  -5  837.28   24.65
   2  -7   6  128.34   23.88
   2  -7   6   78.53   15.49
   2  -7   7   -9.91   39.02
   2  -7   7   16.84   14.17
   2  -7   8  121.92   44.28
   2  -7   8  109.92   24.28
   2  -7   9 1004.22   61.02
   2  -6 -11  912.78   45.04
  -2   6  11  979.66   46.19
   2  -6 -10  107.35   30.12
  -2   6  10   44.13   30.05
   2  -6  -9   65.65   46.77
  -2   6   9   49.60   28.49
   2  -6  -8 4459.88  106.98
  -2   6   8 4433.03  104.98
   2  -6  -7  121.68   26.32
  -2   6   7  121.93   26.91
   2  -6  -6  331.90   27.45
  -2   6   6  429.03   44.50
   2  -6  -5 1896.78   69.25
  -2   6   5 1830.95   46.57
   2  -6  -4 5740.76  121.04
  -2   6   4 5732.65  118.63
   2  -6  -3  959.89   30.94
  -2   6   3 1022.16   31.13
   2  -6  -2 2384.85   49.01
  -2   6   2 2487.29   69.23
   2  -6  -1  143.33   30.22
  -2   6   1  173.67   30.59
   2  -6   0  404.93   23.43
   2  -6   0  438.48   19.79
  -2   6   0  413.63   31.91
   2  -6   1   46.94   30.91
   2  -6   1    8.25   14.37
  -2   6  -1    9.53   15.04
   2  -6   2 2265.46   48.46
   2  -6   2 2253.58   54.12
  -2   6  -2 2297.85   42.37
   2  -6   3 2140.50   46.55
   2  -6   3 2016.80   36.80
  -2   6  -3 2124.89   38.81
   2  -6   4   83.02   20.09
  -2   6  -4  105.88   23.12
   2  -6   5   47.48   33.26
   2  -6   5   25.68   12.05
  -2   6  -5   12.04   13.19
   2  -6   6  114.73   21.48
   2  -6   6   69.62   12.04
   2  -6   7   87.11   23.45
   2  -6   7  107.78   12.47
   2  -6   8   18.64   22.44
   2  -6   8   17.03   12.04
   2  -6   8   28.77   12.16
   2  -6   9   59.38   24.75
   2  -6   9   25.14   12.15
   2  -6   9   28.63   19.49
  -2   6 -10  270.09   27.58
   2  -5 -12  523.18   38.25
  -2   5  12  528.72   37.38
   2  -5 -11  147.33   47.40
  -2   5  11   16.33   27.92
   2  -5 -10  449.22   33.89
  -2   5  10  514.28   33.16
   2  -5  -9 1613.20   49.26
  -2   5   9 1569.86   47.68
   2  -5  -8  274.50   27.72
  -2   5   8  273.81   26.77
   2  -5  -7  164.63   39.56
  -2   5   7  178.86   24.27
   2  -5  -6 4259.82   91.51
  -2   5   6 4181.39   88.67
   2  -5  -5  290.32   24.15
  -2   5   5  330.45   38.48
   2  -5  -4  130.37   19.95
  -2   5   4  132.99   20.29
   2  -5  -3 3292.73   81.97
  -2   5   3 3285.09   61.37
   2  -5  -2 1959.77   55.62
  -2   5   2 2125.56   56.23
   2  -5  -1  689.37   21.91
  -2   5   1  732.85   33.26
   2  -5   0   97.00   16.98
   2  -5   0   88.50   14.83
  -2   5   0   68.09   24.14
   2  -5   1 1279.74   44.22
   2  -5   1 1259.64   24.61
  -2   5  -1 1287.22   25.33
   2  -5   2  208.00   18.46
   2  -5   2  239.09   13.37
  -2   5  -2  237.27   22.07
   2  -5   3  369.92   21.00
   2  -5   3  392.48   21.95
  -2   5  -3  402.78   22.79
   2  -5   4  237.94   30.97
   2  -5   4  179.41   11.90
  -2   5  -4  197.43   20.14
   2  -5   5 1192.93   32.36
   2  -5   5 1135.59   20.37
  -2   5  -5 1202.77   22.59
   2  -5   6  576.21   25.73
   2  -5   6  582.85   21.03
  -2   5  -6  533.10   25.58
   2  -5   7 1277.30   37.35
  -2   5  -7 1318.84   52.25
   2  -5   8   98.27   34.97
   2  -5   8   68.78   16.64
   2  -5   8   81.48   16.56
  -2   5  -8   73.82   20.94
   2  -5   9  109.06   16.78
   2  -5   9  137.35   17.20
  -2   5  -9   88.39   22.47
  -2   5 -10  218.67   24.93
  -2   5 -11  296.51   27.42
   2  -4 -12 1074.42   45.97
  -2   4  12 1053.22   41.82
   2  -4 -11   83.68   27.64
  -2   4  11  101.62   26.52
   2  -4 -10  860.05   57.04
  -2   4  10  909.34   35.28
   2  -4  -9   35.70   23.34
  -2   4   9   23.50   22.52
   2  -4  -8  198.15   24.38
  -2   4   8  189.39   23.05
   2  -4  -7 9371.87  223.45
  -2   4   7 9535.63  220.22
   2  -4  -6  -41.68   31.92
  -2   4   6   18.36   19.07
   2  -4  -5  519.29   23.88
  -2   4   5  510.55   23.18
   2  -4  -4  526.45   21.69
  -2   4   4  581.41   34.19
   2  -4  -3  499.50   20.18
  -2   4   3  473.70   20.12
   2  -4  -2 1252.58   26.94
  -2   4   2 1302.02   27.61
   2  -4  -1  277.57   15.22
  -2   4   1  280.02   15.43
   2  -4   0 1667.28   32.40
   2  -4   0 1633.89   28.64
  -2   4   0 1681.21   39.04
   2  -4   1  382.18   17.65
   2  -4   1  350.58   13.40
  -2   4  -1  370.62   13.64
   2  -4   2   17.60   14.38
   2  -4   2   29.51    9.57
  -2   4  -2   25.10    9.70
   2  -4   3  585.88   21.18
   2  -4   3  583.76   13.88
  -2   4  -3  579.15   20.70
   2  -4   4  164.44   17.71
   2  -4   4  166.40    9.09
  -2   4  -4  187.29   17.80
  -2   4  -4  184.34   10.24
   2  -4   5 1203.45   44.91
   2  -4   5 1215.11   18.32
  -2   4  -5 1256.65   30.84
   2  -4   6  -12.09   18.24
   2  -4   6   39.73   12.78
  -2   4  -6   18.53   29.24
   2  -4   7   81.49   18.94
   2  -4   7   75.44    8.38
   2  -4   7   79.45    8.40
  -2   4  -7   89.04   19.28
   2  -4   8   98.80   21.60
   2  -4   8  121.35    9.11
   2  -4   8  132.45   14.46
  -2   4  -8  137.61   20.02
   2  -4   9  419.02   12.02
  -2   4  -9  461.02   39.32
   2  -4  10   72.00   14.13
  -2   4 -10  124.73   35.68
  -2   4 -11  538.61   45.47
  -2   4 -12  844.44   54.38
   2  -3 -13   78.50   29.70
  -2   3  13  158.82   44.22
   2  -3 -12    6.81   26.74
  -2   3  12   56.93   25.26
   2  -3 -11  158.63   27.42
  -2   3  11  140.93   25.44
   2  -3 -10  181.61   41.75
  -2   3  10  132.19   23.93
   2  -3  -9  354.58   25.83
  -2   3   9  433.77   40.37
   2  -3  -8    7.89   19.93
  -2   3   8   29.32   20.00
   2  -3  -7   21.50   19.49
  -2   3   7   49.59   18.88
   2  -3  -6  813.04   40.31
  -2   3   6  801.86   39.45
   2  -3  -5   15.42   15.72
  -2   3   5  -19.05   26.29
   2  -3  -4 1293.70   29.03
  -2   3   4 1396.73   29.25
   2  -3  -3  269.53   16.88
  -2   3   3  288.81   26.95
   2  -3  -2 1912.09   33.38
  -2   3   2 1892.39   32.46
   2  -3  -111245.94  237.63
  -2   3   111271.47  236.19
   2  -3   0 8415.16  157.14
   2  -3   0 8174.04  148.10
  -2   3   0 8298.97  149.08
   2  -3   1  660.53   19.24
   2  -3   1  621.79   14.40
  -2   3  -1  622.48   14.04
   2  -3   2  -13.97   13.67
   2  -3   2  -18.03   13.10
  -2   3  -2    2.52   13.63
  -2   3  -2  -16.92   13.09
   2  -3   3 1044.98   23.67
   2  -3   3  996.84   14.98
  -2   3  -3 1017.01   23.71
  -2   3  -3 1056.66   20.87
   2  -3   4   10.19   14.63
   2  -3   4   31.83   10.25
  -2   3  -4   34.91   14.55
  -2   3  -4   35.05    6.73
   2  -3   5 1124.72   40.65
   2  -3   5 1045.68   18.39
  -2   3  -5 1115.30   26.40
   2  -3   6 1120.30   27.96
   2  -3   6 1093.23   14.84
  -2   3  -6 1103.64   28.17
   2  -3   7   38.40   17.89
   2  -3   7   34.77    6.31
   2  -3   7   22.93    6.42
  -2   3  -7   30.08   17.77
   2  -3   8  239.08   12.56
   2  -3   8  277.17   12.64
  -2   3  -8  279.24   21.04
   2  -3   9  593.36   11.73
  -2   3  -9  652.07   26.77
   2  -3  10   -2.31   11.73
   2  -3  10    2.17    7.36
  -2   3 -10    3.74   20.61
  -2   3 -11   60.43   23.31
  -2   3 -12    2.22   23.52
   2  -2 -13   63.99   27.54
  -2   2  13   82.55   42.19
   2  -2 -12   24.26   24.98
  -2   2  12   10.15   23.24
   2  -2 -11  126.78   38.65
  -2   2  11   58.57   22.85
   2  -2 -10 1877.50   47.77
  -2   2  10 1898.59   65.25
   2  -2  -9   93.56   21.33
  -2   2   9   76.24   19.77
   2  -2  -8   76.35   18.65
  -2   2   8   39.69   18.51
   2  -2  -7 1271.76   46.99
  -2   2   7 1321.94   31.07
   2  -2  -6  785.60   24.50
  -2   2   6  753.65   23.36
   2  -2  -5 3432.57   59.39
  -2   2   5 3432.28   58.41
   2  -2  -4 2663.42   45.70
  -2   2   4 2688.79   45.04
  -2   2   3    1.78   13.00
   2  -2  -2  173.00   24.15
  -2   2   2  195.01   14.07
   2  -2  -1  536.98   25.52
  -2   2   1  498.06   15.72
   2  -2   0 3434.61   52.63
   2  -2   0 3373.71   59.29
  -2   2   0 3448.21   59.17
   2  -2   1 6725.77  113.94
   2  -2   1 6469.13   98.41
  -2   2  -1 6824.43  116.04
  -2   2  -1 6512.48   98.50
  -2   2  -2 2005.71   34.35
  -2   2  -2 1902.59   27.82
   2  -2   3 2940.22   46.85
   2  -2   3 2773.83   35.63
  -2   2  -3 2879.82   46.62
  -2   2  -3 2885.82   36.47
   2  -2   416193.72  468.48
   2  -2   417012.31  384.18
  -2   2  -415810.57  422.52
   2  -2   5   39.76   13.71
   2  -2   5   19.53    4.18
   2  -2   5   20.87    4.19
  -2   2  -5   21.29   14.54
   2  -2   6 1061.93   26.16
   2  -2   6  990.35   14.86
   2  -2   6  999.48   11.62
  -2   2  -6 1021.76   26.13
   2  -2   7   47.31    8.35
   2  -2   7   48.04    8.46
  -2   2  -7   59.20   29.03
   2  -2   8  468.05   12.65
   2  -2   8  499.61    9.07
  -2   2  -8  538.90   37.30
   2  -2   9 1728.42   27.34
   2  -2   9 1774.36   27.02
  -2   2  -9 1837.04   43.38
   2  -2  10  302.95   13.83
   2  -2  10  305.20   13.44
  -2   2 -10  347.87   38.92
   2  -2  11  116.99    8.63
  -2   2 -11  204.92   38.86
  -2   2 -12  123.15   26.21
  -2   2 -13  337.52   31.01
   2  -1 -13   88.21   20.94
   2  -1 -13  107.18   27.06
  -2   1  13   76.81   39.80
   2  -1 -12   31.48   23.35
  -2   1  12  -12.75   21.69
   2  -1 -11  851.29   32.59
  -2   1  11  791.88   47.05
   2  -1 -10  121.20   22.09
  -2   1  10  169.67   21.00
   2  -1  -9  181.25   32.29
  -2   1   9  152.22   19.50
   2  -1  -8  830.10   26.50
  -2   1   8  818.55   25.80
   2  -1  -7   50.93   16.62
  -2   1   7   -3.67   15.52
   2  -1  -6 1584.22   46.94
  -2   1   6 1539.47   30.89
   2  -1  -5  172.46   15.55
  -2   1   5  178.38   24.82
   2  -1  -4 2141.40   37.29
  -2   1   4 2188.98   50.59
   2  -1  -318581.04  517.80
  -2   1   319068.71  559.90
   2  -1  -2   55.10   13.49
  -2   1   2   88.61   13.29
   2  -1  -1  444.78   15.18
  -2   1   1  473.60   24.36
   2  -1   0 2909.88   42.43
   2  -1   0 2853.96   48.82
  -2   1   0 2878.52   37.68
   2  -1   1 1315.40   24.22
   2  -1   1 1257.67   21.33
  -2   1  -1 1243.57   24.34
  -2   1  -1 1255.39   21.01
   2  -1   2  124.16   14.38
   2  -1   2  123.14    7.12
  -2   1  -2  138.19   14.39
  -2   1  -2  126.39    6.95
   2  -1   312044.81  263.76
  -2   1  -312004.46  292.26
   2  -1   4 1621.82   41.65
   2  -1   4 1636.78   14.43
   2  -1   4 1651.09   14.51
  -2   1  -4 1726.97   31.30
   2  -1   5  404.50    6.48
   2  -1   5  415.94    6.63
  -2   1  -5  419.21   18.25
   2  -1   6   10.83    5.63
   2  -1   6    1.40    3.50
  -2   1  -6   -0.85   15.13
   2  -1   7 2031.68   21.66
   2  -1   7 1977.07   24.88
  -2   1  -7 2040.10   40.66
   2  -1   8 2256.72   25.83
   2  -1   8 2154.26   25.14
  -2   1  -8 2249.89   64.74
   2  -1   9 4517.69   61.23
   2  -1   9 4332.07   59.17
  -2   1  -9 4713.89   94.29
   2  -1  10  132.30   12.92
   2  -1  10  132.87    7.54
  -2   1 -10  120.12   21.55
   2  -1  11   53.28   14.21
   2  -1  11   57.20   12.28
  -2   1 -11   54.70   22.52
  -2   1 -12  251.89   26.92
  -2   1 -13  623.11   53.83
   2   0 -13  705.50   26.86
   2   0 -13  721.59   34.43
  -2   0  13  804.95   47.45
   2   0 -12  -18.57   27.26
   2   0 -12  -25.48   22.01
  -2   0  12   39.09   20.87
   2   0 -11   33.58   15.21
   2   0 -11   -0.99   21.51
  -2   0  11   25.93   19.60
   2   0 -10  637.18   42.04
  -2   0  10  643.45   25.18
   2   0  -9  527.75   24.01
  -2   0   9  545.71   22.77
   2   0  -8  825.27   39.08
  -2   0   8  858.97   24.59
   2   0  -7   19.96   15.45
  -2   0   7   28.42   14.71
   2   0  -6  278.03   16.96
  -2   0   6  274.71   16.17
   2   0  -5  217.62   15.88
  -2   0   5  255.39   15.67
   2   0  -4 1050.79   23.48
  -2   0   4 1015.83   22.85
   2   0  -3  339.88   16.73
  -2   0   3  311.76   15.90
   2   0  -2  130.04   25.52
  -2   0   2  168.73   14.11
   2   0  -127935.33  883.14
   2   0  -124822.92  887.13
  -2   0   127325.16  901.79
   2   0   0  836.22   15.44
   2   0   0  818.77   14.83
  -2   0   0  782.89   14.82
  -2   0   0  813.33   14.31
   2   0   1 1745.16   27.71
   2   0   1 1803.59   24.40
  -2   0  -1 1802.61   28.31
  -2   0  -1 1838.12   24.00
   2   0   216819.21  422.71
  -2   0  -216885.04  429.77
  -2   0  -328901.99 1101.48
  -2   0  -4  539.42   18.72
   2   0   514296.33  275.29
  -2   0  -512554.92  308.12
   2   0   6  814.48   11.69
  -2   0  -6  857.76   35.56
   2   0   7 1622.51   21.78
  -2   0  -7 1642.13   35.07
   2   0   8 1216.66   20.40
  -2   0  -8 1267.46   32.44
   2   0   9 7407.67  121.05
  -2   0  -9 7200.97  163.05
   2   0  10  355.99   15.95
  -2   0 -10  367.01   25.11
   2   0  11   86.29    9.90
  -2   0 -11   84.10   37.35
   2   0  12  457.11   14.82
  -2   0 -12  477.81   29.82
  -2   0 -13   32.78   26.52
   2   1 -13   49.22   17.87
  -2  -1  13   84.33   35.20
   2   1 -12  870.70   26.49
  -2  -1  12  865.88   30.60
   2   1 -11  128.57   15.57
  -2  -1  11  149.05   20.08
   2   1 -10    7.91   11.81
   2   1 -10   11.56   18.25
  -2  -1  10  -14.99   28.15
   2   1  -9  110.59   18.85
   2   1  -9  126.50   18.45
  -2  -1   9  160.89   17.32
   2   1  -8  665.06   15.87
   2   1  -8  682.10   36.34
  -2  -1   8  688.16   22.46
   2   1  -7  723.06   22.47
  -2  -1   7  680.96   20.91
   2   1  -6  105.51   14.79
  -2  -1   6   84.33   22.84
   2   1  -5 5864.57  102.84
  -2  -1   5 5786.53   98.90
   2   1  -4 1624.79   30.33
  -2  -1   4 1690.41   30.23
   2   1  -3 1531.62   28.65
  -2  -1   3 1454.52   27.21
   2   1  -2 8836.66  192.66
  -2  -1   2 9156.58  171.39
   2   1  -1 2794.56   28.34
  -2  -1   1 2837.94   26.43
  -2  -1   1 2910.88   57.16
  -2  -1   0  174.13    7.68
  -2  -1   0  177.41   10.37
  -2  -1  -166627.90 4378.10
  -2  -1  -168473.49 4407.55
   2   1   2   25.45    8.66
  -2  -1  -2   15.24    8.24
   2   1   3   40.26    6.98
  -2  -1  -3   17.48    6.79
   2   1   417020.55  375.93
  -2  -1  -415870.56  359.66
   2   1   515527.68  336.95
  -2  -1  -514158.52  313.96
   2   1   6  248.18   10.52
  -2  -1  -6  268.99    7.25
   2   1   7  467.50    9.45
  -2  -1  -7  510.92   21.63
  -2  -1  -7  462.81   14.93
   2   1   8  424.39   15.08
  -2  -1  -8  449.83   22.48
  -2  -1  -8  446.33   11.50
   2   1   9 1633.89   23.58
  -2  -1  -9 1691.31   59.05
   2   1  10  679.48   15.05
  -2  -1 -10  657.32   27.64
  -2  -1 -10  607.08   15.49
   2   1  11  479.50   22.39
  -2  -1 -11  499.21   27.95
   2   1  12  204.25   14.23
  -2  -1 -12  188.65   43.40
  -2  -1 -13   76.30   27.38
   2   2 -13  106.93   17.17
  -2  -2  13  144.92   35.55
   2   2 -12  522.84   20.54
  -2  -2  12  580.60   26.79
   2   2 -11  107.80   14.06
  -2  -2  11  136.28   19.54
   2   2 -10   -0.86   19.08
  -2  -2  10   17.07   17.28
   2   2  -9 1189.54   21.90
  -2  -2   9 1246.48   29.65
   2   2  -8    9.80    9.23
  -2  -2   8  -14.60   24.86
   2   2  -7 1644.72   23.43
  -2  -2   7 1746.82   47.45
   2   2  -6   30.89    6.68
  -2  -2   6   26.71   22.76
   2   2  -5 3154.53   42.78
  -2  -2   5 3326.91   67.31
   2   2  -4 1288.27   13.45
  -2  -2   4 1330.13   25.50
   2   2  -3 8929.39  132.04
  -2  -2   3 8135.95  156.26
  -2  -2   2   76.09    3.28
  -2  -2   136393.79 1522.00
  -2  -2   0152928.119807.77
   2   2   183277.92 6414.75
  -2  -2  -181166.96 6274.07
   2   2   2 4505.90   60.45
  -2  -2  -2 4365.76   59.52
   2   2   3 1085.26   22.33
  -2  -2  -3 1133.71   22.45
   2   2   4   24.13   11.76
  -2  -2  -4   17.99    6.94
   2   2   5  816.48   12.86
  -2  -2  -5  818.52   13.39
   2   2   6 1510.13   20.25
  -2  -2  -6 1564.28   21.62
   2   2   7  513.19   18.08
  -2  -2  -7  500.10   12.57
   2   2   8  313.04   11.37
  -2  -2  -8  287.38   18.35
   2   2   9  495.46   13.96
  -2  -2  -9  507.24   15.54
   2   2  10   46.18   11.37
  -2  -2 -10   71.08   11.83
   2   2  11  222.29   14.30
  -2  -2 -11  233.86   26.16
  -2  -2 -11  192.55   14.79
   2   2  12  618.04   30.11
  -2  -2 -12  666.54   52.02
   2   2  13   -5.25   15.31
  -2  -2 -13   62.41   25.72
  -2  -2 -13   23.90   24.09
   2   3 -13   30.08   24.71
  -2  -3  13    4.54   20.26
   2   3 -12   30.74   23.51
  -2  -3  12   47.53   32.47
   2   3 -11  495.99   17.70
  -2  -3  11  438.16   24.29
   2   3 -10  704.04   18.49
  -2  -3  10  702.36   25.51
   2   3  -9  198.88   11.89
  -2  -3   9  174.10   18.44
   2   3  -8 4610.07   72.10
  -2  -3   8 4705.75   89.67
   2   3  -7 3338.97   55.25
  -2  -3   7 3662.29   63.80
   2   3  -6  733.56   17.03
  -2  -3   6  731.47   21.06
   2   3  -5 1114.89   18.82
  -2  -3   5 1174.81   36.47
   2   3  -4 2351.40   25.73
  -2  -3   4 2405.65   25.90
  -2  -3   4 2458.16   40.29
  -2  -3   3  135.79    4.90
  -2  -3   3  134.91   14.18
  -2  -3   2 1213.05   16.36
  -2  -3   2 1174.87   35.68
   2   3  -1   14.51   13.80
  -2  -3   1    6.19   13.53
   2   3   0 1067.81   22.78
  -2  -3   0 1026.79   22.65
   2   3   1 6549.93  108.35
  -2  -3  -1 6432.39  107.65
   2   3   226949.36  899.34
  -2  -3  -225900.72  912.41
   2   3   3 1964.05   37.39
  -2  -3  -3 1906.97   28.10
   2   3   4 1409.69   21.89
  -2  -3  -4 1342.80   29.87
   2   3   5 2844.17   39.58
  -2  -3  -5 2836.99   39.97
   2   3   6  596.61   14.26
  -2  -3  -6  633.64   15.03
   2   3   7 6487.56  124.62
  -2  -3  -7 6608.23  130.83
   2   3   8  945.84   19.22
  -2  -3  -8  901.27   20.29
   2   3   9  368.34   14.77
  -2  -3  -9  378.33   24.69
   2   3  10    5.30   12.26
  -2  -3 -10  -15.87   13.39
   2   3  11  338.18   16.89
  -2  -3 -11  330.16   19.05
   2   3  12    9.77   24.78
  -2  -3 -12    3.74   16.33
   2   3  13  882.98   27.41
  -2  -3 -13  899.62   42.62
   2   4 -12  342.41   26.42
  -2  -4  12  350.35   38.76
  -2  -4  12  345.97   23.30
   2   4 -11   53.46   20.02
  -2  -4  11   49.92   31.73
  -2  -4  11   17.93   18.25
   2   4 -10  989.92   29.24
  -2  -4  10  947.39   44.73
  -2  -4  10  960.39   42.17
   2   4  -9 2768.52   53.76
  -2  -4   9 2823.95   77.18
  -2  -4   9 2782.25   71.44
   2   4  -8 7733.43  143.65
  -2  -4   8 7870.82  194.16
  -2  -4   8 7594.66  185.39
   2   4  -7 7257.04  137.42
  -2  -4   7 7230.23  147.55
  -2  -4   7 7060.57  166.13
   2   4  -6  777.43   19.02
  -2  -4   6  799.02   23.61
  -2  -4   6  769.64   22.16
  -2  -4   5   79.83    7.09
  -2  -4   5   71.17   14.80
  -2  -4   5   83.68   14.64
  -2  -4   4  391.26   13.51
  -2  -4   4  377.91   17.09
  -2  -4   3 2904.62   41.01
  -2  -4   3 2892.24   47.71
  -2  -4   2  143.47   14.42
   2   4  -1   16.76   13.78
  -2  -4   1    1.54   13.73
   2   4   0  136.77   14.36
  -2  -4   0  140.81   23.92
   2   4   1  449.45   26.82
  -2  -4  -1  432.34   16.81
   2   4   2 5826.36   97.16
  -2  -4  -2 5868.69   98.06
   2   4   3 3770.79   57.70
  -2  -4  -3 3754.31   58.43
   2   4   4   49.28   11.66
  -2  -4  -4   52.93   11.76
   2   4   5    1.89   11.62
  -2  -4  -5   18.95   11.76
   2   4   6  872.81   19.58
  -2  -4  -6  876.96   29.68
   2   4   7  105.84   21.01
  -2  -4  -7   81.20   13.45
   2   4   8 4327.26   73.70
  -2  -4  -8 4388.06   93.79
   2   4   9 1218.60   26.06
  -2  -4  -9 1222.50   28.04
   2   4  10  191.85   15.90
  -2  -4 -10  173.32   17.35
   2   4  11  241.93   18.20
  -2  -4 -11  238.54   30.37
   2   4  12  316.96   20.74
  -2  -4 -12  293.03   35.91
   2   4  13  274.93   34.00
  -2  -4 -13  186.48   22.79
   2   5 -12   73.40   23.40
  -2  -5  12    4.70   21.25
  -2  -5  12   32.80   31.98
   2   5 -11  388.68   25.98
  -2  -5  11  415.02   24.87
  -2  -5  11  376.82   23.87
   2   5 -10   93.54   20.07
  -2  -5  10   60.22   33.56
  -2  -5  10   51.51   18.56
   2   5  -9  592.65   16.45
  -2  -5   9  616.79   39.14
  -2  -5   9  586.94   23.93
  -2  -5   8  638.52   24.63
  -2  -5   8  589.46   22.73
  -2  -5   7 1613.46   37.44
  -2  -5   7 1552.52   48.06
  -2  -5   6  228.48   10.22
  -2  -5   6  252.95   18.90
  -2  -5   6  220.06   17.65
  -2  -5   5   -3.67    8.47
  -2  -5   5   24.34   15.05
  -2  -5   4  709.85   19.93
  -2  -5   4  717.87   21.80
  -2  -5   3 2383.07   38.90
  -2  -5   3 2293.22   55.92
   2   5  -2 3113.40   69.47
  -2  -5   2 3048.11   69.25
   2   5  -1  988.22   24.59
  -2  -5   1  967.52   36.39
   2   5   0  425.64   18.35
  -2  -5   0  374.41   17.67
   2   5   1  -12.29   14.22
  -2  -5  -1   32.05   14.38
   2   5   2  310.26   16.67
  -2  -5  -2  334.80   26.93
   2   5   3 5202.46   87.93
  -2  -5  -3 5036.64   87.26
   2   5   4 4747.45   80.61
  -2  -5  -4 4679.27   80.53
   2   5   5  619.72   29.78
  -2  -5  -5  552.61   19.19
   2   5   6   34.93   14.84
  -2  -5  -6   55.47   14.33
   2   5   7 2343.94   43.23
  -2  -5  -7 2377.22   43.90
   2   5   8 2518.33   46.23
  -2  -5  -8 2499.74   63.97
   2   5   9  167.47   17.07
  -2  -5  -9  180.73   17.89
   2   5  10    2.27   16.48
  -2  -5 -10    8.52   17.39
   2   5  11  -14.95   17.98
  -2  -5 -11   34.77   18.82
   2   5  12    3.24   19.37
  -2  -5 -12   42.51   20.37
   2   5  13  197.04   23.20
  -2  -5 -13  132.80   38.39
  -2  -6  11   38.16   22.70
  -2  -6  11   31.61   19.41
  -2  -6  10   49.81   21.02
  -2  -6  10   52.59   19.09
  -2  -6   9  537.81   41.25
  -2  -6   9  516.98   23.88
  -2  -6   8  127.98   34.23
  -2  -6   8  109.39   18.45
  -2  -6   7    2.07   17.85
  -2  -6   7   24.32   18.46
  -2  -6   7  -16.46   16.77
  -2  -6   6 1925.47   31.60
  -2  -6   6 1864.50   55.75
  -2  -6   5  403.28   21.34
  -2  -6   5  385.76   20.35
  -2  -6   4  346.87   19.72
  -2  -6   4  338.68   20.38
   2   6  -3  510.79   22.70
  -2  -6   3  531.32   14.34
  -2  -6   3  537.74   22.18
   2   6  -2 2661.47   49.59
  -2  -6   2 2648.76   48.85
   2   6  -1  -18.42   16.38
  -2  -6   1  -33.13   16.43
   2   6   0  146.93   28.38
  -2  -6   0  105.81   17.76
   2   6   1   59.78   16.67
  -2  -6  -1   45.93   16.58
   2   6   2 1305.59   30.22
  -2  -6  -2 1277.11   30.25
   2   6   3 6988.36  158.75
  -2  -6  -3 6936.37  160.80
   2   6   4   33.69   16.04
  -2  -6  -4    9.49   16.01
   2   6   5 1511.47   32.91
  -2  -6  -5 1466.77   32.79
   2   6   6  684.47   37.24
  -2  -6  -6  623.63   23.45
   2   6   7   35.48   17.53
  -2  -6  -7   77.11   28.68
   2   6   8   24.89   17.52
  -2  -6  -8  -25.73   17.90
   2   6   9  272.03   33.50
  -2  -6  -9  246.71   21.53
   2   6  10    9.99   31.31
  -2  -6 -10  -26.44   20.03
   2   6  11  207.53   35.78
  -2  -6 -11  175.64   22.95
   2   6  12  506.87   43.46
  -2  -6 -12  476.60   29.71
  -2  -7  10  193.19   24.79
  -2  -7  10  199.40   21.94
  -2  -7   9  113.40   23.63
  -2  -7   9  132.86   20.57
  -2  -7   8 1294.76   39.34
  -2  -7   8 1223.18   34.84
  -2  -7   7    2.11   20.60
  -2  -7   7   28.72   30.10
  -2  -7   6   52.77   12.89
  -2  -7   6   28.05   18.72
  -2  -7   5 2604.06   43.66
  -2  -7   5 2523.73   53.16
  -2  -7   4  759.01   19.20
  -2  -7   4  706.64   26.67
   2   7  -3  335.67   22.61
  -2  -7   3  301.30   14.82
  -2  -7   3  307.60   21.92
   2   7  -2  934.66   29.80
  -2  -7   2  872.36   21.46
  -2  -7   2  926.92   29.05
   2   7  -1  691.08   40.14
  -2  -7   1  639.55   26.34
   2   7   0 1710.90   57.26
  -2  -7   0 1701.67   39.09
   2   7   1  135.49   31.46
  -2  -7  -1   60.90   19.84
   2   7   2   53.10   19.25
  -2  -7  -2   14.48   19.19
   2   7   3    0.49   18.45
  -2  -7  -3   27.29   19.16
   2   7   4   -3.25   19.04
  -2  -7  -4   -3.34   19.08
   2   7   5  342.06   35.97
  -2  -7  -5  331.75   22.71
   2   7   6  -22.69   19.30
  -2  -7  -6   15.52   19.48
   2   7   7 3153.16   65.52
  -2  -7  -7 3089.02   66.68
   2   7   8  138.19   36.21
  -2  -7  -8  163.87   23.10
   2   7   9  379.38   25.19
  -2  -7  -9  317.75   41.28
   2   7  10  104.66   22.56
  -2  -7 -10   39.05   38.51
   2   7  11  573.88   30.73
  -2  -7 -11  555.12   48.69
  -2  -8   9  234.89   28.37
  -2  -8   9  231.11   37.20
  -2  -8   8  162.69   26.88
  -2  -8   8  176.19   25.46
  -2  -8   8  196.21   36.14
  -2  -8   7  330.48   18.84
  -2  -8   7  309.18   24.42
  -2  -8   6  679.65   22.90
  -2  -8   6  671.00   28.18
  -2  -8   5 2673.50   64.44
  -2  -8   5 2653.96   78.11
  -2  -8   4  831.35   22.77
  -2  -8   4  847.02   30.79
   2   8  -3 1056.79   33.93
  -2  -8   3  959.58   24.21
  -2  -8   3 1034.82   50.31
   2   8  -2   85.02   33.47
  -2  -8   2   -0.20   14.56
  -2  -8   2   -7.96   21.21
   2   8  -1  448.24   40.86
  -2  -8   1  404.68   25.62
   2   8   0    8.53   21.46
  -2  -8   0    9.41   34.05
   2   8   1  591.75   28.24
  -2  -8  -1  606.16   27.89
   2   8   2   -4.95   21.20
  -2  -8  -2   46.76   21.54
   2   8   3    3.26   21.27
  -2  -8  -3  -28.19   22.40
   2   8   4   -6.29   21.08
  -2  -8  -4   -5.02   21.14
   2   8   5   20.41   21.99
  -2  -8  -5   85.05   22.46
   2   8   6 1522.79   42.37
  -2  -8  -6 1581.37   44.04
   2   8   7  768.18   32.94
  -2  -8  -7  783.30   33.07
   2   8   8  673.03   32.51
  -2  -8  -8  735.01   33.51
   2   8   9   18.47   23.99
  -2  -8  -9   68.75   25.16
   2   8  10  228.39   28.01
  -2  -8 -10  310.50   29.18
   2   8  11  462.15   32.47
  -2  -8 -11  507.53   34.19
  -2  -9   8  741.07   25.73
  -2  -9   8  711.96   35.66
  -2  -9   8  684.27   31.68
  -2  -9   7  300.54   33.00
  -2  -9   7  300.40   26.54
  -2  -9   6  429.06   22.39
  -2  -9   6  428.73   27.56
  -2  -9   5  276.14   19.91
  -2  -9   5  256.40   41.83
  -2  -9   4  298.88   19.77
  -2  -9   4  373.58   26.46
   2   9  -3  639.49   50.23
  -2  -9   3  583.81   22.90
  -2  -9   3  662.84   49.79
   2   9  -2  287.95   26.54
  -2  -9   2  239.23   19.37
   2   9  -1 6440.41  149.27
  -2  -9   1 6445.41  184.53
   2   9   0    6.87   24.56
  -2  -9   0   36.29   24.05
   2   9   1  956.61   36.58
  -2  -9  -1  900.20   36.64
   2   9   2   52.24   25.14
  -2  -9  -2    9.86   25.11
   2   9   3 1024.93   38.18
  -2  -9  -3  985.51   58.75
   2   9   4  -24.45   24.61
  -2  -9  -4   11.66   40.87
   2   9   5  166.72   27.74
  -2  -9  -5  186.60   27.47
   2   9   6   54.65   26.31
  -2  -9  -6   68.73   27.01
   2   9   7  540.56   34.30
  -2  -9  -7  657.77   35.26
   2   9   8  235.65   29.15
  -2  -9  -8  249.85   30.03
   2   9   9  551.74   56.41
  -2  -9  -9  662.33   36.87
   2   9  10  418.22   55.36
  -2  -9 -10  535.76   36.26
  -2 -10   7   71.56   21.06
  -2 -10   7   77.71   25.50
  -2 -10   6   92.93   20.85
  -2 -10   6   39.55   26.05
  -2 -10   5  179.41   21.20
  -2 -10   5  179.90   43.36
  -2 -10   4   99.60   20.01
  -2 -10   4   93.13   26.22
   2  10  -3   -4.48   27.38
  -2 -10   3    8.66   31.37
  -2 -10   3   76.50   41.05
   2  10  -2 1409.03   47.30
  -2 -10   2 1462.70   38.94
  -2 -10   2 1488.04   48.13
   2  10  -1   29.20   27.28
  -2 -10   1   14.45   20.58
  -2 -10   1  -16.14   44.81
   2  10   0   39.94   27.51
  -2 -10   0   29.27   27.62
   2  10   1  967.77   62.53
  -2 -10  -1  930.48   65.36
   2  10   2  380.21   32.32
  -2 -10  -2  359.12   33.63
   2  10   3  712.32   38.99
  -2 -10  -3  684.71   38.59
   2  10   4   89.37   30.28
  -2 -10  -4  125.39   29.55
   2  10   5  124.00   29.82
  -2 -10  -5  121.44   51.27
   2  10   6  517.40   36.26
  -2 -10  -6  473.35   36.83
   2  10   7   83.44   50.47
  -2 -10  -7  134.25   32.21
   2  10   8  351.65   35.63
  -2 -10  -8  345.04   35.87
  -2 -11   4  211.36   24.01
  -2 -11   4  223.06   30.61
   2  11  -3   11.09   30.04
  -2 -11   3  -21.07   21.64
  -2 -11   3  -32.08   27.85
   2  11  -2  508.47   37.25
  -2 -11   2  492.81   45.83
  -2 -11   2  506.86   37.18
   2  11  -1 1393.57   53.32
  -2 -11   1 1360.76   63.74
  -2 -11   1 1461.03   54.02
   2  11   0  676.87   65.41
  -2 -11   0  701.14   42.11
   2  11   1   -4.21   30.63
  -2 -11  -1   75.28   32.20
   2  11   2  161.54   33.46
  -2 -11  -2  108.43   32.79
   2  11   3  688.97   42.19
  -2 -11  -3  772.94   68.69
   2  11   4  270.68   38.47
  -2 -11  -4  415.75   37.12
   2  11   5  395.31   38.67
  -2 -11  -5  393.35   40.01
   2  11   6  240.70   59.48
  -2 -11  -6  254.80   37.74
   3 -10  -2  400.99   41.01
   3 -10  -2  405.06   34.35
  -3  10   2  384.90   36.19
   3 -10  -1   81.24   35.40
   3 -10  -1   52.79   43.75
  -3  10   1  -33.64   48.29
   3 -10   0  375.18   64.98
   3 -10   0  347.83   30.62
  -3  10   0  410.01   33.58
   3 -10   1  565.81   41.53
   3 -10   1  527.56   31.65
  -3  10  -1  535.75   34.88
   3  -9  -6  149.12   36.54
  -3   9   6  116.30   35.36
   3  -9  -5  -34.83   32.72
  -3   9   5    4.67   52.24
   3  -9  -4   94.71   31.95
  -3   9   4   71.95   31.45
   3  -9  -3   97.69   34.18
   3  -9  -3  162.67   30.38
  -3   9   3  145.25   49.93
   3  -9  -2  106.81   54.77
   3  -9  -2  137.87   27.19
  -3   9   2   99.72   29.02
   3  -9  -1  126.45   32.05
   3  -9  -1   67.27   24.58
  -3   9   1   54.80   26.52
   3  -9   0  -34.47   31.11
   3  -9   0  -22.50   23.14
  -3   9   0   51.57   40.03
   3  -9   1  379.74   35.80
   3  -9   1  404.08   41.80
  -3   9  -1  399.68   45.57
   3  -9   2  271.84   33.07
   3  -9   2  214.62   24.01
  -3   9  -2  258.06   41.43
   3  -9   3  -37.80   49.92
   3  -9   3  -16.11   20.12
  -3   9  -3   -0.18   35.86
   3  -9   4  530.54   61.64
   3  -9   4  519.94   40.48
  -3   9  -4  580.13   28.76
   3  -9   5  669.51   64.63
   3  -9   5  691.76   43.07
  -3   9  -5  672.50   29.77
   3  -8  -8   73.40   34.98
  -3   8   8    7.23   34.64
   3  -8  -7   32.64   54.61
  -3   8   7   47.26   32.10
   3  -8  -6  200.00   34.74
  -3   8   6  267.97   33.03
   3  -8  -5  308.85   33.35
  -3   8   5  361.51   53.38
   3  -8  -4  672.20   36.06
  -3   8   4  642.02   36.34
   3  -8  -3  -38.97   25.36
  -3   8   3   15.36   42.36
   3  -8  -2  177.23   30.84
   3  -8  -2  195.71   40.71
  -3   8   2  163.99   27.79
   3  -8  -1 1834.65   55.70
   3  -8  -1 1827.65   47.45
  -3   8   1 1822.54   48.87
   3  -8   0    4.59   27.59
   3  -8   0   30.65   20.83
  -3   8   0   30.14   22.02
   3  -8   1  576.15   53.55
   3  -8   1  548.76   25.82
  -3   8  -1  518.09   27.26
   3  -8   2  174.09   46.28
   3  -8   2  138.90   19.88
  -3   8  -2  171.63   21.68
   3  -8   3    0.79   43.31
   3  -8   3   25.12   28.68
  -3   8  -3  -16.92   18.66
   3  -8   4   39.19   44.81
   3  -8   4    6.18   17.10
  -3   8  -4   36.27   29.91
   3  -8   5   62.80   44.20
   3  -8   5   18.73   17.02
  -3   8  -5   20.05   18.43
   3  -8   6  194.05   48.51
   3  -8   6  126.93   18.32
   3  -8   7  268.03   32.67
   3  -8   7  252.67   20.01
   3  -7  -9   74.45   33.96
  -3   7   9   79.88   33.04
   3  -7  -8  133.31   33.78
  -3   7   8  142.08   32.92
   3  -7  -7  152.22   51.04
  -3   7   7  133.39   31.15
   3  -7  -6  751.49   38.30
  -3   7   6  758.50   38.51
   3  -7  -5  167.96   45.71
  -3   7   5  142.12   45.81
   3  -7  -4  834.91   36.10
  -3   7   4  747.79   34.70
   3  -7  -3   61.98   23.69
  -3   7   3   55.37   37.73
   3  -7  -2  414.21   29.38
   3  -7  -2  404.17   25.68
  -3   7   2  418.57   26.11
   3  -7  -1  -53.22   40.64
   3  -7  -1   29.67   19.42
  -3   7   1   30.68   20.80
   3  -7   0 3302.43  100.99
   3  -7   0 3145.82   84.69
  -3   7   0 3237.31   66.22
   3  -7   1  223.06   42.61
   3  -7   1  165.02   18.96
  -3   7  -1  211.44   20.09
   3  -7   2 2542.67   85.76
   3  -7   2 2563.06   65.80
  -3   7  -2 2518.99   50.16
   3  -7   3   47.21   40.41
   3  -7   3  101.93   16.10
  -3   7  -3   60.37   27.48
   3  -7   4   47.19   40.42
   3  -7   4   -6.43   14.78
  -3   7  -4    6.64   15.71
   3  -7   5  147.04   41.66
   3  -7   5   62.63   24.26
  -3   7  -5   50.71   15.94
   3  -7   6 1088.99   62.15
   3  -7   6 1038.01   36.45
   3  -7   7   22.23   43.95
   3  -7   7    9.66   22.44
   3  -7   8  193.47   48.25
   3  -6 -11   60.21   56.07
   3  -6 -10   52.46   33.22
  -3   6  10  123.63   33.18
   3  -6  -9   77.12   32.11
  -3   6   9   85.68   31.11
   3  -6  -8  188.06   53.40
  -3   6   8  217.50   32.41
   3  -6  -7  180.32   29.42
  -3   6   7  162.56   28.82
   3  -6  -6  762.98   35.07
  -3   6   6  724.66   35.19
   3  -6  -5  408.71   29.09
  -3   6   5  452.75   29.16
   3  -6  -4  563.14   29.09
  -3   6   4  582.84   29.52
   3  -6  -3   76.49   34.45
  -3   6   3   17.05   20.67
   3  -6  -2 1225.55   33.80
  -3   6   2 1270.61   34.55
   3  -6  -1   70.00   21.67
   3  -6  -1   49.86   17.74
  -3   6   1   60.67   18.68
   3  -6   0  -26.92   20.99
   3  -6   0   15.80   15.67
  -3   6   0   -6.55   16.81
   3  -6   1 3057.52   64.94
   3  -6   1 2940.71   53.04
  -3   6  -1 3020.50   54.77
   3  -6   2 9019.02  247.26
   3  -6   2 8800.49  212.18
  -3   6  -2 9067.41  216.36
   3  -6   3 3906.53  111.26
   3  -6   3 3816.41   66.94
  -3   6  -3 3949.61   68.20
   3  -6   4 1743.08   45.23
   3  -6   4 1725.18   42.36
   3  -6   5   50.02   22.96
   3  -6   5   56.42   12.19
  -3   6  -5   30.56   21.22
   3  -6   6  431.39   28.46
   3  -6   6  396.51   15.33
   3  -6   7   38.43   25.63
   3  -6   7   16.18   11.47
   3  -6   8  327.51   29.00
   3  -6   8  239.39   19.12
   3  -6   8  289.59   14.26
   3  -6   9   63.08   27.49
  -3   6 -10  744.09   38.39
   3  -5 -11  165.20   33.81
  -3   5  11  129.18   32.53
   3  -5 -10   12.54   48.92
  -3   5  10  100.67   48.38
   3  -5  -9  312.93   33.73
  -3   5   9  430.32   51.73
   3  -5  -8  644.06   37.60
  -3   5   8  683.48   54.13
   3  -5  -7  136.53   43.34
  -3   5   7  127.07   25.69
   3  -5  -6 1146.37   37.74
  -3   5   6 1167.23   38.17
   3  -5  -5   36.12   22.43
  -3   5   5   73.82   21.73
   3  -5  -4  784.31   46.71
  -3   5   4  878.58   45.60
   3  -5  -3  885.69   27.92
  -3   5   3  870.41   28.91
   3  -5  -2 2505.16   49.37
  -3   5   2 2535.95   49.13
   3  -5  -1 1025.71   29.30
   3  -5  -1 1039.93   39.17
  -3   5   1 1031.64   39.62
   3  -5   0  472.49   22.84
   3  -5   0  456.63   18.18
  -3   5   0  455.24   18.78
   3  -5   1 2300.09   69.52
   3  -5   1 2268.88   39.30
  -3   5  -1 2395.91   41.21
   3  -5   219281.88  599.00
   3  -5   218665.21  549.25
  -3   5  -219703.71  609.72
   3  -5   3  217.82   22.02
   3  -5   3  199.02   12.53
  -3   5  -3  179.00   21.14
   3  -5   4   22.39   20.24
   3  -5   4   17.21   16.74
  -3   5  -4  -18.97   17.67
   3  -5   5   45.61   20.66
   3  -5   5   16.61    9.69
  -3   5  -5   41.84   10.50
   3  -5   6  764.27   31.27
   3  -5   6  766.89   15.54
  -3   5  -6  772.98   31.57
   3  -5   7  107.91   24.72
   3  -5   7   97.12   15.41
  -3   5  -7   59.19   23.36
   3  -5   8   31.25   23.28
   3  -5   8   -0.45   14.28
  -3   5  -8   50.20   36.94
   3  -5   9   51.05   26.72
  -3   5  -9   73.08   24.92
  -3   5 -10  -14.00   25.70
   3  -4 -12   89.89   54.87
  -3   4  12   22.92   29.65
   3  -4 -11   93.85   31.43
  -3   4  11  115.60   28.91
   3  -4 -10 1173.95   46.69
  -3   4  10 1260.83   66.44
   3  -4  -9   86.88   43.93
  -3   4   9   88.69   42.06
   3  -4  -8   -7.51   24.48
  -3   4   8   46.32   23.77
   3  -4  -7 1431.06   42.78
  -3   4   7 1493.95   41.07
   3  -4  -6 6048.79  161.86
  -3   4   6 5781.01  156.74
   3  -4  -5  327.29   23.74
  -3   4   5  331.84   23.17
   3  -4  -4 2207.77   45.59
  -3   4   4 2135.67   44.23
   3  -4  -3  614.28   35.40
  -3   4   3  564.38   35.10
   3  -4  -2 8664.66  178.82
  -3   4   2 8738.96  177.86
   3  -4  -1 1258.21   29.29
   3  -4  -1 1277.82   27.06
  -3   4   1 1271.29   27.51
   3  -4   0  934.31   25.23
   3  -4   0  899.60   29.80
  -3   4   0  883.66   21.19
   3  -4   1 1250.46   29.47
   3  -4   1 1205.86   22.31
  -3   4  -1 1285.56   23.28
   3  -4   2 1831.66   37.79
   3  -4   2 1759.67   27.26
  -3   4  -2 1800.45   27.78
   3  -4   3  338.37   20.99
   3  -4   3  329.69   17.64
  -3   4  -3  338.03   11.68
   3  -4   4 4524.26  108.72
   3  -4   4 4303.32   71.32
  -3   4  -4 4281.58   84.30
  -3   4  -4 4439.62   73.49
   3  -4   5   10.07   19.14
   3  -4   5   16.59    7.34
  -3   4  -5   35.12   19.09
  -3   4  -5   10.08   13.09
   3  -4   6  -21.36   20.70
   3  -4   6   26.77   11.34
  -3   4  -6   25.18   20.45
   3  -4   7 2216.60   50.69
   3  -4   7 2152.56   33.54
  -3   4  -7 2181.90   52.26
   3  -4   8   85.54   23.07
   3  -4   8   44.02    5.74
   3  -4   8   60.94    6.50
  -3   4  -8   43.36   22.67
   3  -4   9   97.33    9.79
  -3   4  -9  104.21   23.94
  -3   4 -10  919.89   37.03
  -3   4 -11  393.53   31.45
   3  -3 -12  501.73   36.92
  -3   3  12  520.21   35.50
   3  -3 -11  233.36   50.68
  -3   3  11  281.75   48.65
   3  -3 -10  383.56   32.44
  -3   3  10  353.39   29.72
   3  -3  -9 1629.51   47.63
  -3   3   9 1708.47   46.43
   3  -3  -8 1792.90   46.95
  -3   3   8 1747.37   45.47
   3  -3  -7 2807.45   62.76
  -3   3   7 2881.37   62.80
   3  -3  -613347.12  396.90
  -3   3   613365.61  346.88
   3  -3  -5   41.61   18.97
  -3   3   5   54.83   18.25
   3  -3  -4 1253.32   30.36
  -3   3   4 1299.25   29.92
   3  -3  -3  196.39   27.53
  -3   3   3  207.42   16.66
   3  -3  -2   85.41   14.09
  -3   3   2  114.25   23.80
   3  -3  -1   76.06   14.58
   3  -3  -1   95.78   12.94
  -3   3   1   79.75   12.70
   3  -3   0 4611.05   78.15
   3  -3   0 4657.77   86.08
  -3   3   0 4736.59   87.99
   3  -3   1 1659.67   31.69
   3  -3   1 1580.79   24.01
  -3   3  -1 1612.54   24.31
   3  -3   2  389.72   18.40
   3  -3   2  333.09   10.21
  -3   3  -2  345.02   18.14
  -3   3  -2  353.62   16.10
   3  -3   3  259.32   18.11
   3  -3   3  216.27    8.11
  -3   3  -3  228.55   18.40
  -3   3  -3  243.94   13.12
   3  -3   4   72.52   17.60
   3  -3   4   90.82   10.06
  -3   3  -4  106.76   28.71
  -3   3  -4   84.05    6.74
   3  -3   5 1427.87   50.80
  -3   3  -5 1343.76   33.91
   3  -3   6   37.55   18.70
   3  -3   6   16.76    6.87
  -3   3  -6   35.49   18.95
   3  -3   7  101.63   20.75
   3  -3   7   84.55    6.28
   3  -3   7   92.62    6.76
  -3   3  -7  124.23   20.87
   3  -3   8  374.40    7.98
  -3   3  -8  498.44   40.85
  -3   3  -9   23.07   36.89
  -3   3 -10   -6.94   23.94
  -3   3 -11  448.64   49.45
  -3   3 -12  416.73   52.26
   3  -2 -13  200.60   32.08
  -3   2  13  108.89   29.35
   3  -2 -12  242.19   31.86
  -3   2  12  242.45   28.79
   3  -2 -11  439.49   50.56
  -3   2  11  381.27   47.22
   3  -2 -10 1800.22   49.72
  -3   2  10 1762.29   48.08
   3  -2  -9  392.01   46.47
  -3   2   9  455.93   26.98
   3  -2  -8  248.17   24.84
  -3   2   8  237.18   36.36
   3  -2  -7   22.91   19.44
  -3   2   7   36.98   32.08
   3  -2  -6 2175.02   46.43
  -3   2   6 2240.22   44.99
   3  -2  -5 2810.02   52.78
  -3   2   5 2794.59   51.92
   3  -2  -4 1746.78   50.47
  -3   2   4 1807.04   49.89
   3  -2  -3 1002.41   24.04
  -3   2   3 1024.89   23.83
   3  -2  -2  551.72   18.11
  -3   2   2  543.67   17.77
   3  -2  -139336.64 1944.12
   3  -2  -142568.26 2084.03
  -3   2   145400.37 2135.40
   3  -2   0   70.57   13.16
   3  -2   0   82.11   10.36
  -3   2   0   66.93   10.43
   3  -2   1  296.29   15.76
   3  -2   1  270.28   15.58
  -3   2  -1  305.62   16.43
  -3   2  -1  293.78    9.98
   3  -2   2  707.13   20.92
  -3   2  -2  697.48   20.76
   3  -2   3 3896.32   65.96
   3  -2   3 3766.74   44.22
  -3   2  -3 3991.97   84.61
  -3   2  -3 3840.60   44.85
   3  -2   4   75.08   25.90
  -3   2  -4   70.55   15.65
  -3   2  -4   75.86    6.11
   3  -2   5   82.78   16.43
  -3   2  -5   65.67   17.00
   3  -2   6 2970.66   57.01
  -3   2  -6 2891.87   75.90
  -3   2  -7  181.92   22.06
  -3   2  -8  334.42   25.54
  -3   2  -9  118.74   23.37
  -3   2 -10   28.94   23.75
  -3   2 -11   50.86   25.28
  -3   2 -12  -11.47   26.25
   3  -1 -13  303.69   32.86
  -3   1  13  301.46   30.19
   3  -1 -12  152.44   28.78
  -3   1  12  131.46   26.39
   3  -1 -11 1084.34   40.55
  -3   1  11 1112.66   38.64
   3  -1 -10   93.97   24.02
  -3   1  10  110.89   22.94
   3  -1  -9   83.01   22.37
  -3   1   9   38.24   34.30
   3  -1  -8   43.81   20.50
  -3   1   8   78.01   19.90
   3  -1  -7  279.86   34.02
  -3   1   7  293.24   21.65
   3  -1  -6 2074.57   43.97
  -3   1   6 2030.50   56.59
   3  -1  -5  682.12   23.59
  -3   1   5  617.31   33.65
   3  -1  -4  162.04   16.24
  -3   1   4  146.75   16.04
   3  -1  -3  269.83   16.52
  -3   1   3  302.17   16.13
   3  -1  -2  428.33   16.71
  -3   1   2  439.99   25.75
   3  -1  -1    1.72   17.30
   3  -1  -1    0.54   11.15
  -3   1   1  -10.78   10.95
   3  -1   0 1983.31   43.40
   3  -1   0 2012.99   28.54
  -3   1   0 2016.86   31.91
  -3   1   0 2046.82   28.23
   3  -1   1  227.44   23.57
   3  -1   1  204.28   13.50
  -3   1  -1  219.28   14.59
  -3   1  -1  213.34   13.18
   3  -1   2  891.68   21.23
   3  -1   2  875.02   10.60
  -3   1  -2  843.57   31.77
   3  -1   3  186.27   15.97
   3  -1   3  200.09    5.11
  -3   1  -3  201.13   25.60
  -3   1  -3  204.00    4.98
   3  -1   416039.16  424.66
  -3   1  -416419.22  439.38
   3  -1   5  132.67   16.49
  -3   1  -5   91.99   17.54
  -3   1  -6  379.54   21.36
  -3   1  -7 4472.52  113.47
  -3   1  -8   85.62   34.32
  -3   1  -9  193.20   38.79
  -3   1 -10   27.28   37.95
  -3   1 -11   67.72   24.68
  -3   1 -12   93.27   27.15
  -3   1 -13  302.73   33.35
   3   0 -13  120.72   17.16
   3   0 -13   78.02   28.24
  -3   0  13  127.03   26.45
   3   0 -12    9.10   15.74
   3   0 -12  -22.04   40.77
  -3   0  12   44.44   23.54
   3   0 -11 1827.03   50.55
  -3   0  11 1764.10   46.69
   3   0 -10  240.36   40.87
  -3   0  10  298.05   38.36
   3   0  -9 1273.96   37.09
  -3   0   9 1256.61   34.89
   3   0  -8    9.56   32.78
  -3   0   8  131.44   31.11
   3   0  -7   29.07   17.95
  -3   0   7    6.59   16.64
   3   0  -6 1435.93   32.99
  -3   0   6 1479.57   31.94
   3   0  -5  509.81   32.61
  -3   0   5  543.32   20.20
   3   0  -4  364.17   18.43
  -3   0   4  402.83   17.99
   3   0  -3 2732.72   45.15
  -3   0   3 2710.64   44.76
   3   0  -2   -2.55   11.44
   3   0  -2   11.16   13.22
  -3   0   2    0.66   20.96
   3   0  -1 8492.14  157.76
   3   0  -1 8567.19  157.73
  -3   0   1 8560.46  155.23
   3   0   0  643.97   15.29
   3   0   0  640.32   23.12
  -3   0   0  663.22   15.09
  -3   0   0  651.91   21.24
   3   0   1 2834.81   42.12
   3   0   1 2785.66   33.81
  -3   0  -1 2921.30   55.41
  -3   0  -1 2864.01   33.87
   3   0   2 3190.83   65.50
  -3   0  -2 3217.64   51.04
  -3   0  -2 3225.70   37.10
   3   0   3 3570.88   56.43
  -3   0  -3 3543.82   58.03
  -3   0  -4  404.62   18.08
  -3   0  -5 1965.40   37.11
  -3   0  -6   28.12   16.52
  -3   0  -7   77.05   18.87
  -3   0  -8 5175.59  106.36
   3   0   9  105.91    3.30
   3   0   9  105.81    3.19
  -3   0  -9  127.96   23.43
   3   0  10 1011.87   13.59
   3   0  10  929.63    9.99
   3   0  11   18.14    4.49
   3   0  11   15.35    6.03
  -3   0 -11   47.89   24.11
  -3   0 -12  143.41   44.89
  -3   0 -13  177.72   30.55
   3   1 -13   37.66   15.71
  -3  -1  13   30.23   24.34
   3   1 -12  232.03   16.89
  -3  -1  12  276.20   40.78
   3   1 -11   96.50   13.02
  -3  -1  11  122.58   22.66
   3   1 -10 1542.69   36.87
   3   1 -10 1660.82   43.33
  -3  -1  10 1622.39   40.84
   3   1  -9   57.05   10.39
   3   1  -9   31.83   32.47
  -3  -1   9   87.07   19.51
   3   1  -8  -13.93   18.91
  -3  -1   8    5.03   17.81
   3   1  -7  163.97   18.90
  -3  -1   7  189.64   29.40
   3   1  -6 1874.62   38.10
  -3  -1   6 1818.80   36.13
   3   1  -5 2136.72   39.98
  -3  -1   5 2119.28   38.21
   3   1  -420550.00  622.50
  -3  -1   420310.50  645.71
   3   1  -3 3690.66   62.22
  -3  -1   3 3811.90   62.74
   3   1  -2 2086.62   35.83
  -3  -1   2 2021.30   33.95
   3   1  -1   29.66    5.70
   3   1  -1   13.88   12.11
  -3  -1   1   18.08    9.43
  -3  -1   1   15.47   20.42
   3   1   0  153.80    8.72
  -3  -1   0  159.76    9.09
  -3  -1   0  200.01   18.37
  -3  -1  -1    2.66   10.20
  -3  -1  -1   12.21   12.82
  -3  -1  -2 7253.04  123.68
  -3  -1  -2 6941.40  105.46
  -3  -1  -2 6741.19   96.03
  -3  -1  -3   72.92   13.64
  -3  -1  -3  110.19    6.01
  -3  -1  -4 1508.92   28.54
  -3  -1  -4 1435.62   13.87
   3   1   5  207.45    3.26
  -3  -1  -5  224.97   16.34
  -3  -1  -5  209.16    4.95
   3   1   6  398.15    6.82
  -3  -1  -6  397.97   19.57
  -3  -1  -6  387.08    7.08
   3   1   7   35.93    5.85
  -3  -1  -7   28.67   17.23
  -3  -1  -7   24.38    5.92
   3   1   8   19.74    7.79
  -3  -1  -8   10.04   19.36
  -3  -1  -8    3.70    4.68
   3   1   9 7045.48  110.22
  -3  -1  -9 7387.66  195.89
   3   1  10  150.56    7.54
  -3  -1 -10  223.73   26.14
   3   1  11  412.17   11.32
  -3  -1 -11  479.49   31.02
  -3  -1 -12  236.42   47.97
  -3  -1 -13  498.86   35.80
   3   2 -13   26.20   14.39
  -3  -2  13   -8.74   24.11
   3   2 -12   19.35   12.46
  -3  -2  12  -28.43   36.82
   3   2 -11   44.54   11.71
  -3  -2  11   52.61   21.76
   3   2 -10  107.73   16.53
  -3  -2  10   96.69   20.59
   3   2  -9 1204.27   19.88
  -3  -2   9 1202.49   32.84
   3   2  -8  506.47   16.04
  -3  -2   8  501.12   36.31
   3   2  -7 2683.94   38.76
  -3  -2   7 2859.91   52.71
   3   2  -6   70.26    8.09
  -3  -2   6   77.87   17.04
   3   2  -5   43.30    3.28
  -3  -2   5   25.21   14.69
   3   2  -4 5046.16   54.44
  -3  -2   4 5235.18   88.81
  -3  -2   3 5728.60   98.54
  -3  -2   2  243.59   15.77
  -3  -2   1 8862.55  134.54
  -3  -2   1 8770.58  164.22
  -3  -2   042511.23 1912.30
  -3  -2   041052.89 1911.33
  -3  -2  -111088.06  218.82
   3   2   2 1280.55   18.31
  -3  -2  -2 1257.13   24.30
   3   2   3   72.51    6.74
  -3  -2  -3   81.64    6.68
   3   2   4  645.76    9.92
  -3  -2  -4  664.39   13.92
   3   2   5 1761.25   19.80
  -3  -2  -5 1726.24   24.18
   3   2   6  229.82   10.94
  -3  -2  -6  234.17   10.87
   3   2   7  610.92   15.01
  -3  -2  -7  565.96   10.89
   3   2   8  341.58   14.12
  -3  -2  -8  294.46   24.14
  -3  -2  -8  323.22    9.59
   3   2   9  180.67   14.48
  -3  -2  -9  223.47   24.42
  -3  -2  -9  152.52   14.73
   3   2  10  282.53   11.14
  -3  -2 -10  324.47   43.63
   3   2  11 3999.36   63.24
  -3  -2 -11 4138.45   96.33
   3   2  12  128.72   21.80
  -3  -2 -12  169.43   28.88
  -3  -2 -13  249.51   34.27
  -3  -3  13  391.17   28.51
   3   3 -12 1468.71   39.33
  -3  -3  12 1739.44   64.90
   3   3 -11   76.32   18.25
  -3  -3  11  131.57   21.89
   3   3 -10    7.05    9.16
  -3  -3  10   36.19   19.94
   3   3  -9  226.99   14.90
  -3  -3   9  263.64   22.05
  -3  -3   8 8240.36  184.97
   3   3  -7  796.90   11.58
  -3  -3   7  800.71   25.85
   3   3  -6 1323.99   17.12
  -3  -3   6 1437.41   31.82
  -3  -3   5  368.11   18.94
  -3  -3   4  673.09   21.43
  -3  -3   3 1638.71   30.92
  -3  -3   2 8439.42  162.82
  -3  -3   1  194.79   14.94
  -3  -3   0 7414.51  131.47
   3   3   111883.16  275.82
  -3  -3  -112108.18  280.92
   3   3   2 1912.99   27.82
  -3  -3  -2 1781.25   27.04
   3   3   3 5514.25   82.34
  -3  -3  -3 5402.45   80.99
   3   3   4 1128.33   24.18
  -3  -3  -4 1121.42   23.78
   3   3   5  561.50   17.83
  -3  -3  -5  533.33   11.84
   3   3   6 3414.08   55.69
  -3  -3  -6 3475.43   56.27
   3   3   7 7904.68  150.12
  -3  -3  -7 7735.61  139.43
   3   3   8    2.19    9.56
  -3  -3  -8    6.35    9.53
   3   3   9  587.30   22.72
  -3  -3  -9  548.36   22.72
   3   3  10  794.10   26.04
  -3  -3 -10  697.93   19.06
   3   3  11   71.11   20.34
  -3  -3 -11   72.89   27.96
  -3  -3 -11   72.60   20.56
   3   3  12   25.57   23.55
  -3  -3 -12   47.35   29.31
  -3  -3 -12   24.71   12.99
  -3  -3 -13  412.30   36.03
  -3  -4  12    7.20   37.71
  -3  -4  12   42.39   21.78
   3   4 -11   34.14   10.74
  -3  -4  11   56.72   21.75
  -3  -4  11   79.59   21.59
   3   4 -10   -7.96    9.25
  -3  -4  10   10.75   20.67
  -3  -4  10    4.35   20.05
   3   4  -9  128.98   13.90
  -3  -4   9  131.10   22.22
   3   4  -8 6765.89  111.41
  -3  -4   8 6892.83  148.01
   3   4  -7   53.29    6.09
  -3  -4   7  105.09   18.55
  -3  -4   6 2636.37   51.74
  -3  -4   6 2654.77   52.27
  -3  -4   5 1350.28   31.76
  -3  -4   5 1352.47   31.32
  -3  -4   4 7108.65  103.88
  -3  -4   4 7520.34  144.63
  -3  -4   4 7441.48  143.33
  -3  -4   3 5269.09   70.49
  -3  -4   3 6035.48  103.74
  -3  -4   2  474.18   18.69
  -3  -4   1  151.25   14.81
   3   4   0 4582.90   92.74
  -3  -4   0 4628.58   76.23
   3   4   1    4.90   12.65
  -3  -4  -1   10.43   12.62
   3   4   2 2303.02   36.52
  -3  -4  -2 2263.71   36.02
   3   4   3  996.50   29.31
  -3  -4  -3 1008.14   19.98
   3   4   4 2992.38   44.60
  -3  -4  -4 2939.69   44.45
   3   4   5 1928.93   30.11
  -3  -4  -5 1906.42   29.67
   3   4   612009.20  282.16
  -3  -4  -611603.09  259.02
   3   4   7  206.87   12.91
  -3  -4  -7  189.16   12.84
   3   4   8  745.16   27.82
  -3  -4  -8  709.80   18.99
   3   4   9   12.92   12.34
  -3  -4  -9   -7.44   20.26
   3   4  10 1269.85   26.30
  -3  -4 -10 1207.36   27.83
   3   4  11  391.58   18.18
  -3  -4 -11  344.85   28.74
   3   4  12  271.75   19.41
  -3  -4 -12  236.61   19.64
   3   4  13  129.94   20.90
  -3  -4 -13  134.29   36.39
  -3  -5  12  281.55   27.58
  -3  -5  12  395.49   41.51
  -3  -5  11  568.23   30.03
  -3  -5  11  565.60   44.07
  -3  -5  10  367.06   27.00
  -3  -5  10  303.91   24.19
  -3  -5   9  175.38   22.71
  -3  -5   9  125.90   20.88
  -3  -5   8  229.01   23.31
  -3  -5   8  214.58   20.99
  -3  -5   7 2760.81   58.42
  -3  -5   7 2619.18   73.34
  -3  -5   6 4544.19   90.36
  -3  -5   6 4428.04  111.37
  -3  -5   5 1521.84   17.92
  -3  -5   5 1617.14   36.09
  -3  -5   5 1526.71   35.58
  -3  -5   4 1203.39   19.36
  -3  -5   4 1159.87   43.40
  -3  -5   3  848.92   16.34
  -3  -5   3  817.67   24.65
  -3  -5   2 2875.51   51.34
   3   5  -1 5618.18   99.64
  -3  -5   1 5310.10   96.38
   3   5   0 2014.45   51.74
  -3  -5   0 1972.21   36.24
   3   5   1 6093.89  108.30
  -3  -5  -1 6074.12  128.70
   3   5   2    9.30   13.54
  -3  -5  -2   17.79   13.76
   3   5   3  231.58   14.94
  -3  -5  -3  213.96   24.00
   3   5   4  839.11   20.59
  -3  -5  -4  791.34   20.30
   3   5   5 1088.99   33.96
  -3  -5  -5 1022.79   23.05
   3   5   6  787.02   21.17
  -3  -5  -6  835.57   31.61
   3   5   7 1580.27   30.17
  -3  -5  -7 1511.04   30.41
   3   5   8 1197.76   26.40
  -3  -5  -8 1145.52   26.58
   3   5   9  152.57   24.88
  -3  -5  -9  133.39   15.64
   3   5  10  172.32   27.26
  -3  -5 -10  161.30   27.93
   3   5  11 2990.38   74.82
  -3  -5 -11 2811.16   61.47
   3   5  12  220.90   32.94
  -3  -5 -12  184.26   32.83
  -3  -5 -13   73.30   34.18
  -3  -6  11   92.08   25.85
  -3  -6  11   70.37   22.56
  -3  -6  10  114.51   24.28
  -3  -6  10   96.86   22.24
  -3  -6   9  -16.63   22.72
  -3  -6   9   17.38   20.29
  -3  -6   8 1237.73   37.95
  -3  -6   8 1244.59   35.04
  -3  -6   7   70.63   21.52
  -3  -6   7   58.70   19.73
  -3  -6   6 1093.14   22.55
  -3  -6   6 1167.05   33.34
  -3  -6   6 1166.90   32.86
  -3  -6   5   57.12   12.62
  -3  -6   5   69.69   31.80
  -3  -6   4 5154.75   77.16
  -3  -6   4 5005.81   98.61
  -3  -6   3  473.58   17.16
  -3  -6   3  484.37   22.85
   3   6  -2  768.87   25.80
  -3  -6   2  691.94   38.41
   3   6  -1   66.31   17.06
  -3  -6   1   64.21   17.73
   3   6   0 1378.94   32.01
  -3  -6   0 1352.59   46.04
   3   6   1  206.45   18.23
  -3  -6  -1  202.77   30.52
   3   6   2 5854.94  109.56
  -3  -6  -2 5953.99  111.78
   3   6   3 2659.65   48.46
  -3  -6  -3 2571.27   47.82
   3   6   4  796.14   23.84
  -3  -6  -4  894.60   35.65
   3   6   5  108.72   16.60
  -3  -6  -5  119.31   16.76
   3   6   6 3346.40   61.19
  -3  -6  -6 3263.60   60.10
   3   6   7  415.62   31.16
  -3  -6  -7  386.25   19.62
   3   6   8  860.38   25.81
  -3  -6  -8  851.90   26.11
   3   6   9  234.68   19.26
  -3  -6  -9  182.05   31.65
   3   6  10  681.38   25.82
  -3  -6 -10  721.58   26.75
   3   6  11   52.63   18.41
  -3  -6 -11   23.00   19.44
   3   6  12  108.74   21.45
  -3  -6 -12   53.81   22.15
  -3  -7  10  216.59   28.28
  -3  -7  10  175.71   24.31
  -3  -7   9  606.30   32.88
  -3  -7   9  589.26   28.42
  -3  -7   8   -4.24   23.39
  -3  -7   8    2.06   20.50
  -3  -7   7  355.89   12.64
  -3  -7   7  377.22   26.71
  -3  -7   7  338.14   38.43
  -3  -7   6   27.38   10.36
  -3  -7   6   41.49   20.81
  -3  -7   5 2080.92   41.27
  -3  -7   5 2050.81   47.94
  -3  -7   4  493.49   14.15
  -3  -7   4  428.91   41.11
  -3  -7   3 5334.37   98.35
  -3  -7   3 5207.72  107.57
   3   7  -2  168.79   21.94
  -3  -7   2  160.32   21.33
   3   7  -1   16.68   19.52
  -3  -7   1  -32.69   31.43
   3   7   0  602.53   25.58
  -3  -7   0  507.04   39.56
   3   7   1 4000.70   77.83
  -3  -7  -1 4024.10  103.72
   3   7   2   70.14   18.68
  -3  -7  -2   28.71   31.43
   3   7   3 2657.11   53.26
  -3  -7  -3 2660.21   73.25
   3   7   4 1075.30   45.52
  -3  -7  -4  983.62   30.59
   3   7   5   -1.36   18.41
  -3  -7  -5   10.43   18.18
   3   7   6  -39.13   30.25
  -3  -7  -6   82.41   18.48
   3   7   7  140.07   19.58
  -3  -7  -7   83.15   32.54
   3   7   8  112.81   20.01
  -3  -7  -8   89.43   20.15
   3   7   9  286.05   35.79
  -3  -7  -9  278.84   23.01
   3   7  10   33.31   32.84
  -3  -7 -10   33.61   20.75
   3   7  11   82.21   22.25
  -3  -7 -11   91.10   23.09
  -3  -8   9  255.78   30.69
  -3  -8   9  294.34   42.51
  -3  -8   8  279.40   30.05
  -3  -8   8  294.65   40.83
  -3  -8   7  372.94   15.08
  -3  -8   7  374.97   29.24
  -3  -8   7  327.67   26.80
  -3  -8   6  298.86   14.71
  -3  -8   6  270.69   25.70
  -3  -8   5  268.81   14.92
  -3  -8   5  265.63   25.46
  -3  -8   4 1214.00   34.58
  -3  -8   4 1163.38   37.44
  -3  -8   3  610.70   26.39
  -3  -8   3  557.21   29.49
   3   8  -2  533.08   29.37
  -3  -8   2  578.15   17.94
  -3  -8   2  549.27   28.80
   3   8  -1   68.99   22.04
  -3  -8   1  -39.58   36.94
   3   8   0 1334.34   39.63
  -3  -8   0 1370.78   39.77
   3   8   1   30.21   21.86
  -3  -8  -1   14.35   21.52
   3   8   2 2841.71   61.14
  -3  -8  -2 2797.17   61.63
   3   8   3  269.97   39.44
  -3  -8  -3  275.23   24.65
   3   8   4   69.68   21.81
  -3  -8  -4   75.91   22.56
   3   8   5  461.72   26.60
  -3  -8  -5  450.16   26.90
   3   8   6  566.16   28.24
  -3  -8  -6  570.37   27.88
   3   8   7   37.76   35.71
  -3  -8  -7   43.23   22.47
   3   8   8 1464.60   41.67
  -3  -8  -8 1464.38   62.82
   3   8   9  926.01   34.45
  -3  -8  -9  930.50   55.49
   3   8  10  -20.76   23.55
  -3  -8 -10   38.23   38.44
   3   8  11  356.70   28.75
  -3  -8 -11  330.63   29.99
  -3  -9   8   14.25   27.26
  -3  -9   8   25.33   24.10
  -3  -9   7  233.80   17.19
  -3  -9   7  260.36   27.24
  -3  -9   6   69.52   24.78
  -3  -9   6  113.88   24.77
  -3  -9   5  110.15   25.36
  -3  -9   5  135.24   40.70
  -3  -9   4  258.70   26.40
  -3  -9   4  267.84   27.64
  -3  -9   3   45.14   15.09
  -3  -9   3   60.33   25.20
   3   9  -2  326.50   46.64
  -3  -9   2  317.35   29.06
   3   9  -1 1015.79   38.09
  -3  -9   1 1003.72   57.98
   3   9   0   50.41   24.71
  -3  -9   0    0.97   24.37
   3   9   1  305.06   28.36
  -3  -9  -1  292.35   27.45
   3   9   2   73.14   40.22
  -3  -9  -2   62.83   24.80
   3   9   3   72.27   24.80
  -3  -9  -3   45.97   41.68
   3   9   4  164.18   26.22
  -3  -9  -4  162.44   43.61
   3   9   5  451.28   30.18
  -3  -9  -5  431.32   48.56
   3   9   6  272.85   28.85
  -3  -9  -6  336.60   45.89
   3   9   7 2221.09   59.26
  -3  -9  -7 2302.75   61.52
   3   9   8  387.53   30.57
  -3  -9  -8  436.34   49.38
  -3  -9  -9 1294.29   69.02
   3   9  10  123.50   44.92
  -3  -9 -10  108.49   47.24
  -3 -10   7  100.11   26.91
  -3 -10   6  667.69   25.63
  -3 -10   6  722.29   35.75
  -3 -10   5   14.89   28.67
  -3 -10   5   36.57   43.07
  -3 -10   4   73.30   17.63
  -3 -10   4   86.84   28.03
  -3 -10   3 1059.59   29.79
  -3 -10   3 1068.75   43.51
   3  10  -2  557.96   55.35
  -3 -10   2  498.82   23.40
  -3 -10   2  529.87   34.37
   3  10  -1  240.35   30.40
  -3 -10   1  186.77   30.76
   3  10   0   18.97   28.40
  -3 -10   0   24.19   28.00
   3  10   1 2427.37   65.14
  -3 -10  -1 2389.48   65.47
   3  10   2   87.53   28.73
  -3 -10  -2   75.78   28.96
   3  10   3    7.85   27.38
  -3 -10  -3  -45.73   29.45
   3  10   4  143.28   47.32
  -3 -10  -4  143.55   29.17
   3  10   5  437.17   34.14
  -3 -10  -5  437.88   33.55
   3  10   6   42.71   29.44
  -3 -10  -6  112.15   47.58
   3  10   7   56.39   47.16
  -3 -10  -7   43.56   47.40
  -3 -10  -7   14.34   48.62
   3  10   8  138.26   30.13
  -3 -10  -8  117.67   50.56
  -3 -11   5   83.63   48.05
  -3 -11   4  276.07   23.00
  -3 -11   4  272.27   32.49
  -3 -11   3  321.01   36.42
  -3 -11   3  349.09   35.03
   3  11  -2  188.17   34.35
  -3 -11   2  228.97   22.55
  -3 -11   2  200.57   33.73
   3  11  -1  966.20   47.47
  -3 -11   1 1056.34   35.29
  -3 -11   1 1059.71   46.87
   3  11   0 1730.12   60.67
  -3 -11   0 1725.14   60.52
   3  11   1 1274.29   52.96
  -3 -11  -1 1352.02   52.96
   3  11   2   23.58   31.71
  -3 -11  -2   26.07   31.60
   3  11   3   48.98   50.51
  -3 -11  -3   10.41   31.67
   3  11   4  140.56   32.78
  -3 -11  -4  144.65   33.74
   3  11   5  568.47   65.49
  -3 -11  -5  623.04   40.50
   3  11   6  443.88   39.10
  -3 -11  -6  476.91   39.95
   3  12   0    4.23   56.09
  -3 -12   0   12.36   55.55
   3  12   1  101.17   35.56
  -3 -12  -1   18.62   37.11
   3  12   2   70.96   59.24
  -3 -12  -2  -10.25   58.34
   4  -9  -4  332.19   39.45
   4  -9  -4  296.16   36.25
  -4   9   4  373.00   36.37
   4  -9  -3   18.85   32.89
   4  -9  -3    9.92   28.86
  -4   9   3   30.21   30.63
   4  -9  -2   78.98   56.12
   4  -9  -2   69.65   27.22
  -4   9   2   54.85   28.80
   4  -9  -1   22.72   33.83
   4  -9  -1   29.59   40.63
  -4   9   1   10.90   43.86
   4  -9   0 1968.58   66.16
   4  -9   0 1934.48   54.20
  -4   9   0 1968.55   55.21
   4  -9   1  396.05   64.22
   4  -9   1  407.02   28.78
  -4   9  -1  430.55   30.61
   4  -9   2   14.95   33.93
   4  -9   2   36.51   22.26
  -4   9  -2   24.74   23.58
   4  -9   3   83.46   34.54
   4  -9   3   64.34   34.51
  -4   9  -3    9.47   22.95
   4  -8  -7  547.18   43.88
  -4   8   7  545.22   42.66
   4  -8  -6  275.34   36.99
  -4   8   6  269.38   35.94
   4  -8  -5  422.20   36.42
  -4   8   5  350.52   35.13
   4  -8  -4   72.70   30.59
   4  -8  -4   21.94   28.80
  -4   8   4   35.54   28.87
   4  -8  -3  338.65   57.64
   4  -8  -3  455.79   31.23
  -4   8   3  451.62   33.13
   4  -8  -2   49.66   29.84
   4  -8  -2   50.20   23.93
  -4   8   2  -14.71   26.34
   4  -8  -1   18.04   29.28
   4  -8  -1   20.58   36.56
  -4   8   1   24.57   39.95
   4  -8   0  318.85   53.65
   4  -8   0  271.29   24.04
  -4   8   0  313.20   26.05
   4  -8   1  858.29   43.08
   4  -8   1  928.20   32.04
  -4   8  -1  930.35   33.10
   4  -8   2   67.24   30.39
   4  -8   2   27.57   32.38
  -4   8  -2   40.25   33.24
   4  -8   3   12.46   31.45
   4  -8   3   50.40   18.90
  -4   8  -3   55.27   32.00
   4  -8   4  448.45   36.04
   4  -8   4  366.07   22.50
  -4   8  -4  398.02   23.49
   4  -8   5  776.22   42.79
   4  -8   5  738.10   27.13
  -4   8  -5  791.23   40.93
   4  -7  -8 2135.42   73.69
  -4   7   8 2022.75  102.97
   4  -7  -7  120.40   51.98
  -4   7   7   17.42   31.40
   4  -7  -6   -6.39   29.00
  -4   7   6    6.90   29.19
   4  -7  -5   72.11   46.26
  -4   7   5   33.03   27.48
   4  -7  -4  295.21   30.24
  -4   7   4  310.85   47.24
   4  -7  -3   75.20   26.74
   4  -7  -3   63.15   38.79
  -4   7   3   36.23   24.85
   4  -7  -2  213.10   29.17
   4  -7  -2  286.49   24.24
  -4   7   2  284.88   26.26
   4  -7  -1  162.89   47.16
   4  -7  -1  225.04   35.68
  -4   7   1  187.88   37.85
   4  -7   0 1273.18   68.67
   4  -7   0 1250.83   34.88
  -4   7   0 1333.74   36.89
   4  -7   1   36.79   26.41
   4  -7   1   12.27   17.85
  -4   7  -1   14.20   30.52
   4  -7   2 1018.83   41.16
   4  -7   2 1033.12   42.61
  -4   7  -2  919.97   43.05
   4  -7   3  300.18   31.57
   4  -7   3  305.98   19.32
  -4   7  -3  312.58   19.80
   4  -7   4  676.81   36.92
   4  -7   4  634.69   22.75
  -4   7  -4  590.78   34.80
   4  -7   5   78.72   28.22
   4  -7   5   32.13   15.70
  -4   7  -5   39.90   25.34
   4  -7   6  730.60   40.31
   4  -7   6  770.89   24.21
   4  -7   7   19.85   30.69
   4  -6 -10   16.98   58.32
  -4   6  10   27.21   55.49
   4  -6  -9  -23.87   34.49
  -4   6   9  -32.55   52.98
   4  -6  -8  203.29   56.34
  -4   6   8  143.18   54.01
   4  -6  -7  130.37   32.44
  -4   6   7  233.49   51.04
   4  -6  -6  -11.38   27.49
  -4   6   6  -13.43   27.76
   4  -6  -5  584.56   33.08
  -4   6   5  587.14   33.16
   4  -6  -4  235.81   26.45
  -4   6   4  156.70   42.89
   4  -6  -3 4394.85   95.43
   4  -6  -3 4403.74   94.32
  -4   6   3 4376.19   93.74
   4  -6  -2  441.07   45.18
   4  -6  -2  429.74   24.93
  -4   6   2  452.02   40.85
   4  -6  -1 2102.72   74.89
   4  -6  -1 2066.90   44.64
  -4   6   1 2112.13   45.88
   4  -6   0  131.61   25.39
   4  -6   0  142.68   28.97
  -4   6   0  137.07   18.98
   4  -6   1  887.48   34.86
   4  -6   1  829.41   24.86
  -4   6  -1  898.94   39.50
   4  -6   2  286.29   27.04
   4  -6   2  209.11   27.02
  -4   6  -2  214.56   17.17
   4  -6   3  302.41   28.92
   4  -6   3  341.18   25.56
  -4   6  -3  330.85   16.89
   4  -6   4    7.04   25.30
   4  -6   4   33.12   12.98
  -4   6  -4   32.96   13.32
   4  -6   5  591.66   33.88
   4  -6   5  595.00   18.53
  -4   6  -5  636.36   18.64
   4  -6   6   -5.13   26.83
   4  -6   6   -0.22   12.13
   4  -6   7   -5.82   27.91
   4  -6   8   49.45   28.71
   4  -6   9  274.77   34.06
   4  -5 -11   95.00   38.07
  -4   5  11   76.12   56.01
   4  -5 -10  138.10   34.95
  -4   5  10   44.82   52.29
   4  -5  -9  132.12   53.20
  -4   5   9  152.95   30.79
   4  -5  -8  316.85   33.66
  -4   5   8  316.66   31.36
   4  -5  -7  139.17   30.21
  -4   5   7  207.07   45.72
   4  -5  -6  724.56   35.96
  -4   5   6  760.95   53.65
   4  -5  -5   10.99   23.13
  -4   5   5   -8.66   22.52
   4  -5  -4 1778.02   44.66
  -4   5   4 1779.52   44.21
   4  -5  -3  951.55   31.29
  -4   5   3  987.33   48.54
   4  -5  -2  619.45   26.29
   4  -5  -2  652.05   24.38
  -4   5   2  575.47   25.52
   4  -5  -1  -11.07   20.06
   4  -5  -1   -8.49   15.58
  -4   5   1  -22.23   17.01
   4  -5   0 1595.87   39.89
   4  -5   0 1494.19   30.95
  -4   5   0 1509.95   32.44
   4  -5   1  123.09   22.14
   4  -5   1  136.08   14.27
  -4   5  -1  143.55   15.38
   4  -5   2  669.58   29.95
   4  -5   2  654.24   18.28
  -4   5  -2  660.12   18.90
   4  -5   3  -26.52   36.73
   4  -5   3   27.12   18.28
  -4   5  -3    6.68   19.16
   4  -5   4  122.59   40.28
  -4   5  -4  177.76   12.23
   4  -5   5    4.00   38.61
   4  -5   5   -9.32   15.01
  -4   5  -5    6.05    9.87
   4  -5   6  191.74   43.75
   4  -5   6  177.06   15.35
  -4   5  -6  212.03   26.98
   4  -5   7  105.44   45.69
   4  -5   7  123.38   14.04
  -4   5  -7  105.48   27.81
   4  -5   8  514.04   52.66
  -4   5  -8  531.39   34.06
   4  -5   9  430.37   35.13
  -4   5  -9  344.32   53.37
  -4   5 -10   42.10   29.87
   4  -4 -11 4518.83  131.67
  -4   4  11 4479.84  164.22
   4  -4 -10   95.64   33.51
  -4   4  10   57.90   30.96
   4  -4  -9  625.72   39.14
  -4   4   9  630.05   37.65
   4  -4  -8  889.83   62.33
  -4   4   8  855.79   39.74
   4  -4  -7 1795.34   52.49
  -4   4   7 1901.83   51.48
   4  -4  -6  434.87   46.55
  -4   4   6  439.44   27.99
   4  -4  -5 3118.93   67.57
  -4   4   5 3179.34   91.61
   4  -4  -4   82.59   20.51
  -4   4   4  137.41   20.29
   4  -4  -3   -5.40   17.82
  -4   4   3   19.11   17.54
   4  -4  -2  986.69   28.22
   4  -4  -2  989.12   27.09
  -4   4   2 1021.86   27.16
   4  -4  -1   33.90   14.58
  -4   4   1   12.22   25.16
   4  -4   0   26.33   29.81
   4  -4   0   61.81   20.59
  -4   4   0   25.21   21.98
   4  -4   1   50.99   30.29
   4  -4   1   26.15   11.15
  -4   4  -1   16.26   11.79
   4  -4   2   67.51   19.80
   4  -4   2   35.57   16.69
  -4   4  -2   13.20   11.07
   4  -4   3 1641.32   42.01
   4  -4   3 1635.17   32.56
  -4   4  -3 1670.09   25.55
   4  -4   4 3133.26   66.34
   4  -4   4 3057.76   42.37
  -4   4  -4 3216.20   68.37
  -4   4  -4 3291.49   53.26
   4  -4   5  237.76   24.03
  -4   4  -5  221.24   39.65
   4  -4   6  443.29   28.40
   4  -4   6  415.36   12.72
  -4   4  -6  459.69   28.20
   4  -4   7  502.61   30.24
  -4   4  -7  567.53   32.12
   4  -4   8  780.63   37.25
  -4   4  -8  802.92   58.64
  -4   4  -9   -1.30   26.38
  -4   4 -10  742.33   39.45
  -4   4 -11   36.46   30.10
   4  -3 -12 1051.24   78.09
  -4   3  12 1004.52   46.86
   4  -3 -11   95.12   32.05
  -4   3  11  101.73   49.70
   4  -3 -10  935.90   68.41
  -4   3  10  904.01   40.86
   4  -3  -9  415.13   33.09
  -4   3   9  403.17   30.90
   4  -3  -8   46.36   25.13
  -4   3   8   20.98   24.50
   4  -3  -7  243.41   26.71
  -4   3   7  228.60   25.04
   4  -3  -6 5051.26  109.17
  -4   3   6 5285.88  109.53
   4  -3  -5  228.46   22.27
  -4   3   5  252.20   22.84
   4  -3  -4  417.32   22.97
  -4   3   4  410.71   21.91
   4  -3  -3  169.12   17.96
  -4   3   3  216.61   28.68
   4  -3  -2  176.79   15.91
   4  -3  -2  163.21   16.22
  -4   3   2  184.01   16.51
   4  -3  -1 1259.97   40.77
   4  -3  -1 1191.87   24.60
  -4   3   1 1204.14   24.97
   4  -3   0  531.35   20.00
   4  -3   0  495.82   24.15
  -4   3   0  526.83   16.02
   4  -3   1   73.49   16.81
   4  -3   1   86.13   10.26
  -4   3  -1   93.06   10.95
   4  -3   2  899.84   27.14
   4  -3   2  881.18   15.48
  -4   3  -2  870.85   15.84
   4  -3   3 4895.56  114.35
   4  -3   3 4628.02   72.17
  -4   3  -3 4391.80  109.74
  -4   3  -3 4545.54   62.93
   4  -3   4    9.15   19.18
   4  -3   4    3.46    9.49
  -4   3  -4   12.46   19.24
  -4   3  -4   -1.85    9.99
   4  -3   5 1482.95   39.67
   4  -3   5 1446.37   15.81
  -4   3  -5 1475.86   39.00
  -4   3  -5 1469.11   16.21
   4  -3   6  -25.96   21.26
  -4   3  -6    0.42   21.20
   4  -3   7 1828.68   47.37
  -4   3  -7 1794.72   47.72
  -4   3  -8 2052.87   54.63
  -4   3  -9  160.97   28.17
  -4   3 -10   57.77   26.89
  -4   3 -11   99.97   29.03
   4  -2 -12  358.67   61.57
  -4   2  12  442.84   35.14
   4  -2 -11  499.05   36.69
  -4   2  11  477.34   34.16
   4  -2 -10  679.35   37.30
  -4   2  10  641.51   34.53
   4  -2  -9  923.13   39.00
  -4   2   9  951.84   36.83
   4  -2  -8  516.34   31.24
  -4   2   8  503.77   46.51
   4  -2  -7  844.10   33.95
  -4   2   7  838.18   31.95
   4  -2  -6  504.26   27.19
  -4   2   6  540.83   26.32
   4  -2  -5  114.96   19.83
  -4   2   5   95.15   19.92
   4  -2  -4   75.20   29.35
  -4   2   4  101.44   17.84
   4  -2  -3 3170.08   55.79
  -4   2   3 3345.94   73.65
   4  -2  -2 1913.50   32.53
   4  -2  -2 1868.94   34.10
  -4   2   2 1939.68   34.69
   4  -2  -1  307.07   15.15
   4  -2  -1  289.70   14.36
  -4   2   1  284.75   22.97
   4  -2   0 4048.40   81.21
   4  -2   0 3920.66   59.68
  -4   2   0 3919.40   71.30
   4  -2   1 2116.12   38.25
   4  -2   1 2010.74   28.35
  -4   2  -1 2065.79   37.41
  -4   2  -1 2009.14   28.28
   4  -2   2  685.36   21.90
   4  -2   2  736.95   12.39
  -4   2  -2  692.60   22.22
  -4   2  -2  726.89   12.50
   4  -2   3  937.68   40.94
   4  -2   3  980.94   12.54
  -4   2  -3  999.80   26.94
  -4   2  -3  967.64   16.46
   4  -2   4 6515.97  155.20
   4  -2   4 6473.10   90.34
  -4   2  -4 6131.46  122.83
  -4   2  -4 6454.15   90.27
   4  -2   5 4837.70   92.81
  -4   2  -5 4878.39   94.15
   4  -2   6   26.76   20.14
  -4   2  -6   13.84   20.28
  -4   2  -7  281.69   25.21
  -4   2  -8  784.09   33.99
  -4   2  -9  395.26   47.81
  -4   2 -10  117.69   46.17
  -4   2 -11  170.91   48.20
  -4   2 -12 1103.47   47.03
   4  -1 -12  -62.13   49.18
  -4   1  12   35.57   45.32
   4  -1 -11  122.13   29.01
  -4   1  11   97.86   27.53
   4  -1 -10    5.84   42.12
  -4   1  10    7.51   24.79
   4  -1  -9  738.02   34.36
  -4   1   9  820.33   51.12
   4  -1  -8  165.44   39.68
  -4   1   8  164.59   23.39
   4  -1  -7   17.78   21.59
  -4   1   7  -27.63   20.47
   4  -1  -6  682.15   26.96
  -4   1   6  617.18   41.15
   4  -1  -5  719.07   26.40
  -4   1   5  685.81   37.64
   4  -1  -4  936.11   27.19
  -4   1   4  969.86   25.35
   4  -1  -3  833.21   17.08
   4  -1  -3  891.12   24.61
  -4   1   3  859.82   34.73
   4  -1  -2 3506.56   62.34
   4  -1  -2 3482.16   72.46
  -4   1   2 3515.73   71.16
   4  -1  -1 9138.11  174.04
   4  -1  -1 9144.45  179.34
  -4   1   1 9298.62  178.95
   4  -1   0 7028.06  125.07
   4  -1   0 7044.93  135.10
  -4   1   0 7086.17  118.86
   4  -1   1  485.43   17.36
   4  -1   1  491.54   18.16
  -4   1  -1  479.23   17.39
  -4   1  -1  472.91   10.99
   4  -1   2  542.02   29.32
   4  -1   2  508.11   14.19
  -4   1  -2  516.38   18.22
   4  -1   3 2347.56   41.84
   4  -1   3 2299.94   23.10
  -4   1  -3 2233.96   41.33
  -4   1  -3 2246.80   22.07
   4  -1   4  192.89   17.89
  -4   1  -4  232.59   29.71
   4  -1   5  704.13   25.25
  -4   1  -5  788.61   26.74
  -4   1  -6 1198.77   50.81
  -4   1  -7 1195.39   36.10
  -4   1  -8   26.10   22.94
  -4   1  -9  940.23   37.21
  -4   1 -10  370.62   31.16
  -4   1 -11   57.88   28.75
  -4   1 -12   11.16   48.70
   4   0 -13  173.58   27.99
   4   0 -13  275.24   33.39
  -4   0  13  256.19   31.23
   4   0 -12   90.16   46.51
  -4   0  12   36.87   44.36
   4   0 -11    0.66   26.74
  -4   0  11    8.24   24.72
   4   0 -10 1003.73   60.78
  -4   0  10 1023.85   56.97
   4   0  -9  584.03   30.13
  -4   0   9  490.32   28.69
   4   0  -8 2124.45   52.39
  -4   0   8 2110.89   49.28
   4   0  -7   20.91   34.06
  -4   0   7   46.94   19.36
   4   0  -6  481.39   24.02
  -4   0   6  502.22   22.47
   4   0  -5  178.72   19.00
  -4   0   5  114.69   29.70
   4   0  -4  970.15   25.75
  -4   0   4  956.01   25.45
   4   0  -3 2966.46   38.01
   4   0  -3 3080.56   69.53
  -4   0   3 3122.48   51.96
   4   0  -2   51.89    7.79
   4   0  -2   72.37   13.57
  -4   0   2   67.98   13.50
   4   0  -1 1092.20   18.40
   4   0  -1 1137.61   22.80
  -4   0   1 1148.87   21.71
   4   0   0  286.83   19.82
   4   0   0  264.60   12.02
  -4   0   0  277.22   19.73
  -4   0   0  280.73   11.69
   4   0   1 8565.44  159.05
   4   0   1 8307.33  142.31
  -4   0  -1 8254.79  154.67
  -4   0  -1 8649.80  146.29
   4   0   2 1012.10   22.97
  -4   0  -2  988.93   22.60
  -4   0  -2 1031.15   12.68
   4   0   3  231.53   25.00
  -4   0  -3  234.58   16.17
  -4   0  -3  220.66    5.86
  -4   0  -4 8517.44  173.75
  -4   0  -5 3682.35   68.15
  -4   0  -6   95.10   19.53
  -4   0  -7   54.35   21.26
  -4   0  -8  316.55   25.71
  -4   0  -9  720.25   32.88
  -4   0 -10  189.54   28.55
  -4   0 -11  352.32   33.07
  -4   0 -12  487.14   37.13
  -4  -1  13  319.22   31.61
   4   1 -12  133.49   14.35
  -4  -1  12  170.17   44.41
   4   1 -11   23.32   10.81
   4   1 -11   -8.60   27.00
  -4  -1  11   47.01   24.37
   4   1 -10  254.49   12.02
   4   1 -10  245.81   26.70
  -4  -1  10  306.92   41.43
   4   1  -9  907.24   51.47
  -4  -1   9  871.85   32.45
   4   1  -8 3807.17   81.81
  -4  -1   8 3745.44   78.06
   4   1  -7  403.13   25.24
  -4  -1   7  426.58   24.05
   4   1  -6   31.99   18.75
  -4  -1   6    8.02   17.72
   4   1  -5 2176.29   44.64
  -4  -1   5 2178.75   41.98
   4   1  -4 1165.91   15.81
   4   1  -4 1202.07   28.95
  -4  -1   4 1183.64   27.50
   4   1  -3   -3.49    7.21
   4   1  -3   -0.68   14.46
  -4  -1   3  -13.47   13.99
   4   1  -2  750.88   10.58
   4   1  -2  764.06   20.70
  -4  -1   2  761.42   20.59
   4   1  -1 1019.64   14.39
   4   1  -1 1025.19   20.76
  -4  -1   1 1081.81   22.12
   4   1   0 1533.69   28.83
  -4  -1   0 1469.17   21.72
  -4  -1   0 1583.14   33.61
   4   1   1 1529.48   23.97
  -4  -1  -1 1491.95   24.54
  -4  -1  -1 1487.36   20.95
  -4  -1  -2  102.22   12.66
  -4  -1  -2   86.62    6.39
  -4  -1  -2   78.16    6.41
  -4  -1  -3  167.17   14.82
  -4  -1  -3  178.63    5.03
  -4  -1  -3  164.96    7.47
  -4  -1  -4  183.19   26.47
  -4  -1  -4  192.11    4.13
  -4  -1  -5  -25.53   16.65
  -4  -1  -6  450.77   22.72
  -4  -1  -7 1239.73   35.58
  -4  -1  -8 3697.64   80.58
  -4  -1  -9 2777.20   94.21
  -4  -1 -10 3011.85   74.26
  -4  -1 -11  109.01   29.60
  -4  -1 -12 1070.16   46.26
  -4  -1 -13  -46.41   52.73
  -4  -2  12   55.24   42.44
   4   2 -11  590.45   15.21
  -4  -2  11  752.86   33.24
   4   2 -10   32.34   12.91
  -4  -2  10   46.66   22.72
   4   2  -9    0.63    6.91
  -4  -2   9    5.90   35.21
   4   2  -8  258.16   11.16
  -4  -2   8  307.08   22.92
   4   2  -7 3121.98   36.86
  -4  -2   7 3493.50   66.74
   4   2  -6   69.80    3.23
  -4  -2   6   62.12   30.24
   4   2  -5 2245.70   18.68
  -4  -2   5 2586.66   47.91
  -4  -2   4 8087.73  162.47
  -4  -2   3   -1.81   23.94
  -4  -2   2  155.31   14.94
  -4  -2   1   93.31    5.61
  -4  -2   1   98.04   13.15
  -4  -2   0 5023.00   71.13
  -4  -2   0 5343.26   83.90
  -4  -2  -1 2212.09   31.82
  -4  -2  -1 2240.62   31.10
  -4  -2  -1 2177.59   39.71
  -4  -2  -2 2364.58   36.19
  -4  -2  -2 2326.83   30.01
  -4  -2  -3   72.13   12.72
  -4  -2  -3   55.90   10.22
  -4  -2  -4  164.17   24.65
  -4  -2  -4  161.45    8.87
  -4  -2  -5  452.54   32.21
  -4  -2  -5  460.29    9.81
  -4  -2  -6  550.10   35.81
  -4  -2  -6  534.31    7.67
   4   2   7  268.86    8.35
  -4  -2  -7  285.07   22.28
  -4  -2  -7  259.80    8.74
   4   2   8   88.61    7.20
  -4  -2  -8  109.62   21.73
  -4  -2  -8   82.57    7.73
   4   2   9 3578.28   48.31
  -4  -2  -9 3871.79   83.95
   4   2  10   70.16    8.10
  -4  -2 -10   76.89   26.38
  -4  -2 -10   56.43    7.29
  -4  -2 -11  -12.00   28.84
  -4  -2 -12  270.67   35.49
  -4  -2 -13   57.92   55.82
  -4  -3  12  261.39   46.06
  -4  -3  11   60.20   24.85
   4   3 -10    0.11    6.66
  -4  -3  10  -25.29   22.65
   4   3  -9  174.85    9.91
  -4  -3   9  237.57   24.21
   4   3  -8  907.08   10.66
  -4  -3   8 1009.15   48.26
   4   3  -7   15.04    3.52
  -4  -3   7  -14.26   19.73
  -4  -3   6    1.35   18.16
  -4  -3   5 4105.72   76.82
  -4  -3   4  654.17   23.15
  -4  -3   3 4072.30   89.26
  -4  -3   2 2915.40   26.20
  -4  -3   2 2970.10   66.58
  -4  -3   1   40.07    7.45
  -4  -3   1   10.95   13.41
  -4  -3   0 1570.30   20.28
  -4  -3   0 1632.99   28.33
  -4  -3  -1 5610.97   90.70
  -4  -3  -2 9939.67  194.01
   4   3   3   33.03    8.58
  -4  -3  -3   38.02   13.82
   4   3   4 1737.94   30.03
  -4  -3  -4 1771.57   29.84
   4   3   5 2033.29   32.54
  -4  -3  -5 1966.78   31.47
   4   3   6 1055.52   20.71
  -4  -3  -6  976.23   20.47
   4   3   7  612.88   16.95
  -4  -3  -7  583.80   17.13
   4   3   8  469.70   16.11
  -4  -3  -8  444.22   11.40
   4   3   9  572.45   18.24
  -4  -3  -9  598.19   32.77
   4   3  10 1609.68   25.08
  -4  -3 -10 1734.77   51.32
   4   3  11  698.54   16.33
  -4  -3 -11  770.95   61.29
  -4  -3 -12 1617.45   56.87
  -4  -3 -13   95.21   55.80
  -4  -4  12  180.21   28.66
  -4  -4  11  263.34   27.09
   4   4 -10   42.17    5.79
  -4  -4  10    7.75   23.73
  -4  -4   9  411.65   27.89
  -4  -4   8   34.78   35.19
  -4  -4   7  386.59   38.60
  -4  -4   6   23.78   19.18
  -4  -4   5  486.87   23.19
  -4  -4   4 2147.48   43.76
  -4  -4   4 2099.21   42.78
  -4  -4   3 2863.66   50.86
  -4  -4   3 2655.39   49.48
  -4  -4   2 1006.82   25.14
  -4  -4   1 4055.23   68.77
  -4  -4   0 2055.42   35.69
  -4  -4  -113479.79  319.76
   4   4   2 6558.59  113.68
   4   4   3 4697.53   73.31
  -4  -4  -3 4553.74   85.10
   4   4   4  575.42   14.74
  -4  -4  -4  563.97   14.39
   4   4   5   35.73    9.81
  -4  -4  -5   49.81    9.97
   4   4   6   85.87   16.78
  -4  -4  -6   93.06   10.06
   4   4   7  232.77   18.90
  -4  -4  -7  241.82   18.10
   4   4   8   60.12   10.86
  -4  -4  -8   47.93   17.07
   4   4   9  193.27   12.60
  -4  -4  -9  190.49   19.72
   4   4  10  819.86   28.14
  -4  -4 -10  667.79   19.45
   4   4  11  851.95   30.71
  -4  -4 -11  608.18   20.60
  -4  -4 -12  981.28   48.66
  -4  -5  11  205.78   28.78
  -4  -5  11  226.50   27.83
  -4  -5  10  789.85   36.11
  -4  -5  10  809.07   52.14
  -4  -5   9   10.46   23.22
  -4  -5   9   20.37   36.54
  -4  -5   8 3135.52   98.25
  -4  -5   8 3151.77   94.59
  -4  -5   7  434.42   42.11
  -4  -5   7  365.89   42.35
  -4  -5   6 1015.45   49.85
  -4  -5   6 1001.12   32.90
  -4  -5   5   96.76   33.80
  -4  -5   5   98.95   19.77
  -4  -5   4 1070.63   31.30
  -4  -5   4 1189.47   46.75
  -4  -5   3   81.14    3.79
  -4  -5   3  102.78   18.00
  -4  -5   2 1964.25   39.74
  -4  -5   1   70.54   15.81
  -4  -5   0  771.38   22.65
   4   5   1 5502.49  115.32
  -4  -5  -1 5263.95   93.72
   4   5   2   51.74   23.22
  -4  -5  -2   59.32   22.45
   4   5   3 2778.79   59.56
  -4  -5  -3 2700.58   45.74
   4   5   4  856.46   30.76
  -4  -5  -4  836.50   20.56
   4   5   5  713.98   18.89
  -4  -5  -5  680.51   18.85
   4   5   6  380.47   16.14
  -4  -5  -6  396.19   23.99
   4   5   7 5530.14  113.85
  -4  -5  -7 5401.58  111.88
   4   5   8  150.24   14.39
  -4  -5  -8  131.01   13.83
   4   5   9  327.88   16.80
  -4  -5  -9  316.17   16.26
   4   5  10  768.35   34.73
  -4  -5 -11  136.29   16.84
   4   5  12  445.99   35.72
  -4  -5 -12  289.84   31.36
  -4  -6  11   27.23   28.36
  -4  -6  11   32.29   25.17
  -4  -6  10   14.40   25.82
  -4  -6  10   57.85   24.22
  -4  -6   9 2067.90   82.33
  -4  -6   9 2019.24   53.26
  -4  -6   8 1407.79   64.68
  -4  -6   8 1302.35   40.57
  -4  -6   7 2248.50   77.35
  -4  -6   7 2085.07   52.20
  -4  -6   6   38.26   22.77
  -4  -6   6   55.10   21.99
  -4  -6   5  193.15   22.87
  -4  -6   5  191.36   23.02
  -4  -6   4  841.95   11.27
  -4  -6   4  828.64   29.86
  -4  -6   3   44.96    9.80
  -4  -6   3   45.05   18.99
  -4  -6   2  735.00   40.70
  -4  -6   1 1664.18   37.59
   4   6   0  775.88   25.90
  -4  -6   0  769.14   25.04
   4   6   1  909.70   25.44
  -4  -6  -1  812.30   25.02
   4   6   2  191.36   17.65
  -4  -6  -2  194.14   28.93
   4   6   3 1013.38   27.03
  -4  -6  -3 1006.56   26.13
   4   6   4  227.69   16.92
  -4  -6  -4  181.66   16.93
   4   6   5 1101.99   39.48
  -4  -6  -5 1107.39   26.96
   4   6   6   15.67   15.52
  -4  -6  -6   60.64   24.68
   4   6   7  613.90   32.24
  -4  -6  -7  561.52   21.29
   4   6   8  926.17   25.95
  -4  -6  -8  856.61   36.35
   4   6   9  465.84   21.55
  -4  -6  -9  452.57   20.98
   4   6  10   82.98   18.40
  -4  -6 -10   93.35   28.44
   4   6  11   37.12   30.73
  -4  -6 -11   21.87   18.12
   4   6  12  109.78   20.85
  -4  -6 -12   76.90   20.21
  -4  -7  10   75.33   28.44
  -4  -7  10   69.88   26.29
  -4  -7   9  120.15   28.31
  -4  -7   9  154.38   25.71
  -4  -7   8  107.21   28.25
  -4  -7   8  144.69   25.13
  -4  -7   7  118.85   26.37
  -4  -7   7  136.58   39.69
  -4  -7   6   96.93   24.81
  -4  -7   6  109.18   23.62
  -4  -7   5 1633.14   21.72
  -4  -7   5 1709.74   44.91
  -4  -7   4  917.56   21.29
  -4  -7   4 1017.92   51.36
  -4  -7   3   27.19   13.28
  -4  -7   3   42.40   21.35
  -4  -7   2   18.32   20.41
   4   7  -1 6050.10  125.51
  -4  -7   1 5778.24  150.61
   4   7   0 2707.54   56.46
  -4  -7   0 2661.25   55.89
   4   7   1 1764.84   60.36
  -4  -7  -1 1789.72   40.79
   4   7   2  232.36   34.29
  -4  -7  -2  239.53   22.02
   4   7   3  427.65   23.27
  -4  -7  -3  425.82   35.86
   4   7   4  271.90   20.55
  -4  -7  -4  291.24   20.83
   4   7   5  165.68   30.82
  -4  -7  -5  156.01   19.59
   4   7   6   11.80   17.93
  -4  -7  -6   39.98   17.73
   4   7   7  318.12   34.10
  -4  -7  -7  322.58   21.08
   4   7   8    3.56   18.63
  -4  -7  -8   52.55   18.08
   4   7   9   91.72   19.80
  -4  -7  -9   53.08   31.51
   4   7  10   90.65   21.20
  -4  -7 -10   94.37   20.60
   4   7  11  102.53   22.21
  -4  -7 -11   91.34   21.97
  -4  -8   9   28.33   29.80
  -4  -8   9   66.70   42.05
  -4  -8   8  185.15   30.75
  -4  -8   8  206.61   27.15
  -4  -8   7   58.49   27.20
  -4  -8   7   37.55   24.90
  -4  -8   6  567.25   20.30
  -4  -8   6  654.85   31.89
  -4  -8   5  530.08   20.85
  -4  -8   5  541.72   49.27
  -4  -8   4 2186.64   33.68
  -4  -8   4 2045.07   54.25
  -4  -8   3  310.72   19.97
  -4  -8   3  273.39   26.55
  -4  -8   2   63.45   23.71
   4   8  -1 2596.06   60.76
  -4  -8   1 2398.38   82.12
   4   8   0 3118.22   69.60
  -4  -8   0 3249.23   69.55
   4   8   1  522.69   27.57
  -4  -8  -1  449.62   27.75
   4   8   2   61.19   36.46
  -4  -8  -2   86.12   21.52
   4   8   3  374.24   25.61
  -4  -8  -3  340.91   24.66
   4   8   4 1668.82   42.07
  -4  -8  -4 1628.43   42.62
   4   8   5   -5.68   20.24
  -4  -8  -5    1.38   20.57
   4   8   6  350.99   24.75
  -4  -8  -6  379.72   39.43
   4   8   7  282.69   24.16
  -4  -8  -7  265.53   38.60
   4   8   8   68.31   34.62
  -4  -8  -8  -27.37   21.23
   4   8   9  246.52   25.61
  -4  -8  -9  274.10   24.72
   4   8  10  159.63   24.62
  -4  -8 -10  172.64   24.67
  -4  -9   8   60.54   30.99
  -4  -9   8   75.81   27.74
  -4  -9   7    0.43   28.47
  -4  -9   7   -2.57   25.71
  -4  -9   6  408.72   22.96
  -4  -9   6  438.77   31.75
  -4  -9   5 1109.03   23.79
  -4  -9   5 1210.10   63.43
  -4  -9   4  339.13   15.93
  -4  -9   4  393.38   30.97
  -4  -9   3   12.49   12.63
  -4  -9   3   16.36   41.33
  -4  -9   2  377.98   16.94
  -4  -9   2  471.37   29.84
   4   9  -1  753.29   35.18
  -4  -9   1  783.22   55.79
   4   9   0  130.37   26.44
  -4  -9   0   73.39   26.41
   4   9   1  466.00   30.82
  -4  -9  -1  433.61   30.50
   4   9   2  122.85   41.35
  -4  -9  -2   71.22   24.49
   4   9   3  120.94   26.11
  -4  -9  -3  171.66   25.84
   4   9   4  255.68   42.27
  -4  -9  -4  209.00   27.16
   4   9   5   20.00   23.61
  -4  -9  -5   47.13   38.44
   4   9   6  218.31   41.49
  -4  -9  -6  105.90   25.06
   4   9   7  912.51   36.49
  -4  -9  -7  815.36   36.93
   4   9   8  457.36   31.00
  -4  -9  -8  476.03   31.26
   4   9   9  184.99   27.46
  -4  -9  -9  153.43   26.89
  -4 -10   7  176.61   30.91
  -4 -10   6   21.00   44.77
  -4 -10   5  489.18   19.94
  -4 -10   5  539.61   35.78
  -4 -10   4 1784.70   37.18
  -4 -10   4 1881.69   58.29
  -4 -10   3   36.26   15.67
  -4 -10   3   -8.92   46.55
  -4 -10   2   57.77   26.23
  -4 -10   2  124.42   29.08
   4  10  -1  103.28   30.37
  -4 -10   1   43.70   47.85
   4  10   0  450.87   34.66
  -4 -10   0  552.90   35.27
   4  10   1  443.90   34.56
  -4 -10  -1  523.47   34.93
   4  10   2  400.43   32.72
  -4 -10  -2  442.86   52.99
   4  10   3   76.57   28.18
  -4 -10  -3   59.70   28.52
   4  10   4  406.90   32.57
  -4 -10  -4  446.40   33.31
   4  10   5   23.46   26.53
  -4 -10  -5    1.68   26.77
   4  10   6  737.00   37.64
  -4 -10  -6  764.15   37.93
   4  10   7   28.73   45.97
  -4 -10  -7   38.45   28.07
   4  10   8 1477.23   50.46
  -4 -10  -8 1508.74   51.85
  -4 -11   4  154.87   19.84
  -4 -11   4  171.11   34.25
  -4 -11   3   56.73   29.67
  -4 -11   3   31.38   53.13
  -4 -11   2  161.81   20.14
  -4 -11   2  160.73   33.35
   4  11  -1 1031.06   48.81
  -4 -11   1 1127.20   48.25
   4  11   0  787.35   44.60
  -4 -11   0  844.47   44.32
   4  11   1  188.50   57.19
  -4 -11  -1  287.35   55.46
   4  11   2   56.85   31.30
  -4 -11  -2   30.30   30.56
   4  11   3  107.90   52.94
  -4 -11  -3   79.87   32.18
   4  11   4  241.40   34.18
  -4 -11  -4  292.97   55.31
   4  11   5   43.47   51.64
  -4 -11  -5    6.01   50.50
   4  11   6   40.45   30.77
  -4 -11  -6  -17.20   30.80
   4  12   0   23.52   35.13
  -4 -12   0   86.04   34.40
   4  12   1 1168.58   55.61
  -4 -12  -1 1230.29   56.20
   4  12   2  100.64   37.50
  -4 -12  -2  138.17   38.17
   5  -8  -5  316.30   58.06
   5  -8  -5  331.00   36.29
  -5   8   5  254.42   36.21
   5  -8  -4   -4.41   32.17
   5  -8  -4   30.50   28.70
  -5   8   4   33.24   48.97
   5  -8  -3  394.98   59.40
   5  -8  -3  350.15   50.15
  -5   8   3  331.23   33.37
   5  -8  -2  559.43   40.66
   5  -8  -2  565.86   33.12
  -5   8   2  648.84   55.70
   5  -8  -1   13.73   31.63
   5  -8  -1   37.67   24.37
  -5   8   1   37.01   26.07
   5  -8   0  182.01   55.45
   5  -8   0  133.94   39.34
  -5   8   0  145.66   25.18
   5  -8   1  443.19   39.82
   5  -8   1  384.17   41.71
  -5   8  -1  399.95   27.55
   5  -8   2  -10.78   33.02
   5  -8   2   -1.79   20.66
  -5   8  -2   42.95   20.75
   5  -8   3  207.92   37.18
   5  -8   3  261.96   23.14
  -5   8  -3  210.53   36.59
   5  -7  -7   20.31   56.34
  -5   7   7   10.58   54.81
   5  -7  -6   72.02   33.54
  -5   7   6   62.25   32.30
   5  -7  -5   54.69   28.77
   5  -7  -5   -0.83   49.06
  -5   7   5   54.09   29.79
   5  -7  -4  132.33   47.52
   5  -7  -4  150.36   28.32
  -5   7   4  203.45   47.22
   5  -7  -3   27.02   28.24
   5  -7  -3   67.84   24.64
  -5   7   3   55.60   26.17
   5  -7  -2  354.54   33.06
   5  -7  -2  311.78   27.08
  -5   7   2  374.50   45.46
   5  -7  -1  229.49   49.63
   5  -7  -1  223.19   24.23
  -5   7   1  264.01   25.17
   5  -7   0  640.30   37.64
   5  -7   0  660.86   27.87
  -5   7   0  666.24   29.22
   5  -7   1   25.90   29.06
   5  -7   1   21.78   31.17
  -5   7  -1   55.22   19.87
   5  -7   2  141.71   32.92
   5  -7   2  170.72   31.93
  -5   7  -2  189.35   20.16
   5  -7   3  563.18   38.61
   5  -7   3  567.05   23.65
  -5   7  -3  547.96   36.30
   5  -7   4   26.23   50.53
   5  -7   4   45.50   16.89
  -5   7  -4   29.13   16.71
   5  -7   5  768.16   44.95
   5  -7   5  897.71   39.60
   5  -7   6  960.67   47.52
   5  -6  -8   68.36   35.02
  -5   6   8   42.45   33.50
   5  -6  -7   -1.09   31.59
  -5   6   7    7.73   49.90
   5  -6  -6  392.17   36.39
  -5   6   6  386.53   56.47
   5  -6  -5  508.42   31.93
   5  -6  -5  502.63   35.13
  -5   6   5  541.57   35.19
   5  -6  -4  187.63   26.24
   5  -6  -4  237.00   42.74
  -5   6   4  173.91   28.08
   5  -6  -3   73.04   24.63
   5  -6  -3   20.13   22.11
  -5   6   3    5.09   23.39
   5  -6  -2   43.72   24.32
   5  -6  -2   17.34   32.77
  -5   6   2   39.97   21.26
   5  -6  -1 1027.82   61.01
   5  -6  -1 1051.21   32.18
  -5   6   1 1055.44   32.66
   5  -6   0  617.67   33.22
   5  -6   0  634.14   24.37
  -5   6   0  567.25   25.35
   5  -6   1  274.14   29.67
   5  -6   1  226.59   19.36
  -5   6  -1  296.11   20.27
   5  -6   2   38.36   27.57
   5  -6   2   74.35   25.49
  -5   6  -2   87.42   26.46
   5  -6   3   -2.10   27.41
   5  -6   3   -7.69   23.02
  -5   6  -3   12.14   14.46
   5  -6   4  397.85   33.79
   5  -6   4  346.04   26.16
  -5   6  -4  394.84   17.26
   5  -6   5  100.14   49.33
   5  -6   5  111.46   14.19
  -5   6  -5   99.16   13.29
   5  -6   6  284.31   54.84
   5  -6   7  735.56   42.80
   5  -5 -10  716.25   49.95
  -5   5  10  650.26   45.16
   5  -5  -9   32.32   34.29
  -5   5   9   14.16   32.49
   5  -5  -8   -1.51   32.78
  -5   5   8   61.19   30.09
   5  -5  -7  -10.50   29.36
  -5   5   7   21.82   27.94
   5  -5  -6  867.53   39.73
  -5   5   6  832.25   58.90
   5  -5  -5  -48.30   25.85
  -5   5   5    8.63   24.13
   5  -5  -4   44.61   20.77
   5  -5  -4   10.30   22.94
  -5   5   4  -20.80   22.74
   5  -5  -3  235.23   23.77
   5  -5  -3  198.21   36.70
  -5   5   3  294.05   38.08
   5  -5  -2 1109.43   54.05
   5  -5  -2 1108.48   31.67
  -5   5   2 1083.42   33.30
   5  -5  -1   98.48   37.01
   5  -5  -1   38.15   17.10
  -5   5   1  100.14   18.06
   5  -5   0  293.66   25.01
   5  -5   0  306.38   28.16
  -5   5   0  287.78   19.20
   5  -5   1 1627.62   45.62
   5  -5   1 1598.61   31.96
  -5   5  -1 1661.27   33.65
   5  -5   2  947.38   36.88
   5  -5   2  940.73   22.30
  -5   5  -2  993.73   23.77
   5  -5   3    9.05   23.90
   5  -5   3   14.89   11.56
  -5   5  -3    2.14   12.30
   5  -5   4  334.90   30.65
   5  -5   4  379.31   14.01
  -5   5  -4  379.97   14.48
   5  -5   5  106.92   27.08
   5  -5   5   67.54   16.60
  -5   5  -5   84.03   16.25
   5  -5   6  825.65   39.19
   5  -5   6  782.56   14.67
   5  -5   7   87.89   28.15
  -5   5  -7    4.13   29.98
   5  -5   8  151.04   51.40
  -5   5  -8  134.40   33.47
   5  -5   9   54.00   32.84
  -5   5  -9   74.54   33.13
   5  -4 -10  -48.61   34.49
  -5   4  10   47.16   32.31
   5  -4  -9  186.94   36.47
  -5   4   9  180.14   34.10
   5  -4  -8  269.84   33.57
  -5   4   8  256.90   32.44
   5  -4  -7  193.07   31.39
  -5   4   7  230.88   29.53
   5  -4  -6   17.09   25.31
  -5   4   6   19.35   25.30
   5  -4  -5  373.21   27.00
  -5   4   5  290.88   26.73
   5  -4  -4  374.08   22.57
   5  -4  -4  406.03   41.63
  -5   4   4  421.10   39.81
   5  -4  -3  -20.96   18.36
   5  -4  -3  -16.73   18.84
  -5   4   3   15.44   18.70
   5  -4  -2  101.50   32.14
   5  -4  -2   67.28   17.53
  -5   4   2   73.61   29.96
   5  -4  -1  124.00   32.61
   5  -4  -1   75.25   25.54
  -5   4   1  104.56   16.90
   5  -4   0  242.72   35.24
   5  -4   0  211.41   15.06
  -5   4   0  204.52   16.88
   5  -4   1 3850.86   99.26
   5  -4   1 3500.99   57.57
  -5   4  -1 3569.96   74.48
   5  -4   2 1278.51   59.59
   5  -4   2 1284.25   23.54
  -5   4  -2 1292.72   24.78
   5  -4   318459.60  654.61
   5  -4   318161.50  515.79
  -5   4  -318781.02  524.28
   5  -4   4  203.20   25.91
   5  -4   4  206.87    9.88
  -5   4  -4  220.18   16.39
   5  -4   5  446.96   29.61
   5  -4   5  428.42   10.24
  -5   4  -5  460.97   30.10
  -5   4  -5  454.18   10.53
   5  -4   6   47.46   27.11
   5  -4   6   64.99    6.98
  -5   4  -6  135.56   44.03
   5  -4   7 2094.18   59.17
  -5   4  -7 2126.22   61.22
   5  -4   8  488.51   35.77
  -5   4  -8  548.84   36.90
  -5   4  -9  548.12   39.30
  -5   4 -10  180.91   57.17
   5  -3 -11  210.97   60.51
  -5   3  11  165.75   34.67
   5  -3 -10  369.47   37.94
  -5   3  10  349.18   35.68
   5  -3  -9  -36.22   50.94
  -5   3   9   40.15   28.89
   5  -3  -8  260.83   32.93
  -5   3   8  211.62   30.15
   5  -3  -7 3460.84  120.51
  -5   3   7 3403.31   78.74
   5  -3  -6 1048.38   38.63
  -5   3   6 1101.11   36.36
   5  -3  -5   37.63   21.79
  -5   3   5   11.79   20.79
   5  -3  -4   29.56   15.67
   5  -3  -4   14.37   20.16
  -5   3   4   30.11   19.39
   5  -3  -3  663.50   22.27
   5  -3  -3  588.16   24.17
  -5   3   3  615.98   24.53
   5  -3  -2 2167.09   42.44
   5  -3  -2 2142.46   41.25
  -5   3   2 2185.26   43.21
   5  -3  -1  254.44   19.44
   5  -3  -1  321.77   26.07
  -5   3   1  304.12   26.80
   5  -3   0  397.54   21.33
   5  -3   0  377.41   15.66
  -5   3   0  406.96   25.34
   5  -3   1   88.01   18.61
   5  -3   1   62.85   11.39
  -5   3  -1   63.10   12.01
   5  -3   210504.63  251.08
   5  -3   210647.83  217.93
  -5   3  -210609.30  234.70
   5  -3   3  335.75   24.68
   5  -3   3  396.58   16.41
  -5   3  -3  373.55   24.92
  -5   3  -3  390.24   11.34
   5  -3   4  881.70   32.98
   5  -3   4  883.88   13.21
  -5   3  -4  898.76   32.26
  -5   3  -4  892.44   13.42
   5  -3   5 1312.01   39.01
   5  -3   5 1219.44   16.37
  -5   3  -5 1277.04   39.42
  -5   3  -5 1229.72   16.12
   5  -3   6  172.55   26.25
  -5   3  -6  286.98   26.61
   5  -3   7   93.20   26.50
  -5   3  -7  133.41   27.99
  -5   3  -8  134.11   30.34
  -5   3  -9  257.49   52.77
  -5   3 -10   37.12   31.57
   5  -2 -11  221.55   37.68
  -5   2  11  281.46   34.25
   5  -2 -10  360.82   35.81
  -5   2  10  330.58   33.70
   5  -2  -9  123.98   30.10
  -5   2   9   80.26   27.68
   5  -2  -8  263.48   31.42
  -5   2   8  262.26   46.66
   5  -2  -7 5010.60  152.61
  -5   2   7 4953.82  109.58
   5  -2  -6  263.05   27.55
  -5   2   6  276.41   26.10
   5  -2  -5 7862.58  179.57
  -5   2   5 7896.72  174.04
   5  -2  -4  -20.19   30.39
  -5   2   4  -14.94   18.89
   5  -2  -3 1909.11   34.61
   5  -2  -3 1831.28   39.06
  -5   2   3 1892.96   54.41
   5  -2  -2 2833.02   48.19
   5  -2  -2 2748.00   49.82
  -5   2   2 2821.47   50.32
   5  -2  -1  198.19   25.69
   5  -2  -1  238.84   14.74
  -5   2   1  213.25   23.96
   5  -2   0 1124.60   38.64
   5  -2   0  971.91   20.60
  -5   2   0  996.72   20.83
   5  -2   1   45.13   16.01
   5  -2   1   19.19    9.71
  -5   2  -1   38.75   16.10
   5  -2   2 2842.22   54.50
   5  -2   2 2836.64   38.41
  -5   2  -2 2725.97   71.96
  -5   2  -2 2865.54   46.72
   5  -2   3 2212.42   45.28
  -5   2  -3 1982.63   44.69
  -5   2  -3 2052.31   24.98
   5  -2   4 7786.22  170.81
   5  -2   4 7511.26  120.77
  -5   2  -4 7947.43  172.70
  -5   2  -4 8019.81  125.93
   5  -2   5  705.74   28.17
  -5   2  -5  659.20   29.09
   5  -2   6   87.18   22.63
  -5   2  -6   55.75   23.11
  -5   2  -7   28.23   40.39
  -5   2  -8  590.78   34.52
  -5   2  -9  737.34   38.94
  -5   2 -10  694.42   40.19
  -5   2 -11  175.62   34.66
   5  -1 -12   79.18   34.76
  -5   1  12  136.55   51.80
   5  -1 -11  138.14   32.84
  -5   1  11   61.99   30.16
   5  -1 -10  718.88   39.65
  -5   1  10  694.86   38.25
   5  -1  -9  759.13   39.30
  -5   1   9  829.62   56.57
   5  -1  -8  842.21   37.02
  -5   1   8  835.80   35.48
   5  -1  -7   50.70   40.23
  -5   1   7   40.40   23.33
   5  -1  -6 7681.70  175.09
  -5   1   6 7706.36  170.42
   5  -1  -5  530.91   26.72
  -5   1   5  535.60   25.36
   5  -1  -4  597.52   24.04
   5  -1  -4  593.24   24.28
  -5   1   4  620.40   37.40
   5  -1  -3 2394.91   37.03
   5  -1  -3 2493.67   63.37
  -5   1   3 2367.72   44.83
   5  -1  -2  442.01   14.93
   5  -1  -2  428.87   30.48
  -5   1   2  426.07   18.10
   5  -1  -1  513.24   16.93
   5  -1  -1  527.46   28.27
  -5   1   1  516.54   17.47
   5  -1   0 4841.58   99.14
   5  -1   0 4853.42   78.22
  -5   1   0 4905.91   77.91
   5  -1   1  110.89   15.02
   5  -1   1  104.80    9.63
  -5   1  -1  106.21   15.04
  -5   1  -1  131.44    9.49
   5  -1   2   23.54   15.71
   5  -1   2   53.92    7.38
  -5   1  -2   24.46   15.62
  -5   1  -2   69.04   11.79
   5  -1   3 1407.32   32.79
   5  -1   3 1391.09   19.69
  -5   1  -3 1414.04   32.35
  -5   1  -3 1419.53   19.80
   5  -1   4  293.60   20.63
  -5   1  -4  305.39   34.71
   5  -1   5 1763.29   42.46
  -5   1  -5 1900.11   44.46
  -5   1  -6  406.78   43.31
  -5   1  -7  588.64   32.14
  -5   1  -8   69.82   25.86
  -5   1  -9  121.78   29.18
  -5   1 -10  113.38   30.90
  -5   1 -11  685.31   41.57
  -5   1 -12  128.54   36.28
   5   0 -12  211.93   54.57
  -5   0  12  218.41   52.89
   5   0 -11  197.60   32.81
  -5   0  11  117.41   29.94
   5   0 -10  497.72   36.14
  -5   0  10  466.22   32.28
   5   0  -9  136.36   45.36
  -5   0   9  134.70   26.26
   5   0  -8 2314.64   59.67
  -5   0   8 2337.91   57.19
   5   0  -7   88.20   24.85
  -5   0   7  141.74   37.51
   5   0  -6 2432.92   77.20
  -5   0   6 2375.51   54.10
   5   0  -5  229.23   22.48
  -5   0   5  225.69   21.31
   5   0  -4 1458.88   27.78
   5   0  -4 1443.79   34.68
  -5   0   4 1386.40   33.04
   5   0  -3  236.85   10.02
   5   0  -3  253.28   18.85
  -5   0   3  281.36   28.13
   5   0  -2 4260.45   71.81
   5   0  -2 4046.95   70.86
  -5   0   2 3921.01   84.08
   5   0  -1 5632.00   92.02
   5   0  -1 5792.16  117.28
  -5   0   1 5663.12  113.63
   5   0   0 4604.08   73.43
   5   0   0 4601.46   71.65
  -5   0   0 4483.42   71.70
  -5   0   0 4640.40   71.63
   5   0   1 4198.36   81.74
   5   0   1 4103.45   58.54
  -5   0  -1 4004.43   80.41
  -5   0  -1 4005.18   66.58
   5   0   2 1103.07   37.16
  -5   0  -2 1048.15   24.16
  -5   0  -2 1115.13   20.31
   5   0   3  174.29   26.26
  -5   0  -3  186.10   27.85
  -5   0  -3  167.91    8.33
   5   0   4  111.86   18.21
  -5   0  -4  141.57   18.20
  -5   0  -5  107.44   20.17
  -5   0  -6 1585.78   41.17
  -5   0  -7  200.86   25.08
  -5   0  -8  213.89   28.19
  -5   0  -9  -14.22   26.65
  -5   0 -10  -16.20   29.10
  -5   0 -11  -20.83   30.14
  -5   0 -12  108.29   35.10
  -5  -1  12  150.07   49.90
   5   1 -11  357.55   33.17
  -5  -1  11  288.16   32.28
   5   1 -10  143.87   29.19
  -5  -1  10  171.27   44.72
   5   1  -9   77.16   26.05
  -5  -1   9  106.65   25.01
   5   1  -8  272.48   28.73
  -5  -1   8  314.23   41.96
   5   1  -7 2623.98   61.50
  -5  -1   7 2557.87   57.87
   5   1  -6 1997.77   48.25
  -5  -1   6 2005.70   46.38
   5   1  -5  552.47   12.72
   5   1  -5  612.79   25.62
  -5  -1   5  584.75   24.78
   5   1  -4 1974.38   27.32
   5   1  -4 2089.18   43.38
  -5  -1   4 2110.57   41.61
   5   1  -3 4126.85   75.03
  -5  -1   3 4144.38   92.12
   5   1  -2   81.83    7.44
   5   1  -2   89.86   14.86
  -5  -1   2   97.70   14.68
   5   1  -1   76.48   13.87
   5   1  -1   97.75   12.96
  -5  -1   1   83.82    8.38
  -5  -1   1   81.09   12.81
   5   1   0   12.47   15.07
  -5  -1   0    5.31   15.31
  -5  -1   0   27.37   10.76
   5   1   1  522.26   23.51
  -5  -1  -1  532.57   15.52
  -5  -1  -1  521.52   12.77
  -5  -1  -2  648.20   28.73
  -5  -1  -2  679.95   12.24
  -5  -1  -3   46.64   23.46
  -5  -1  -3   -2.67    5.06
  -5  -1  -4 2133.48   41.67
  -5  -1  -4 2158.10   22.98
  -5  -1  -4 2050.16   21.75
  -5  -1  -5  499.38   22.81
  -5  -1  -6  484.98   39.01
  -5  -1  -7  541.41   27.60
  -5  -1  -8  134.91   25.64
  -5  -1  -9  133.50   44.67
  -5  -1 -10   58.33   47.32
  -5  -1 -11  217.77   33.88
  -5  -1 -12   92.73   33.98
  -5  -2  12  250.09   51.69
  -5  -2  11 1459.98   48.81
   5   2 -10  100.54    6.68
  -5  -2  10  191.08   43.95
   5   2  -9  390.26   10.52
  -5  -2   9  518.10   29.92
   5   2  -8 1827.11   22.25
  -5  -2   8 2221.17   51.08
   5   2  -7   59.65    4.17
  -5  -2   7   49.59   21.74
  -5  -2   6 1255.71   34.63
  -5  -2   5  188.17   32.82
  -5  -2   4  598.40   24.65
  -5  -2   3   10.84   25.54
  -5  -2   2  705.85   21.42
  -5  -2   1  238.83   12.16
  -5  -2   1  207.94   23.68
  -5  -2   0 1148.67   17.81
  -5  -2   0 1132.55   22.18
  -5  -2  -1   23.36    9.91
  -5  -2  -1   21.60   15.80
  -5  -2  -2   37.42   11.73
  -5  -2  -2   20.57    8.21
  -5  -2  -2   40.64   13.29
  -5  -2  -3  158.81   14.60
  -5  -2  -3  173.59   11.95
  -5  -2  -3  155.08   11.94
  -5  -2  -4 3048.30   54.76
  -5  -2  -4 2973.94   39.45
  -5  -2  -4 2960.96   39.00
  -5  -2  -5   11.56   18.12
  -5  -2  -5   40.89    6.50
  -5  -2  -5   38.47    6.64
  -5  -2  -6  119.11   20.59
  -5  -2  -6   76.00    4.14
  -5  -2  -7  347.57   26.55
  -5  -2  -8   41.65   24.84
  -5  -2  -9 1198.49   43.53
  -5  -2 -10 1757.33   56.35
  -5  -2 -11   95.17   52.41
  -5  -2 -12   41.20   33.06
  -5  -3  12    5.89   27.86
  -5  -3  11  349.77   32.11
  -5  -3  10  463.33   49.64
  -5  -3   9  200.54   26.82
  -5  -3   8   50.20   22.61
  -5  -3   7  952.11   53.36
  -5  -3   6 1980.35   48.15
  -5  -3   5  385.67   23.40
  -5  -3   4 5863.18  115.49
  -5  -3   310486.41  236.15
  -5  -3   2    3.59    4.77
  -5  -3   2   10.72   14.88
  -5  -3   1   78.99    9.20
  -5  -3   1   90.68   14.50
  -5  -3   0 5632.40   83.47
  -5  -3   0 5771.05  114.15
  -5  -3   0 5596.12  112.42
  -5  -3  -1 4404.71   65.87
  -5  -3  -1 4275.51   67.72
  -5  -3  -1 4240.63   66.67
  -5  -3  -2 2209.00   34.94
  -5  -3  -2 2252.62   32.66
  -5  -3  -3   68.18   21.85
  -5  -3  -3   73.17    8.77
  -5  -3  -4 2281.22   58.22
  -5  -3  -4 2296.32   30.27
  -5  -3  -5 2123.18   42.37
  -5  -3  -5 2016.13   25.55
  -5  -3  -6  464.59   37.79
  -5  -3  -6  426.78   13.36
  -5  -3  -7  298.27   37.63
  -5  -3  -7  227.70    7.38
   5   3   8   61.57    5.85
  -5  -3  -8   83.40   23.05
  -5  -3  -8   57.64    9.29
   5   3   9 2415.46   33.21
  -5  -3  -9 2421.41   32.33
   5   3  10   10.40    6.48
  -5  -3 -10  -29.58   27.77
  -5  -3 -11   60.55   53.87
  -5  -3 -12 1793.58   65.95
  -5  -4  11   14.83   27.29
  -5  -4  10   73.31   43.81
  -5  -4   9  467.11   30.43
  -5  -4   8  171.14   26.83
  -5  -4   7  552.79   29.87
  -5  -4   6  109.98   36.70
  -5  -4   5  113.54   21.60
  -5  -4   4  101.29   19.48
  -5  -4   3 1972.88   41.42
  -5  -4   3 1900.95   40.97
  -5  -4   2 1648.66   34.98
  -5  -4   2 1616.90   34.32
  -5  -4   1 2586.39   34.05
  -5  -4   1 2782.60   47.87
  -5  -4   0 1858.94   24.64
  -5  -4   0 1806.83   34.11
  -5  -4  -110565.25  250.29
  -5  -4  -2  319.00   14.54
  -5  -4  -3   94.47   11.35
   5   4   4  263.08   12.39
  -5  -4  -4  263.86   12.32
   5   4   5  281.55   18.10
  -5  -4  -5  262.70   11.05
   5   4   6  156.97   16.27
  -5  -4  -6  142.91    9.94
   5   4   7 1070.84   18.82
  -5  -4  -7 1052.96   18.47
   5   4   8  317.56   17.21
  -5  -4  -8  248.08   11.02
   5   4   9   75.86   15.31
  -5  -4  -9  105.59   27.32
  -5  -4  -9   60.57   15.32
   5   4  10  182.09   10.95
  -5  -4 -10  131.19   10.95
  -5  -4 -11 3397.43  131.01
  -5  -4 -12  134.46   34.92
  -5  -5  11  849.85   42.67
  -5  -5  11  936.48   42.79
  -5  -5  10   80.51   45.21
  -5  -5  10   43.51   27.25
  -5  -5   9   23.63   27.46
  -5  -5   9   43.91   26.07
  -5  -5   8  562.93   32.52
  -5  -5   8  523.25   32.83
  -5  -5   7 1055.12   38.83
  -5  -5   7 1004.41   38.53
  -5  -5   6   53.08   38.09
  -5  -5   6  105.72   23.22
  -5  -5   5   73.35   35.46
  -5  -5   5   -0.38   35.26
  -5  -5   4  165.92   22.55
  -5  -5   4  182.92   21.93
  -5  -5   3 1095.82   31.54
  -5  -5   3 1001.25   46.48
  -5  -5   2 3027.93   57.73
  -5  -5   1   42.91   16.88
  -5  -5   0  951.38   25.77
  -5  -5  -1 6752.31  129.15
  -5  -5  -2 1322.28   39.93
   5   5   3  537.07   18.34
  -5  -5  -3  527.80   17.73
   5   5   4 3415.65   56.20
  -5  -5  -4 3357.61   55.04
   5   5   5  423.61   16.19
  -5  -5  -5  430.15   15.73
   5   5   6 3660.90   72.94
  -5  -5  -6 3566.84   57.84
   5   5   7  547.76   16.85
  -5  -5  -7  526.99   16.05
   5   5   8  389.49   24.13
  -5  -5  -8  358.60   14.57
   5   5   9   82.64   21.02
  -5  -5  -9   98.24   20.16
   5   5  10  952.23   23.20
  -5  -5 -10  857.69   32.88
   5   5  11   10.85   14.05
  -5  -5 -11    4.44   33.40
  -5  -5 -12   72.20   37.10
  -5  -6  10   64.66   30.35
  -5  -6  10   22.05   45.70
  -5  -6   9 1182.11   44.40
  -5  -6   9 1044.40   41.95
  -5  -6   8  275.46   29.77
  -5  -6   8  171.31   47.01
  -5  -6   7 2899.15   72.52
  -5  -6   7 2890.77  100.94
  -5  -6   6 2988.05   97.86
  -5  -6   6 2927.64   69.93
  -5  -6   5  121.79   24.45
  -5  -6   5  117.08   23.79
  -5  -6   4   36.43   21.88
  -5  -6   4  164.70   36.89
  -5  -6   3  260.21    7.36
  -5  -6   3  260.82   24.15
  -5  -6   2  112.24   33.31
  -5  -6   1 3496.46   68.66
  -5  -6   0  346.35   21.72
  -5  -6  -1   94.85   17.85
   5   6   2   92.81   17.63
  -5  -6  -2  139.14   27.62
   5   6   3 2029.26   39.69
  -5  -6  -3 2082.41   40.73
   5   6   4    8.80   14.84
  -5  -6  -4   10.49   14.90
   5   6   5 5147.10  113.87
  -5  -6  -5 5050.20   93.60
   5   6   6  997.83   25.07
  -5  -6  -6  973.49   36.08
   5   6   7  533.72   30.28
  -5  -6  -7  473.48   18.65
   5   6   8  383.77   19.01
  -5  -6  -8  354.86   17.91
   5   6   9   65.81   16.53
  -5  -6  -9   55.45   24.74
   5   6  10  327.86   19.70
  -5  -6 -10  264.73   18.62
   5   6  11  369.31   21.94
  -5  -6 -11  319.69   20.78
  -5  -7  10   27.55   30.32
  -5  -7  10   59.61   28.97
  -5  -7   9   14.21   30.16
  -5  -7   9   66.96   28.20
  -5  -7   8  239.65   50.52
  -5  -7   8  216.54   29.75
  -5  -7   7  104.64   45.54
  -5  -7   7   20.12   27.59
  -5  -7   6 3374.84   82.78
  -5  -7   6 3359.56   81.06
  -5  -7   5   36.10   24.63
  -5  -7   5   -0.19   24.83
  -5  -7   4  733.83   12.32
  -5  -7   4  748.95   32.82
  -5  -7   3   23.47   10.14
  -5  -7   3   47.89   22.40
  -5  -7   2 4630.69   99.30
  -5  -7   1  186.60   37.47
  -5  -7   0 7245.79  190.55
   5   7   1 1263.54   35.88
  -5  -7  -1 1242.66   34.96
   5   7   2  761.69   27.22
  -5  -7  -2  687.38   41.12
   5   7   3 1308.31   49.19
  -5  -7  -3 1201.79   48.31
   5   7   4  797.85   26.52
  -5  -7  -4  750.28   26.34
   5   7   5  197.96   19.01
  -5  -7  -5  141.74   19.01
   5   7   6  794.69   26.51
  -5  -7  -6  744.63   38.60
   5   7   7   15.05   29.13
  -5  -7  -7   32.54   16.85
   5   7   8    7.89   17.80
  -5  -7  -8   -4.24   28.77
   5   7   9   51.42   19.29
  -5  -7  -9   30.93   17.82
   5   7  10  390.91   24.63
  -5  -7 -10  326.12   35.62
   5   7  11  792.96   30.61
  -5  -7 -11  582.49   28.46
  -5  -8   9   57.39   32.10
  -5  -8   9   89.30   29.03
  -5  -8   8  220.32   32.50
  -5  -8   8  115.77   30.08
  -5  -8   7   70.40   30.54
  -5  -8   7  113.27   28.90
  -5  -8   6  320.39   32.00
  -5  -8   6  330.38   31.23
  -5  -8   5  552.79   13.30
  -5  -8   5  701.42   34.79
  -5  -8   4 1923.04   27.97
  -5  -8   4 2232.19   57.50
  -5  -8   3  562.71   19.04
  -5  -8   3  591.19   50.60
  -5  -8   2   20.89   24.24
  -5  -8   1  872.91   33.80
   5   8   0 1501.61   42.92
  -5  -8   0 1435.23   62.27
   5   8   1  864.82   49.80
  -5  -8  -1  785.24   31.69
   5   8   2 1749.01   44.49
  -5  -8  -2 1851.90   46.71
   5   8   3  399.44   25.76
  -5  -8  -3  369.12   24.98
   5   8   4   23.89   21.02
  -5  -8  -4   52.85   20.85
   5   8   5 1255.86   37.09
  -5  -8  -5 1342.16   56.11
   5   8   6  542.60   26.69
  -5  -8  -6  520.48   26.37
   5   8   7  112.15   35.83
  -5  -8  -7  133.96   21.19
   5   8   8  168.46   23.05
  -5  -8  -8  175.26   21.98
   5   8   9  377.76   26.60
  -5  -8  -9  350.08   39.64
   5   8  10  195.18   25.49
  -5  -8 -10  154.62   24.09
  -5  -9   8  643.88   67.06
  -5  -9   8  634.62   39.67
  -5  -9   7  103.65   52.29
  -5  -9   7   70.96   30.40
  -5  -9   6  320.73   34.10
  -5  -9   6  302.77   54.10
  -5  -9   5  152.29   30.16
  -5  -9   4   77.34   16.80
  -5  -9   4  123.24   28.88
  -5  -9   3 1168.46   22.53
  -5  -9   3 1219.92   66.30
  -5  -9   2  402.73   31.25
  -5  -9   1   47.89   26.36
   5   9   0  737.09   35.10
  -5  -9   0  622.92   53.15
   5   9   1 1150.39   61.93
  -5  -9  -1 1170.54   41.21
   5   9   2  166.23   26.63
  -5  -9  -2  178.86   25.99
   5   9   3  723.53   33.63
  -5  -9  -3  698.32   33.47
   5   9   4  769.07   33.57
  -5  -9  -4  749.32   33.74
   5   9   5   23.02   23.05
  -5  -9  -5  -17.42   24.15
   5   9   6  130.44   24.36
  -5  -9  -6   99.86   25.20
   5   9   7    6.06   39.30
  -5  -9  -7   34.01   23.27
   5   9   8   46.26   24.44
  -5  -9  -8   31.77   23.94
   5   9   9  233.47   27.97
  -5  -9  -9  129.18   42.69
  -5 -10   6  422.71   60.68
  -5 -10   5  266.92   34.34
  -5 -10   4   69.08   30.62
  -5 -10   3   63.96   13.98
  -5 -10   3  110.40   30.59
  -5 -10   2   82.44   15.13
  -5 -10   2  102.17   30.48
  -5 -10   1   38.29   28.86
   5  10   0  515.18   36.80
  -5 -10   0  629.05   37.17
   5  10   1  280.38   32.02
  -5 -10  -1  245.89   31.99
   5  10   2 1042.77   43.19
  -5 -10  -2 1065.08   43.49
   5  10   3  164.41   29.16
  -5 -10  -3  154.70   47.78
   5  10   4  395.60   32.36
  -5 -10  -4  372.20   50.37
   5  10   5  632.24   36.30
  -5 -10  -5  645.43   37.03
   5  10   6   74.79   27.63
  -5 -10  -6   48.26   27.65
   5  10   7  205.68   30.60
  -5 -10  -7  232.71   30.12
   5  10   8    6.94   45.47
  -5 -10  -8   49.15   27.96
  -5 -11   4   55.41   33.33
  -5 -11   3   64.45   27.21
  -5 -11   3   34.13   34.26
  -5 -11   2  277.69   19.68
  -5 -11   2  277.85   37.37
  -5 -11   1    1.73   52.19
   5  11   0  101.89   32.29
  -5 -11   0   39.89   32.42
   5  11   1    3.27   52.58
  -5 -11  -1   56.96   31.05
   5  11   2  625.87   40.59
  -5 -11  -2  659.07   63.52
   5  11   3  164.73   52.21
  -5 -11  -3   98.80   31.98
   5  11   4  434.74   37.35
  -5 -11  -4  445.92   37.90
   5  11   5  473.99   60.57
  -5 -11  -5  527.60   38.44
   5  11   6  288.29   34.50
  -5 -11  -6  230.47   55.31
   6  -7  -5  675.22   40.52
   6  -7  -5  720.26   64.31
  -6   7   5  750.48   41.40
   6  -7  -4   26.47   29.51
   6  -7  -4   17.92   27.95
  -6   7   4    6.57   29.09
   6  -7  -3  196.32   31.81
   6  -7  -3  268.25   29.37
  -6   7   3  247.48   30.42
   6  -7  -2   59.21   30.59
   6  -7  -2  106.46   41.32
  -6   7   2   95.67   42.71
   6  -7  -1   64.65   50.56
   6  -7  -1  127.26   37.31
  -6   7   1   34.71   24.32
   6  -7   0  541.01   39.39
   6  -7   0  469.29   27.84
  -6   7   0  509.66   29.76
   6  -7   1 1874.07   65.23
   6  -7   1 1967.32   47.94
  -6   7  -1 1927.31   47.72
   6  -7   2   44.71   55.36
   6  -7   2   47.78   19.11
  -6   7  -2   43.74   19.83
   6  -7   3  -23.77   33.84
   6  -7   3   23.67   17.93
  -6   7  -3  -21.70   30.13
   6  -7   4   36.16   33.95
   6  -6  -7 1609.03   52.56
   6  -6  -7 1644.67   62.75
  -6   6   7 1613.37   91.28
   6  -6  -6  102.92   43.85
   6  -6  -6  106.46   32.52
  -6   6   6   94.25   53.15
   6  -6  -5  226.02   28.36
   6  -6  -5  270.98   31.47
  -6   6   5  223.62   32.69
   6  -6  -4  852.35   57.58
   6  -6  -4  866.38   57.98
  -6   6   4  870.96   39.69
   6  -6  -3  190.71   28.76
   6  -6  -3  171.22   25.94
  -6   6   3  211.05   27.40
   6  -6  -2   63.97   26.85
   6  -6  -2   37.72   22.41
  -6   6   2   65.06   23.39
   6  -6  -1  165.58   45.42
   6  -6  -1   91.01   21.24
  -6   6   1   97.16   22.40
   6  -6   0   44.88   27.14
   6  -6   0   18.93   30.81
  -6   6   0   -9.75   19.88
   6  -6   1  330.45   34.55
   6  -6   1  347.05   32.59
  -6   6  -1  377.74   22.50
   6  -6   2  292.65   34.85
   6  -6   2  350.61   29.84
  -6   6  -2  338.65   20.19
   6  -6   3  -38.56   51.20
   6  -6   3   86.90   26.15
  -6   6  -3   86.46   26.39
   6  -6   4  742.10   23.42
  -6   6  -4  767.09   33.72
   6  -6   5  191.82   35.35
   6  -6   6  307.15   38.59
   6  -5  -8  547.07   68.24
  -6   5   8  495.25   40.38
   6  -5  -7 1480.03   45.35
   6  -5  -7 1605.93   58.45
  -6   5   7 1542.69   55.56
   6  -5  -6   93.83   23.70
   6  -5  -6  128.27   31.08
  -6   5   6  184.56   47.98
   6  -5  -5   16.17   21.89
   6  -5  -5   33.69   26.31
  -6   5   5   14.72   26.63
   6  -5  -4   46.92   22.43
   6  -5  -4   64.75   23.96
  -6   5   4   -3.71   24.78
   6  -5  -3  261.62   27.04
   6  -5  -3  301.37   24.91
  -6   5   3  254.24   26.32
   6  -5  -2  648.59   30.98
   6  -5  -2  591.27   42.53
  -6   5   2  618.72   29.53
   6  -5  -1  317.99   43.88
  -6   5   1  289.63   36.08
   6  -5   0  163.17   25.44
   6  -5   0  113.10   17.55
  -6   5   0  122.28   30.46
   6  -5   1  133.88   27.29
   6  -5   1  109.50   16.33
  -6   5  -1  122.40   27.85
   6  -5   2  154.81   28.19
   6  -5   2  121.43   15.13
  -6   5  -2  104.02   15.57
   6  -5   3  136.71   28.78
   6  -5   3  110.36   13.88
  -6   5  -3  111.54   22.23
   6  -5   4  307.55   52.77
   6  -5   4  320.44   22.33
  -6   5  -4  343.35   14.66
   6  -5   5   71.34   30.59
   6  -5   6  519.05   39.95
   6  -5   7  152.13   33.40
   6  -4  -9   40.91   61.12
  -6   4   9   60.91   34.89
   6  -4  -8  589.56   43.35
  -6   4   8  503.36   39.59
   6  -4  -7  341.97   56.69
  -6   4   7  240.57   33.17
   6  -4  -6  456.30   25.28
   6  -4  -6  516.46   34.32
  -6   4   6  468.11   33.20
   6  -4  -5   27.98   20.19
   6  -4  -5   53.69   24.99
  -6   4   5   56.52   25.18
   6  -4  -4  555.63   26.47
   6  -4  -4  630.97   44.98
  -6   4   4  554.54   46.24
   6  -4  -3  499.91   26.50
   6  -4  -3  488.30   25.94
  -6   4   3  494.12   26.64
   6  -4  -2 2767.38   59.23
   6  -4  -2 2591.43   54.16
  -6   4   2 2721.25   76.71
   6  -4  -1   93.17   35.53
   6  -4  -1   40.91   16.47
  -6   4   1   37.67   18.29
   6  -4   0   66.30   36.02
   6  -4   0   12.44   14.84
  -6   4   0   28.48   16.17
   6  -4   1   66.33   23.21
   6  -4   1   42.65   13.59
  -6   4  -1   33.04   14.40
   6  -4   2  157.53   26.52
   6  -4   2  191.03   13.59
  -6   4  -2  185.70   22.44
   6  -4   3   14.42   24.65
   6  -4   3    3.58   10.52
  -6   4  -3    1.18   17.45
   6  -4   4  139.78   26.80
   6  -4   4  113.63    9.84
  -6   4  -4  108.31   10.22
   6  -4   5  225.31   31.01
  -6   4  -5  253.27   31.04
   6  -4   6  344.04   51.65
  -6   4  -6  346.96   35.14
   6  -4   7  117.24   31.29
  -6   4  -7  156.87   53.94
   6  -4   8   44.13   32.34
  -6   4  -8   39.26   33.51
  -6   4  -9  581.36   44.09
   6  -3 -10  772.85   75.66
  -6   3  10  656.01   43.96
   6  -3  -9   40.86   33.28
  -6   3   9   70.14   32.40
   6  -3  -8  376.35   36.40
  -6   3   8  375.69   34.18
   6  -3  -7  613.81   36.96
  -6   3   7  541.77   34.73
   6  -3  -6  560.28   23.98
   6  -3  -6  642.03   36.20
  -6   3   6  616.02   32.39
   6  -3  -5  160.45   19.28
   6  -3  -5  227.73   26.98
  -6   3   5  160.85   25.25
   6  -3  -4  636.10   37.56
   6  -3  -4  578.02   28.48
  -6   3   4  695.95   29.07
   6  -3  -3   51.10   18.01
   6  -3  -3   40.13   18.88
  -6   3   3   40.82   32.26
   6  -3  -2   62.72   18.70
   6  -3  -2  108.13   17.14
  -6   3   2   82.05   18.73
   6  -3  -1   30.01   18.63
   6  -3  -1   41.90   15.31
  -6   3   1   32.09   26.21
   6  -3   0  360.12   23.35
   6  -3   0  340.59   16.42
  -6   3   0  319.23   27.08
   6  -3   1  181.96   22.59
   6  -3   1  174.83   13.41
  -6   3  -1  164.12   22.51
   6  -3   2 1093.89   34.79
   6  -3   2 1040.14   20.71
  -6   3  -2 1072.65   21.18
   6  -3   3  935.01   54.38
   6  -3   3 1037.19   18.62
  -6   3  -3  995.95   18.26
   6  -3   4  -16.46   39.43
   6  -3   4    6.96    6.78
  -6   3  -4   45.19   23.87
  -6   3  -4    8.57    7.05
   6  -3   5   29.33   25.79
   6  -3   5   22.82    5.56
  -6   3  -5   10.86   26.19
  -6   3  -5   24.67    5.85
   6  -3   6  946.94   39.03
  -6   3  -6 1035.71   42.15
   6  -3   7  169.94   30.63
  -6   3  -7   96.73   52.95
  -6   3  -8 1313.01   50.91
  -6   3  -9  117.02   35.66
   6  -2 -11 1475.85   62.18
  -6   2  11 1398.93   57.53
   6  -2 -10 1604.55   61.25
  -6   2  10 1509.76   57.43
   6  -2  -9  106.87   32.52
  -6   2   9   64.43   30.10
   6  -2  -8   85.14   50.19
  -6   2   8  133.20   29.11
   6  -2  -7  206.58   30.91
  -6   2   7  264.53   46.73
   6  -2  -6 2249.83   43.36
   6  -2  -6 2192.66   57.79
  -6   2   6 2319.78   82.38
   6  -2  -5   35.45   15.29
   6  -2  -5   67.82   37.85
  -6   2   5   34.57   37.16
   6  -2  -4  294.83   17.97
   6  -2  -4  303.33   24.99
  -6   2   4  280.64   37.48
   6  -2  -3  124.75   25.49
   6  -2  -3  100.07   19.57
  -6   2   3   90.66   19.21
   6  -2  -2   92.12   26.33
   6  -2  -2   68.97   17.09
  -6   2   2   69.39   16.92
   6  -2  -1   18.81   26.48
   6  -2  -1   -1.47   14.83
  -6   2   1   18.01   24.17
   6  -2   0  441.35   34.99
   6  -2   0  502.80   17.86
  -6   2   0  519.16   27.48
   6  -2   1  441.18   34.66
   6  -2   1  360.81   22.68
  -6   2  -1  353.33   22.68
   6  -2   2   41.04   31.44
   6  -2   2   19.80    9.43
  -6   2  -2    0.45   19.35
  -6   2  -2  -11.15    9.66
   6  -2   3   62.69   21.65
   6  -2   3   99.64    7.91
  -6   2  -3   73.78   21.77
  -6   2  -3   90.81   12.88
   6  -2   4 2066.85   50.47
  -6   2  -4 2002.85   70.97
  -6   2  -4 1982.95   22.55
   6  -2   5 1132.95   37.21
  -6   2  -5 1159.64   39.03
   6  -2   6   15.93   24.79
  -6   2  -6   74.49   42.26
  -6   2  -7 3896.00   96.00
  -6   2  -8  561.76   37.66
  -6   2  -9 1080.35   48.05
  -6   2 -10  116.94   34.48
   6  -1 -11   48.83   56.18
  -6   1  11  -35.01   32.43
   6  -1 -10  436.45   38.60
  -6   1  10  387.18   36.44
   6  -1  -9  179.34   33.89
  -6   1   9  261.07   32.19
   6  -1  -8   14.17   47.09
  -6   1   8   64.22   44.35
   6  -1  -7 1303.07   27.64
   6  -1  -7 1245.77   45.25
  -6   1   7 1310.01   43.84
   6  -1  -6 3811.68   78.10
   6  -1  -6 3698.24   85.54
  -6   1   6 3634.69   82.17
   6  -1  -5 2034.12   47.03
   6  -1  -5 2011.64   50.95
  -6   1   5 1949.35   48.38
   6  -1  -4 5307.75  108.26
   6  -1  -4 5458.85  140.70
  -6   1   4 5303.65  107.89
   6  -1  -3  464.13   25.31
   6  -1  -3  480.33   36.35
  -6   1   3  448.80   22.29
   6  -1  -2  310.42   24.33
   6  -1  -2  269.66   29.39
  -6   1   2  284.14   18.59
   6  -1  -1   65.01   23.12
   6  -1  -1   10.40   23.40
  -6   1   1   70.21   23.36
   6  -1   0 1192.35   39.27
   6  -1   0 1150.94   23.69
  -6   1   0 1163.57   23.80
   6  -1   1   83.07   27.19
   6  -1   1   70.55   17.33
  -6   1  -1   61.24   16.20
  -6   1  -1   93.13   10.92
   6  -1   2 3158.61   59.89
   6  -1   2 3118.66   43.69
  -6   1  -2 3177.35   61.05
  -6   1  -2 3277.18   53.93
   6  -1   3 1423.58   36.83
   6  -1   3 1343.36   17.25
  -6   1  -3 1320.75   35.74
  -6   1  -3 1358.92   22.94
   6  -1   4  899.64   30.28
  -6   1  -4  940.68   31.04
  -6   1  -4  885.72    9.68
   6  -1   5  607.98   29.06
  -6   1  -5  638.54   28.63
  -6   1  -6   62.81   24.46
  -6   1  -7   90.24   27.00
  -6   1  -8 3285.40   84.12
  -6   1  -9   34.58   30.71
  -6   1 -10  102.37   32.63
  -6   1 -11   46.98   34.73
   6   0 -11  -41.29   54.93
  -6   0  11   -3.11   30.67
   6   0 -10   49.97   32.28
  -6   0  10   31.80   29.62
   6   0  -9  759.62   41.40
  -6   0   9  787.30   61.62
   6   0  -8  453.47   54.76
  -6   0   8  424.72   32.28
   6   0  -7  401.23   20.65
   6   0  -7  371.55   31.73
  -6   0   7  433.00   29.25
   6   0  -6   10.46   15.41
   6   0  -6  -34.83   23.82
  -6   0   6   19.07   36.91
   6   0  -5 1241.51   28.67
   6   0  -5 1249.76   37.92
  -6   0   5 1292.87   55.02
   6   0  -4   50.58   15.97
   6   0  -4   72.44   20.51
  -6   0   4   48.27   19.59
   6   0  -3 3994.86   61.63
   6   0  -3 4147.64   79.29
  -6   0   3 4082.52   77.11
   6   0  -2  217.68   12.61
   6   0  -2  250.62   17.92
  -6   0   2  244.18   17.44
   6   0  -1 3732.83   59.59
   6   0  -1 3686.45   63.49
  -6   0   1 3619.05   62.07
   6   0   0  555.80   18.33
   6   0   0  584.26   17.02
  -6   0   0  602.19   18.26
  -6   0   0  622.16   26.21
   6   0   1 1092.62   25.77
   6   0   1 1093.13   26.96
  -6   0  -1 1116.36   36.93
  -6   0  -1 1177.98   20.81
   6   0   2   19.01   15.16
  -6   0  -2   39.42   15.16
  -6   0  -2    9.52    8.17
   6   0   3 3445.41   84.32
  -6   0  -3 3436.22   85.27
  -6   0  -3 3458.68   43.21
   6   0   4 1456.08   36.84
  -6   0  -4 1409.63   36.05
  -6   0  -5  645.68   29.55
  -6   0  -6  250.69   25.75
  -6   0  -7  -24.92   24.78
  -6   0  -8  275.53   49.81
  -6   0  -9    9.89   48.84
  -6   0 -10  821.07   69.42
  -6   0 -11  251.30   60.83
  -6  -1  11   44.20   31.09
   6   1 -10   62.93   31.18
  -6  -1  10   20.62   28.73
   6   1  -9  910.22   42.63
  -6  -1   9  879.96   40.53
   6   1  -8  618.91   56.07
  -6  -1   8  666.26   34.20
   6   1  -7 1125.53   62.40
  -6  -1   7 1077.55   59.02
   6   1  -6   82.62   10.50
   6   1  -6  137.76   25.28
  -6  -1   6  109.26   23.39
   6   1  -5 1671.49   26.32
   6   1  -5 1597.54   44.05
  -6  -1   5 1576.42   41.27
   6   1  -4 3201.14   41.58
   6   1  -4 3201.83   66.39
  -6  -1   4 3263.81   87.55
   6   1  -3 5992.45   92.34
   6   1  -3 5959.11  147.49
  -6  -1   3 5919.42  115.97
   6   1  -2 4288.57   62.21
   6   1  -2 4251.56   76.47
  -6  -1   2 4328.22   78.13
   6   1  -1  860.20   17.58
   6   1  -1  812.83   21.69
  -6  -1   1  837.42   21.65
   6   1   0 1560.33   26.18
  -6  -1   0 1561.76   36.90
  -6  -1   0 1561.09   27.79
   6   1   1  611.86   27.38
  -6  -1  -1  617.13   18.02
  -6  -1  -1  629.52   15.40
  -6  -1  -2  326.32   16.65
  -6  -1  -2  303.45   16.56
  -6  -1  -3   42.26   16.26
  -6  -1  -3   50.81   11.06
  -6  -1  -3   55.70    6.48
  -6  -1  -4 2468.08   50.05
  -6  -1  -4 2543.81   31.12
  -6  -1  -4 2440.98   26.60
  -6  -1  -5 1348.89   36.58
  -6  -1  -6  335.37   41.82
  -6  -1  -7   43.46   39.67
  -6  -1  -8  131.72   27.09
  -6  -1  -9  188.05   30.67
  -6  -1 -10  198.89   54.81
  -6  -1 -11  360.80   62.75
  -6  -2  11   81.07   30.23
  -6  -2  10   26.11   28.10
  -6  -2   9 2451.50   65.89
  -6  -2   8 1350.80   44.72
  -6  -2   7   34.64   24.37
  -6  -2   6   87.21   23.35
   6   2  -4 2904.42   30.73
  -6  -2   4 3206.49   62.00
   6   2  -3  562.10    8.68
  -6  -2   3  604.20   38.90
  -6  -2   2 1019.82   28.03
  -6  -2   1 2453.41   33.39
  -6  -2   1 2466.31   44.27
  -6  -2   0  574.40   20.92
  -6  -2   0  569.09   26.61
  -6  -2  -1  359.14   14.62
  -6  -2  -1  421.72   13.90
  -6  -2  -2  131.56   13.99
  -6  -2  -2  133.99    9.98
  -6  -2  -2  138.24    9.73
  -6  -2  -3  400.54   19.00
  -6  -2  -3  413.03   10.66
  -6  -2  -3  429.09   10.60
  -6  -2  -4   57.62   17.34
  -6  -2  -4   29.96   10.36
  -6  -2  -5 3921.43  100.67
  -6  -2  -5 3755.98   47.89
  -6  -2  -6   18.44   20.91
  -6  -2  -7 1784.41   47.95
  -6  -2  -8  105.57   26.77
  -6  -2  -9  749.81   39.49
  -6  -2 -10  289.33   34.38
  -6  -2 -11   58.57   55.69
  -6  -3  11   56.24   31.02
  -6  -3  10  380.49   34.65
  -6  -3   9  538.70   34.14
  -6  -3   8  245.19   46.94
  -6  -3   7 1769.25   49.57
  -6  -3   6  -18.99   38.32
  -6  -3   5  341.00   26.68
  -6  -3   4  671.82   27.48
  -6  -3   3  796.15   27.70
  -6  -3   2  124.60   17.78
  -6  -3   1  130.07    7.32
  -6  -3   1  127.17   16.02
  -6  -3   0 1834.25   33.76
  -6  -3   0 1783.16   32.57
  -6  -3  -1 1523.20   25.58
  -6  -3  -1 1512.82   27.44
  -6  -3  -1 1439.31   25.90
  -6  -3  -2   90.56   12.70
  -6  -3  -2   71.20   11.37
  -6  -3  -2   91.36   10.99
  -6  -3  -3  226.07   26.32
  -6  -3  -3  211.92   10.88
  -6  -3  -3  199.91   10.65
  -6  -3  -4  875.96   26.25
  -6  -3  -4  872.24   21.40
  -6  -3  -4  885.79   21.01
  -6  -3  -5  335.54   22.40
  -6  -3  -5  293.02   13.25
  -6  -3  -5  281.58   13.07
  -6  -3  -6  415.57   25.74
  -6  -3  -6  356.18   11.83
  -6  -3  -6  348.20   11.43
  -6  -3  -7 1321.98   14.73
  -6  -3  -7 1229.28   14.91
  -6  -3  -8 1681.15   51.77
  -6  -3  -9  109.96   30.48
  -6  -3 -10 3040.70   88.94
  -6  -3 -11 1854.39   98.24
  -6  -4  11   64.41   49.63
  -6  -4  10  277.42   32.47
  -6  -4   9  459.71   33.82
  -6  -4   8   20.55   43.65
  -6  -4   7  485.72   32.18
  -6  -4   6    9.28   22.98
  -6  -4   5  198.23   38.81
  -6  -4   4  245.82   23.62
  -6  -4   3   88.59   20.42
  -6  -4   2   -3.38    5.23
  -6  -4   2    3.81   17.49
  -6  -4   2   -1.41   17.00
  -6  -4   1 1054.47   14.40
  -6  -4   1 1132.17   28.46
  -6  -4   1 1050.45   27.43
  -6  -4   0 1007.20   16.65
  -6  -4   0 1015.14   37.01
  -6  -4  -1  121.93   11.30
  -6  -4  -1  153.91   14.65
  -6  -4  -1  141.59   14.29
  -6  -4  -2   25.38   11.56
  -6  -4  -2   -9.42   11.98
  -6  -4  -3  467.07   18.10
  -6  -4  -3  521.42   15.63
  -6  -4  -4    2.95   26.25
  -6  -4  -4    7.99   10.16
  -6  -4  -5  477.08   37.10
  -6  -4  -5  569.74   20.34
  -6  -4  -6  217.18   35.78
  -6  -4  -6  204.95   15.79
  -6  -4  -7   19.28   22.19
  -6  -4  -7    9.92    7.94
  -6  -4  -8  -24.37   24.42
  -6  -4  -8   -1.58   12.43
  -6  -4 -10   95.77   31.47
  -6  -4 -11   37.88   58.03
  -6  -5  10   36.16   30.22
  -6  -5  10   11.91   31.34
  -6  -5   9    5.56   30.48
  -6  -5   9   27.47   29.46
  -6  -5   8   98.40   47.55
  -6  -5   8   56.36   28.22
  -6  -5   7    1.13   25.45
  -6  -5   7   -4.14   26.59
  -6  -5   6  258.68   28.56
  -6  -5   6  281.31   28.32
  -6  -5   5  164.58   41.74
  -6  -5   5  203.80   25.53
  -6  -5   4   74.62   23.09
  -6  -5   4  103.31   36.89
  -6  -5   3   39.95   21.43
  -6  -5   3   18.31   20.16
  -6  -5   2  433.61   23.89
  -6  -5   2  520.47   37.71
  -6  -5   1 1005.62   14.44
  -6  -5   1 1025.22   29.42
  -6  -5   1 1016.93   29.16
  -6  -5   0 7919.10  148.00
  -6  -5   0 7558.26  158.05
  -6  -5  -1   48.79   10.88
  -6  -5  -1   30.91   15.44
  -6  -5  -2 4892.36  105.75
  -6  -5  -3 7213.51  139.51
  -6  -5  -4  225.62   14.87
  -6  -5  -5  197.59   13.56
  -6  -5  -6   78.90   11.98
   6   5   7  678.53   17.80
  -6  -5  -7  629.98   16.71
   6   5   8   62.31   18.77
  -6  -5  -8   45.19   26.73
  -6  -5  -8   68.22   17.74
   6   5   9  479.09   23.15
  -6  -5  -9  526.20   35.64
  -6  -5 -10  989.87   46.22
  -6  -5 -11  121.61   34.63
  -6  -6  10  973.68   49.64
  -6  -6  10  980.94   47.09
  -6  -6   9  583.49   39.60
  -6  -6   8   49.04   29.64
  -6  -6   8   93.74   30.53
  -6  -6   7   55.57   28.47
  -6  -6   7   -2.30   26.95
  -6  -6   6  154.86   27.96
  -6  -6   6  134.26   27.50
  -6  -6   5 1775.72   72.32
  -6  -6   5 1568.28   71.08
  -6  -6   4  -21.16   23.69
  -6  -6   4  -11.27   23.22
  -6  -6   3  334.39   26.02
  -6  -6   3  346.44   26.26
  -6  -6   2  643.19    8.64
  -6  -6   2  692.20   28.95
  -6  -6   1 3093.30   62.79
  -6  -6   0  143.13   31.99
  -6  -6  -1 4429.57  107.84
  -6  -6  -2 1873.51   39.14
  -6  -6  -3 1333.66   30.55
   6   6   4  139.42   16.58
  -6  -6  -4  138.02   26.12
   6   6   5   81.68   15.93
  -6  -6  -5  123.91   15.09
   6   6   6  139.74   15.19
  -6  -6  -6  129.04   15.42
   6   6   7  269.33   16.44
  -6  -6  -7  222.86   25.12
   6   6   8  277.23   25.97
  -6  -6  -8  215.78   25.76
   6   6   9   -3.61   23.75
  -6  -6  -9   10.33   21.94
   6   6  10  240.82   27.59
  -6  -6 -10  223.45   16.85
  -6  -6 -11    6.41   34.93
  -6  -7   9  384.92   38.54
  -6  -7   9  475.47   38.83
  -6  -7   8 1457.10   55.51
  -6  -7   8 1520.03   55.14
  -6  -7   7  107.73   30.25
  -6  -7   7   14.47   30.17
  -6  -7   6   43.57   47.52
  -6  -7   6   45.69   46.13
  -6  -7   5  245.96   30.58
  -6  -7   5  214.12   29.25
  -6  -7   4  224.98   28.18
  -6  -7   4  268.59   28.60
  -6  -7   3   55.16    3.34
  -6  -7   3   56.21    3.25
  -6  -7   3   79.84   24.28
  -6  -7   2  248.18   25.23
  -6  -7   1  815.10   32.38
  -6  -7   0 1997.41   47.42
  -6  -7  -1  487.14   40.70
  -6  -7  -2  528.45   24.51
   6   7   3 1102.41   32.43
  -6  -7  -3 1160.61   32.53
   6   7   4 3432.29   90.30
  -6  -7  -4 3544.26   70.15
   6   7   5 1233.04   31.92
  -6  -7  -5 1263.73   47.08
   6   7   6   25.70   17.24
  -6  -7  -6   16.36   17.43
   6   7   7   13.52   28.21
  -6  -7  -7    3.83   26.95
   6   7   8 1172.14   30.85
  -6  -7  -8 1069.63   30.29
   6   7   9   47.61   18.68
  -6  -7  -9   60.30   27.93
   6   7  10   56.96   19.84
  -6  -7 -10   58.82   17.95
  -6  -8   8   82.00   55.20
  -6  -8   8   58.78   54.23
  -6  -8   7 1543.84   57.27
  -6  -8   7 1535.67   83.70
  -6  -8   6  436.76   38.18
  -6  -8   6  468.38   36.27
  -6  -8   5   51.09   29.20
  -6  -8   5   75.76   29.83
  -6  -8   4  228.96   49.26
  -6  -8   3   64.30    6.39
  -6  -8   3   70.02   27.18
  -6  -8   2  804.93   55.97
  -6  -8   1  614.76   31.62
  -6  -8   0  337.58   27.21
  -6  -8  -1  183.78   39.32
   6   8   2  413.93   26.44
  -6  -8  -2  383.36   41.94
   6   8   3  868.73   32.70
  -6  -8  -3  957.37   48.57
   6   8   4   35.81   20.76
  -6  -8  -4  -23.10   20.42
   6   8   5  655.63   27.98
  -6  -8  -5  610.23   27.77
   6   8   6  242.77   36.77
  -6  -8  -6  221.15   23.03
   6   8   7  102.77   21.19
  -6  -8  -7  101.69   32.90
   6   8   8   77.65   21.32
  -6  -8  -8   53.88   20.10
   6   8   9   97.05   35.91
  -6  -8  -9   64.79   20.91
  -6  -9   7  -28.63   33.64
  -6  -9   7   15.41   32.65
  -6  -9   6  243.71   58.00
  -6  -9   6  189.59   34.99
  -6  -9   5   29.21   31.40
  -6  -9   5   58.21   31.91
  -6  -9   4   14.31   48.79
  -6  -9   3  124.36    9.86
  -6  -9   3  154.34   29.97
  -6  -9   2  161.01   47.55
  -6  -9   1  257.46   29.57
  -6  -9   0 2583.67   67.60
  -6  -9  -1   57.40   41.71
   6   9   2   33.21   24.58
  -6  -9  -2  -39.29   23.96
   6   9   3   -6.25   39.87
  -6  -9  -3   23.81   24.19
   6   9   4  376.89   28.69
  -6  -9  -4  378.77   28.04
   6   9   5  654.01   49.51
  -6  -9  -5  663.97   32.30
   6   9   6   -5.96   23.36
  -6  -9  -6   47.72   38.29
   6   9   7  242.11   26.86
  -6  -9  -7  247.75   41.30
   6   9   8  488.42   30.26
  -6  -9  -8  407.62   29.53
  -6 -10   5  786.97   46.39
  -6 -10   4   -0.01   52.40
  -6 -10   3   12.07   31.48
  -6 -10   2  266.72   15.23
  -6 -10   2  295.70   55.02
  -6 -10   1  432.87   35.36
  -6 -10   0  367.81   34.46
  -6 -10  -1  214.59   31.29
   6  10   2  118.32   29.57
  -6 -10  -2  131.93   29.32
   6  10   3  142.28   47.04
  -6 -10  -3  131.72   28.60
   6  10   4  854.99   39.69
  -6 -10  -4  890.96   39.52
   6  10   5  399.29   52.32
  -6 -10  -5  457.86   33.99
   6  10   6  273.85   30.96
  -6 -10  -6  269.27   31.05
   6  10   7  888.45   41.66
  -6 -10  -7  917.69   40.02
  -6 -11   3  156.03   35.83
  -6 -11   2   96.00   56.02
  -6 -11   1  289.74   38.51
  -6 -11   0  -10.04   53.23
  -6 -11  -1  375.50   37.66
   6  11   2  194.23   33.43
  -6 -11  -2  163.19   32.88
   6  11   3  239.91   53.08
  -6 -11  -3  160.82   53.51
   6  11   4  110.68   31.49
  -6 -11  -4   78.86   31.09
   6  11   5   72.71   30.51
  -6 -11  -5   35.36   31.79
   7  -6  -4  361.94   51.95
   7  -6  -4  384.91   51.84
  -7   6   4  392.72   35.40
   7  -6  -3  102.45   29.14
   7  -6  -3   67.13   41.75
  -7   6   3  111.52   27.84
   7  -6  -2  835.12   42.20
   7  -6  -2  914.84   35.41
  -7   6   2  899.01   37.89
   7  -6  -1   28.91   29.88
   7  -6  -1   49.57   21.78
  -7   6   1   65.49   23.87
   7  -6   0   58.90   30.85
   7  -6   0   16.36   19.79
  -7   6   0   14.42   21.71
   7  -6   1  412.44   38.20
   7  -6   1  363.22   22.86
  -7   6  -1  359.56   24.42
   7  -6   2   88.82   52.16
   7  -6   2   10.77   18.36
  -7   6  -2   -1.43   18.27
   7  -6   3  459.27   40.74
   7  -6   3  500.07   35.37
   7  -5  -6   81.03   40.59
   7  -5  -6  -28.45   53.79
  -7   5   6   78.60   51.36
   7  -5  -5  416.15   30.18
   7  -5  -5  393.24   33.99
  -7   5   5  445.76   34.87
   7  -5  -4   46.19   40.10
   7  -5  -4   35.80   25.53
  -7   5   4  -13.32   27.03
   7  -5  -3  103.27   26.36
   7  -5  -3  102.66   24.11
  -7   5   3   97.03   41.70
   7  -5  -2   67.36   26.97
   7  -5  -2   60.03   21.82
  -7   5   2  106.97   23.97
   7  -5  -1  335.04   49.41
   7  -5  -1  292.33   36.61
  -7   5   1  364.46   24.98
   7  -5   0  130.67   29.74
   7  -5   0  181.17   30.77
  -7   5   0  124.78   33.56
   7  -5   1    2.23   28.48
   7  -5   1   23.20   27.10
  -7   5  -1   27.26   28.94
   7  -5   2  -36.25   47.47
   7  -5   2  -13.45   15.92
  -7   5  -2   14.78   16.11
   7  -5   3  208.50   33.16
   7  -5   3  189.64   25.13
  -7   5  -3  191.36   25.38
   7  -5   4   53.79   31.46
   7  -5   5   -0.28   32.37
   7  -5   6  407.88   63.30
   7  -4  -8    5.45   22.80
   7  -4  -8  101.42   36.01
  -7   4   8   57.51   34.09
   7  -4  -7  -22.78   22.08
   7  -4  -7   -2.88   54.44
  -7   4   7  -11.39   30.76
   7  -4  -6 1080.42   55.72
   7  -4  -6 1139.54   49.46
  -7   4   6 1123.93   46.49
   7  -4  -5   20.40   22.78
   7  -4  -5   61.17   27.97
  -7   4   5   30.12   45.59
   7  -4  -4  -48.08   22.13
   7  -4  -4    1.45   40.01
  -7   4   4  -34.44   24.38
   7  -4  -3  264.14   25.22
   7  -4  -3  186.53   38.12
  -7   4   3  247.88   25.51
   7  -4  -2   33.86   23.21
   7  -4  -2   37.91   19.96
  -7   4   2   98.00   34.51
   7  -4  -1   35.19   24.08
   7  -4  -1    1.50   17.58
  -7   4   1   14.09   19.28
   7  -4   0  -40.59   40.37
   7  -4   0   38.67   16.15
  -7   4   0   19.33   17.69
   7  -4   1  134.52   27.49
   7  -4   1  127.23   26.00
  -7   4  -1  152.88   17.10
   7  -4   2   50.64   26.88
   7  -4   2   81.22   14.85
  -7   4  -2   69.33   23.23
   7  -4   3  -13.30   26.40
   7  -4   3   13.82   19.40
  -7   4  -3   12.95   20.01
   7  -4   4   71.92   47.17
   7  -4   4   10.58   15.03
   7  -4   5   32.40   31.16
   7  -4   6  622.99   39.12
   7  -4   7  356.40   39.39
  -7   4  -7  400.19   41.04
   7  -3  -9  253.22   38.95
   7  -3  -9  271.54   41.90
  -7   3   9  332.36   39.31
   7  -3  -8   10.61   20.86
   7  -3  -8  -60.78   32.96
  -7   3   8   30.01   31.81
   7  -3  -7   17.26   20.96
   7  -3  -7   52.39   31.21
  -7   3   7   83.17   29.86
   7  -3  -6  431.01   40.16
   7  -3  -6  464.88   34.66
  -7   3   6  440.64   33.60
   7  -3  -5   61.31   20.42
   7  -3  -5   25.86   40.90
  -7   3   5   24.24   25.40
   7  -3  -4   85.64   20.47
   7  -3  -4   85.27   23.89
  -7   3   4  100.21   24.08
   7  -3  -3   25.17   33.22
   7  -3  -3   20.68   21.28
  -7   3   3   39.71   21.74
   7  -3  -2  845.45   30.31
   7  -3  -2  867.89   29.50
  -7   3   2  869.34   30.20
   7  -3  -1  530.66   27.41
   7  -3  -1  529.32   23.51
  -7   3   1  525.12   22.72
   7  -3   0   39.21   22.29
   7  -3   0   51.93   16.02
  -7   3   0   97.19   26.05
   7  -3   1  829.80   51.79
  -7   3  -1  910.01   34.57
   7  -3   2  570.32   31.08
   7  -3   2  575.81   17.54
  -7   3  -2  595.50   17.88
   7  -3   3   29.39   25.26
   7  -3   3   44.49   10.27
  -7   3  -3   54.26   10.57
   7  -3   4  272.71   29.78
  -7   3  -4  243.34   30.02
   7  -3   5   54.08   27.12
  -7   3  -5   22.63   28.43
   7  -3   6 1382.66   75.51
  -7   3  -6 1453.26   53.84
   7  -3   7  175.43   33.95
  -7   3  -7  149.18   35.84
  -7   3  -8  824.41   48.34
   7  -2  -9  149.06   36.73
   7  -2  -9  187.11   59.80
  -7   2   9  145.59   33.70
   7  -2  -8  101.58   20.45
   7  -2  -8   88.99   33.57
  -7   2   8   99.90   31.23
   7  -2  -7   20.70   29.83
   7  -2  -7   36.15   30.35
  -7   2   7    0.57   28.10
   7  -2  -6  110.29   18.68
   7  -2  -6  163.81   46.76
  -7   2   6  137.19   27.31
   7  -2  -5   17.07   27.04
   7  -2  -5   10.01   24.47
  -7   2   5    3.69   23.90
   7  -2  -4   45.92   16.97
   7  -2  -4   30.62   22.65
  -7   2   4   69.90   22.40
   7  -2  -3  273.32   19.62
   7  -2  -3  259.28   22.61
  -7   2   3  324.02   23.23
   7  -2  -2  448.23   22.32
   7  -2  -2  443.13   22.46
  -7   2   2  429.22   36.55
   7  -2  -1   59.58   30.22
   7  -2  -1   61.65   16.15
  -7   2   1   47.99   16.99
   7  -2   0  770.88   42.56
   7  -2   0  731.96   32.03
  -7   2   0  771.86   33.69
   7  -2   1 1030.30   32.48
   7  -2   1 1046.58   23.16
  -7   2  -1 1036.11   33.38
   7  -2   2 1128.64   36.81
   7  -2   2 1213.93   30.63
  -7   2  -2 1254.72   23.26
   7  -2   310166.13  257.54
   7  -2   3 9813.26  212.24
  -7   2  -310142.32  259.22
  -7   2  -310238.95  204.70
   7  -2   4 2440.66   85.97
  -7   2  -4 2691.70   63.88
  -7   2  -4 2509.00   37.18
   7  -2   5  227.46   27.34
  -7   2  -5  229.64   29.90
   7  -2   6 1037.39   43.59
  -7   2  -6 1012.53   43.45
  -7   2  -7  726.29   41.90
  -7   2  -8   76.37   33.42
  -7   2  -9  274.78   63.14
   7  -1 -10   43.53   59.81
  -7   1  10   80.00   34.25
   7  -1  -9   11.30   16.04
   7  -1  -9   78.84   34.17
  -7   1   9   44.14   31.62
   7  -1  -8   30.83   24.56
   7  -1  -8   29.06   30.98
  -7   1   8   12.92   29.52
   7  -1  -7 1471.77   31.03
   7  -1  -7 1382.07   51.26
  -7   1   7 1456.92   73.14
   7  -1  -6  621.67   30.05
   7  -1  -6  668.26   55.79
  -7   1   6  606.62   53.13
   7  -1  -5   11.78   13.30
   7  -1  -5    3.78   24.13
  -7   1   5    9.39   23.39
   7  -1  -4 1007.47   23.91
   7  -1  -4 1019.06   35.15
  -7   1   4 1005.06   34.02
   7  -1  -3   83.79   14.86
   7  -1  -3  127.50   20.70
  -7   1   3  115.33   33.50
   7  -1  -2 1475.26   31.66
   7  -1  -2 1551.52   35.87
  -7   1   2 1483.69   35.35
   7  -1  -1  377.63   31.31
   7  -1  -1  435.58   30.78
  -7   1   1  445.09   19.95
   7  -1   0  342.27   19.90
   7  -1   0  314.01   16.51
  -7   1   0  348.99   26.78
   7  -1   1  213.75   20.39
   7  -1   1  208.45   21.28
  -7   1  -1  262.46   22.25
   7  -1   2 4049.74   81.98
   7  -1   2 3978.83   70.96
  -7   1  -2 3663.41  101.24
  -7   1  -2 4203.03   74.59
   7  -1   3   66.69   19.94
  -7   1  -3   -7.70   21.09
  -7   1  -3   37.82   13.03
   7  -1   4  -10.16   35.47
  -7   1  -4   15.32   22.52
  -7   1  -4    3.24    4.84
   7  -1   5 1515.13   44.52
  -7   1  -5 1461.97   66.20
  -7   1  -6  210.55   28.21
  -7   1  -7   14.97   28.05
  -7   1  -8  239.74   53.85
  -7   1  -9  247.09   59.21
  -7   1 -10  310.51   65.65
   7   0 -10   28.43   59.37
  -7   0  10  117.09   33.28
   7   0  -9   88.39   32.72
  -7   0   9   58.35   31.78
   7   0  -8   61.86   17.84
   7   0  -8   42.57   31.99
  -7   0   8  -35.31   48.03
   7   0  -7 1450.70   52.22
  -7   0   7 1491.68   49.19
   7   0  -6 1372.76   70.76
  -7   0   6 1373.35   44.02
   7   0  -5 7781.92  158.73
   7   0  -5 7366.49  221.19
  -7   0   5 7527.65  176.34
   7   0  -4  580.60   16.38
   7   0  -4  581.84   45.31
  -7   0   4  501.92   28.34
   7   0  -3  965.28   21.14
   7   0  -3  946.98   46.55
  -7   0   3  959.39   30.65
   7   0  -2  132.18   13.77
   7   0  -2  133.96   18.40
  -7   0   2   91.16   18.33
   7   0  -1 1072.85   24.88
   7   0  -1 1078.03   26.77
  -7   0   1 1109.72   27.76
   7   0   0 1349.20   43.54
   7   0   0 1300.08   38.18
  -7   0   0 1402.04   28.22
   7   0   1 1305.68   31.91
   7   0   1 1268.79   23.31
  -7   0  -1 1338.79   30.93
  -7   0  -1 1378.45   25.30
   7   0   2   36.93   16.94
  -7   0  -2   40.76   17.59
  -7   0  -2   17.93    9.95
   7   0   3 1772.50   41.96
  -7   0  -3 1886.38   58.91
  -7   0  -3 1861.34   31.23
  -7   0  -4  152.22   21.36
  -7   0  -4  150.81    8.21
  -7   0  -4  133.17    5.34
  -7   0  -5 1335.09   40.47
  -7   0  -6  457.11   30.71
  -7   0  -7  172.88   28.62
  -7   0  -8 -123.86   51.19
  -7   0  -9  907.75   47.48
  -7   0 -10  137.59   37.42
   7   1 -10  296.26   39.77
  -7  -1  10  295.19   35.98
   7   1  -9  148.17   34.03
  -7  -1   9  120.95   31.26
   7   1  -8  512.90   36.38
  -7  -1   8  496.22   35.39
   7   1  -7   44.51   27.68
  -7  -1   7   43.13   26.75
   7   1  -6 2308.94   31.08
   7   1  -6 2437.09   61.70
  -7  -1   6 2442.57   60.56
   7   1  -5 1011.23   22.09
   7   1  -5 1019.05   36.49
  -7  -1   5 1101.58   56.48
   7   1  -4  666.20   29.76
  -7  -1   4  732.88   29.50
   7   1  -3 4711.29   73.19
   7   1  -3 4813.59   98.30
  -7  -1   3 4888.85   98.13
   7   1  -2  110.73   11.33
   7   1  -2  150.14   17.87
  -7  -1   2  112.40   18.43
   7   1  -1   37.31   18.76
  -7  -1   1   39.71   15.72
   7   1   0   28.56   12.83
  -7  -1   0   25.24   20.79
  -7  -1   0   68.92   13.48
   7   1   1   29.66   14.50
  -7  -1  -1   24.95   14.17
  -7  -1  -1   43.33   18.97
  -7  -1  -2  934.67   25.82
  -7  -1  -2  992.69   18.43
  -7  -1  -3  184.13   19.17
  -7  -1  -3  191.61    9.18
  -7  -1  -3  166.61   13.69
  -7  -1  -4  -37.31   33.19
  -7  -1  -4   36.32    5.49
  -7  -1  -5  396.80   26.21
  -7  -1  -6  687.60   33.45
  -7  -1  -7   98.57   44.90
  -7  -1  -8  144.56   30.06
  -7  -1  -9  146.60   32.55
  -7  -1 -10  130.21   36.46
  -7  -2  10   13.51   31.59
  -7  -2   9  284.46   33.36
  -7  -2   8  431.55   35.06
  -7  -2   7   65.78   28.22
  -7  -2   6  315.16   45.94
  -7  -2   5 1512.93   42.59
  -7  -2   4  -10.27   20.56
  -7  -2   3 3693.08   72.63
  -7  -2   2 1772.15   38.83
  -7  -2   1   64.55    9.95
  -7  -2   1   69.16   15.62
  -7  -2   0  139.51   12.00
  -7  -2   0   87.78   14.51
  -7  -2  -1 7972.52  173.96
  -7  -2  -1 7713.55  149.28
  -7  -2  -2   66.20   24.16
  -7  -2  -2   54.03   10.56
  -7  -2  -2   33.04   16.81
  -7  -2  -3    1.98   16.62
  -7  -2  -3   26.35   13.74
  -7  -2  -3   17.18   13.89
  -7  -2  -4    0.30   18.33
  -7  -2  -4    6.02    6.85
  -7  -2  -4   -6.69   10.90
  -7  -2  -5   79.38   21.28
  -7  -2  -5   44.88    4.52
  -7  -2  -6 1554.97   65.99
  -7  -2  -7  274.93   28.46
  -7  -2  -8   59.99   28.88
  -7  -2  -9  202.99   33.25
  -7  -2 -10  294.52   36.88
  -7  -2 -11  425.77   67.63
  -7  -3  10  -15.37   32.09
  -7  -3   9   44.61   30.95
  -7  -3   8   34.86   28.54
  -7  -3   7  858.88   38.93
  -7  -3   6    6.48   24.76
  -7  -3   5    8.31   23.24
  -7  -3   4 1719.09   45.32
  -7  -3   3  285.20   24.39
  -7  -3   2  679.45   39.29
  -7  -3   1  406.95   16.79
  -7  -3   1  392.49   20.28
  -7  -3   0  273.20   18.68
  -7  -3   0  308.36   17.44
  -7  -3   0  285.14   17.33
  -7  -3  -1 1022.53   21.64
  -7  -3  -1 1073.02   33.67
  -7  -3  -2   19.33   13.37
  -7  -3  -2   26.01   18.95
  -7  -3  -2    0.26   10.96
  -7  -3  -3  816.93   23.95
  -7  -3  -3  803.18   17.11
  -7  -3  -3  821.26   16.75
  -7  -3  -4   48.01   18.88
  -7  -3  -4  107.59   14.64
  -7  -3  -4   97.13   14.51
  -7  -3  -5 1009.68   31.74
  -7  -3  -5  911.78   20.02
  -7  -3  -5  978.60   20.31
  -7  -3  -6  109.51   23.32
  -7  -3  -6   63.36    9.17
  -7  -3  -6   70.09    8.71
  -7  -3  -7   -3.24   24.33
  -7  -3  -8  426.68   32.73
  -7  -3  -9  -25.19   30.41
  -7  -3 -10  258.78   36.65
  -7  -3 -11  391.74   68.28
  -7  -4  10  742.98   43.88
  -7  -4   9   22.32   30.98
  -7  -4   8  115.68   31.46
  -7  -4   7 1594.79   77.85
  -7  -4   6  567.51   34.57
  -7  -4   5  666.24   50.90
  -7  -4   4   13.20   22.63
  -7  -4   3   61.58   35.52
  -7  -4   2 3003.74   61.60
  -7  -4   2 2846.87   59.92
  -7  -4   1  299.42   13.62
  -7  -4   1  285.78   33.23
  -7  -4   1  359.29   32.45
  -7  -4   0 1613.30   32.96
  -7  -4   0 1734.75   36.21
  -7  -4   0 1612.55   34.15
  -7  -4  -1  148.23   12.16
  -7  -4  -1  152.90   25.32
  -7  -4  -1  167.87   24.65
  -7  -4  -2  528.98   17.95
  -7  -4  -2  545.79   17.96
  -7  -4  -2  546.00   17.73
  -7  -4  -3  570.93   31.35
  -7  -4  -3  566.09   16.88
  -7  -4  -3  519.92   25.05
  -7  -4  -4  103.29   18.36
  -7  -4  -4   78.54   18.63
  -7  -4  -4   72.58   17.60
  -7  -4  -5  171.90   22.68
  -7  -4  -5  203.95   17.67
  -7  -4  -5  171.17   10.83
  -7  -4  -6  616.55   30.57
  -7  -4  -6  617.76   19.48
  -7  -4  -6  612.83   19.97
  -7  -4  -7  148.94   26.89
  -7  -4  -7  124.66    8.10
  -7  -4  -7  133.45    8.31
  -7  -4  -8   19.76   27.69
  -7  -4  -9 1998.14   64.02
  -7  -4 -10  590.24   43.23
  -7  -4 -11   47.97   59.17
  -7  -5  10   53.11   55.47
  -7  -5  10   65.66   35.40
  -7  -5   9   73.05   32.22
  -7  -5   8  218.61   35.35
  -7  -5   7   94.06   50.72
  -7  -5   6   99.23   28.23
  -7  -5   6   83.44   29.24
  -7  -5   5  543.77   52.38
  -7  -5   5  583.50   33.23
  -7  -5   4 2092.13   54.72
  -7  -5   4 2047.05   53.55
  -7  -5   3 1023.00   35.39
  -7  -5   3  973.35   33.99
  -7  -5   2  362.34    7.94
  -7  -5   2  380.88   25.38
  -7  -5   2  405.33   24.53
  -7  -5   1   -6.64   10.91
  -7  -5   1   32.42   19.31
  -7  -5   1   -2.46   18.54
  -7  -5   0   88.97   15.35
  -7  -5   0   70.85   31.63
  -7  -5   0   93.50   17.78
  -7  -5  -1  477.12   15.93
  -7  -5  -1  469.39   20.96
  -7  -5  -1  492.17   20.45
  -7  -5  -2   45.10   21.81
  -7  -5  -2   28.00   15.07
  -7  -5  -3  389.59   18.41
  -7  -5  -3  399.22   27.47
  -7  -5  -4 1284.57   31.36
  -7  -5  -4 1269.28   26.58
  -7  -5  -5  590.34   26.03
  -7  -5  -5  588.04   17.40
  -7  -5  -6  354.03   25.69
  -7  -5  -6  327.74   14.01
  -7  -5  -7   16.33   23.51
  -7  -5  -7   24.20   16.96
  -7  -5  -8  536.41   32.58
  -7  -5  -8  405.18   20.76
  -7  -5  -9  670.20   39.86
  -7  -5 -10  911.95   71.01
  -7  -6   9  221.69   37.53
  -7  -6   9  109.20   36.56
  -7  -6   8  133.06   51.85
  -7  -6   8   83.29   33.14
  -7  -6   7    8.53   29.98
  -7  -6   7   26.94   29.52
  -7  -6   6  559.30   36.77
  -7  -6   6  517.63   36.91
  -7  -6   5  804.97   60.20
  -7  -6   5  852.70   38.84
  -7  -6   4   43.60   26.18
  -7  -6   4  144.14   42.18
  -7  -6   3  851.74   36.58
  -7  -6   3  848.77   34.23
  -7  -6   2    3.75    5.59
  -7  -6   2    4.63   37.59
  -7  -6   2   23.34   35.42
  -7  -6   1  207.44    8.33
  -7  -6   1  248.49   23.17
  -7  -6   1  178.92   22.65
  -7  -6   0  123.40   15.56
  -7  -6   0  104.99   19.79
  -7  -6  -1 1438.90   35.10
  -7  -6  -1 1423.67   35.30
  -7  -6  -2  -18.34   12.89
  -7  -6  -2    4.42   16.70
  -7  -6  -3 1914.53   38.57
  -7  -6  -3 1865.71   54.31
  -7  -6  -4  981.28   28.61
  -7  -6  -4  903.05   25.89
  -7  -6  -5  837.18   30.31
  -7  -6  -5  707.38   34.38
  -7  -6  -6 1192.90   39.25
  -7  -6  -6 1115.16   26.43
  -7  -6  -7   52.73   26.17
  -7  -6  -7   45.74   13.85
  -7  -6  -8  250.36   30.39
  -7  -6  -8  182.88   15.46
  -7  -6  -9   79.54   31.46
  -7  -6 -10  141.15   33.92
  -7  -7   8   86.91   33.58
  -7  -7   8   25.21   33.83
  -7  -7   7  484.80   39.59
  -7  -7   7  465.99   39.54
  -7  -7   6  719.82   65.26
  -7  -7   6  743.73   42.11
  -7  -7   5   40.04   28.79
  -7  -7   5    4.68   46.23
  -7  -7   4  162.10   29.96
  -7  -7   4  214.54   29.46
  -7  -7   3   28.86   42.44
  -7  -7   3   39.60   25.91
  -7  -7   2   82.42   25.12
  -7  -7   2   71.28   23.64
  -7  -7   1  203.28   13.85
  -7  -7   1  223.55   39.55
  -7  -7   0  248.04   24.50
  -7  -7  -1  936.17   31.44
  -7  -7  -2  700.88   27.81
  -7  -7  -3 2159.12   47.65
  -7  -7  -4  710.63   40.80
  -7  -7  -5  432.17   22.20
  -7  -7  -6  176.48   29.51
  -7  -7  -7  403.07   21.28
   7   7   8   21.77   17.41
  -7  -7  -8   53.49   27.19
   7   7   9  402.35   22.07
  -7  -7  -9  352.65   32.34
  -7  -8   7  273.20   63.33
  -7  -8   7  357.35   38.45
  -7  -8   6  643.49   43.19
  -7  -8   6  723.11   44.10
  -7  -8   5 1644.56   60.47
  -7  -8   5 1706.71   58.33
  -7  -8   4  642.54   61.19
  -7  -8   4  632.68   37.58
  -7  -8   3  143.01   31.05
  -7  -8   3  224.42   47.49
  -7  -8   2  294.20    8.61
  -7  -8   2  353.45   30.60
  -7  -8   1 1523.92   68.93
  -7  -8   0   -4.29   23.34
  -7  -8  -1   94.67   23.78
  -7  -8  -2   42.67   21.96
  -7  -8  -3 1194.52   37.66
  -7  -8  -4  818.04   31.19
  -7  -8  -5 1813.02   45.05
   7   8   6   14.00   20.30
  -7  -8  -6   12.38   32.86
   7   8   7   84.05   21.52
  -7  -8  -7   87.80   20.45
   7   8   8  587.15   28.01
  -7  -8  -8  537.16   40.57
   7   8   9   53.59   35.56
  -7  -8  -9   66.65   20.48
  -7  -9   6  180.53   37.10
  -7  -9   6  156.02   58.99
  -7  -9   5 1314.39   86.67
  -7  -9   5 1288.20   54.20
  -7  -9   4   -6.71   32.10
  -7  -9   4   54.92   31.85
  -7  -9   3  609.76   60.97
  -7  -9   2  527.50   35.90
  -7  -9   1  656.90   56.85
  -7  -9   0  294.70   30.22
  -7  -9  -1   50.01   25.48
  -7  -9  -2   15.82   25.14
  -7  -9  -3  357.33   28.87
  -7  -9  -4   44.98   23.87
   7   9   5   98.11   24.06
  -7  -9  -5   58.71   23.80
   7   9   6  801.57   34.51
  -7  -9  -6  843.95   35.29
   7   9   7    2.17   38.72
  -7  -9  -7   17.90   22.61
  -7 -10   4  153.47   36.76
  -7 -10   2   80.94   32.68
  -7 -10   1   42.10   48.71
  -7 -10   0  -26.99   29.27
  -7 -10  -1  584.44   37.71
  -7 -10  -2  357.77   52.92
  -7 -10  -3  437.12   33.75
   7  10   4   48.87   28.16
  -7 -10  -4   87.70   27.56
   7  10   5  699.91   37.45
  -7 -10  -5  744.15   36.86
   7  10   6   21.76   44.49
  -7 -10  -6   44.34   27.50
  -7 -11   2  653.25   45.62
  -7 -11   1  235.93   60.37
  -7 -11   0   42.61   33.31
  -7 -11  -1   89.14   53.88
  -7 -11  -2  536.67   40.00
  -7 -11  -3  699.82   41.39
   8  -5  -3   80.68   28.96
   8  -5  -3   52.34   26.84
  -8   5   3   47.00   27.97
   8  -5  -2   66.33   29.58
   8  -5  -2   31.03   24.63
  -8   5   2  103.53   26.62
   8  -5  -1   63.61   49.23
   8  -5  -1   69.99   22.86
  -8   5   1   26.90   23.70
   8  -5   0   33.78   31.17
   8  -5   0   55.27   21.59
  -8   5   0   24.82   21.92
   8  -5   1  908.48   45.30
   8  -5   1  958.23   32.39
  -8   5  -1  966.21   31.18
   8  -5   2  175.52   33.65
   8  -5   2  125.58   30.16
  -8   5  -2  126.09   19.74
   8  -4  -6  975.60   39.31
   8  -4  -6  937.92   46.64
  -8   4   6  909.50   70.89
   8  -4  -5  212.00   45.05
   8  -4  -5  160.57   30.51
  -8   4   5  206.96   30.80
   8  -4  -4  875.25   38.40
   8  -4  -4  968.74   38.83
  -8   4   4  965.05   40.20
   8  -4  -3  128.31   44.38
   8  -4  -3  215.37   39.97
  -8   4   3  151.00   26.56
   8  -4  -2   75.30   26.88
  -8   4   2   88.47   23.55
   8  -4  -1   94.46   28.27
   8  -4  -1  109.73   33.71
  -8   4   1  133.14   36.28
   8  -4   0   77.70   28.77
   8  -4   0   89.94   18.78
  -8   4   0   62.72   20.87
   8  -4   1  111.91   29.04
   8  -4   1   87.04   17.77
  -8   4  -1   76.60   18.45
   8  -4   2  771.86   62.43
   8  -4   2  710.99   34.50
  -8   4  -2  778.50   35.33
   8  -4   3   73.02   30.85
   8  -4   4  337.95   36.92
   8  -4   5  -23.77   32.69
   8  -3  -7  938.42   36.99
   8  -3  -7  975.85   49.34
  -8   3   7  906.63   46.36
   8  -3  -6  404.06   28.02
   8  -3  -6  367.65   57.37
  -8   3   6  398.71   35.68
   8  -3  -5  114.42   37.83
   8  -3  -5    2.04   44.34
  -8   3   5  100.28   46.74
   8  -3  -4   31.80   22.19
   8  -3  -4    1.62   24.02
  -8   3   4   17.81   26.06
   8  -3  -3  801.57   33.49
   8  -3  -3  759.12   32.69
  -8   3   3  872.27   35.15
   8  -3  -2  395.16   45.75
   8  -3  -2  457.98   25.62
  -8   3   2  503.96   43.20
   8  -3  -1 1157.79   39.39
   8  -3  -1 1071.35   32.00
  -8   3   1 1164.03   33.66
   8  -3   0   48.77   24.06
   8  -3   0   19.82   27.69
  -8   3   0   -3.66   17.95
   8  -3   1   61.53   42.17
   8  -3   1   44.09   15.57
  -8   3  -1   53.40   16.68
   8  -3   2    2.37   25.73
   8  -3   2   -1.09   20.91
  -8   3  -2    0.07   13.59
   8  -3   3   84.45   28.94
   8  -3   3   80.91   18.41
  -8   3  -3   93.98   12.61
   8  -3   4  544.78   58.83
   8  -3   5  253.44   32.64
   8  -3   6  294.69   36.00
  -8   3  -6  282.90   37.58
   8  -2  -8   74.51   20.24
   8  -2  -8  102.83   35.92
  -8   2   8   78.71   33.44
   8  -2  -7  178.14   21.12
   8  -2  -7  222.36   55.80
  -8   2   7  122.51   32.85
   8  -2  -6  421.31   36.49
   8  -2  -6  380.91   34.89
  -8   2   6  326.40   34.12
   8  -2  -5   19.54   18.51
   8  -2  -5   38.22   25.81
  -8   2   5   45.96   26.58
   8  -2  -4  383.39   24.01
   8  -2  -4  435.12   28.47
  -8   2   4  432.78   29.35
   8  -2  -3  205.68   21.58
   8  -2  -3  192.52   23.65
  -8   2   3  132.21   39.55
   8  -2  -2 1255.21   35.98
   8  -2  -2 1231.64   35.67
  -8   2   2 1303.28   37.00
   8  -2  -1   -6.19   33.52
   8  -2  -1   26.45   17.75
  -8   2   1   20.79   18.72
   8  -2   0   26.50   21.06
   8  -2   0  -29.45   25.39
  -8   2   0    4.23   16.60
   8  -2   1   32.34   22.21
   8  -2   1   46.40   14.01
  -8   2  -1   18.52   14.73
   8  -2   2  564.68   31.18
   8  -2   2  545.54   17.17
  -8   2  -2  575.42   18.57
   8  -2   3  591.60   32.76
  -8   2  -3  528.40   15.30
   8  -2   4  107.34   27.17
  -8   2  -4  116.18   27.74
   8  -2   5  -20.85   28.14
  -8   2  -5   12.45   27.98
   8  -2   6   71.33   30.84
  -8   2  -6   41.68   31.65
  -8   2  -7   16.11   33.44
   8  -1  -8  191.02   26.40
   8  -1  -8  198.47   60.56
  -8   1   8  195.41   35.01
   8  -1  -7   40.90   15.58
   8  -1  -7   84.89   31.89
  -8   1   7   77.86   30.05
   8  -1  -6  196.38   27.03
   8  -1  -6  249.32   31.25
  -8   1   6  220.97   31.63
   8  -1  -5  790.13   24.40
   8  -1  -5  844.48   37.59
  -8   1   5  901.66   37.58
   8  -1  -4 1456.06   47.26
   8  -1  -4 1588.84   45.00
  -8   1   4 1543.40   45.85
   8  -1  -3   29.37   16.48
   8  -1  -3   -1.02   21.14
  -8   1   3   49.01   21.87
   8  -1  -2  125.04   18.45
   8  -1  -2  110.80   20.21
  -8   1   2  143.77   21.11
   8  -1  -1 1222.61   48.81
   8  -1  -1 1338.75   47.05
  -8   1   1 1334.82   47.83
   8  -1   0  936.12   29.91
   8  -1   0  899.73   25.15
  -8   1   0  910.88   25.89
   8  -1   1   50.79   21.04
   8  -1   1   50.36   20.69
  -8   1  -1   46.80   14.50
   8  -1   2  548.72   44.71
  -8   1  -2  503.64   27.67
  -8   1  -2  485.21   16.36
   8  -1   3  193.52   24.98
  -8   1  -3  257.95   41.09
  -8   1  -3  216.87   11.47
   8  -1   4  -19.00   24.59
  -8   1  -4   -7.32   24.53
  -8   1  -5  684.21   36.10
  -8   1  -6  716.48   39.62
  -8   1  -7 1032.30   72.86
  -8   1  -8  363.53   38.37
   8   0  -9   50.84   58.59
  -8   0   9  101.90   34.83
   8   0  -8  696.80   45.05
  -8   0   8  585.89   41.25
   8   0  -7   37.40   11.50
   8   0  -7   56.31   31.55
  -8   0   7   15.65   29.53
   8   0  -6   10.59   19.05
   8   0  -6    8.19   28.83
  -8   0   6   46.33   43.79
   8   0  -5  443.63   16.21
   8   0  -5  429.03   31.48
  -8   0   5  435.94   49.12
   8   0  -4  111.93   13.97
   8   0  -4  162.09   24.63
  -8   0   4  160.55   24.59
   8   0  -3   80.23   22.82
   8   0  -3   72.16   21.40
  -8   0   3   70.46   21.34
   8   0  -2  220.79   16.62
   8   0  -2  247.29   34.30
  -8   0   2  232.25   34.54
   8   0  -1  104.01   26.91
   8   0  -1   70.40   16.82
  -8   0   1   84.90   17.33
   8   0   0 2180.12   44.99
   8   0   0 2098.84   40.39
  -8   0   0 2191.31   41.53
   8   0   1  499.30   22.89
  -8   0  -1  519.83   23.47
  -8   0  -1  520.09   17.85
   8   0   2  120.61   32.12
  -8   0  -2   75.05   20.36
  -8   0  -2   80.44   18.37
   8   0   3  920.30   32.32
  -8   0  -3  869.97   31.78
  -8   0  -3  877.13   16.78
  -8   0  -4   -9.64   22.76
  -8   0  -4    7.12    5.94
  -8   0  -4    8.16    5.66
  -8   0  -5  258.81   27.88
  -8   0  -6  815.35   38.54
  -8   0  -7  771.09   63.79
  -8   0  -8  186.82   35.11
  -8   0  -9  628.13   45.22
  -8  -1   9   65.96   33.60
   8   1  -8  410.99   38.84
  -8  -1   8  448.81   37.76
   8   1  -7 1125.58   48.00
  -8  -1   7 1144.03   71.12
   8   1  -6  353.24   33.12
  -8  -1   6  412.93   32.59
   8   1  -5  336.85   17.37
   8   1  -5  372.41   30.03
  -8  -1   5  350.18   29.70
   8   1  -4 7237.99  146.69
   8   1  -4 7505.09  177.42
  -8  -1   4 7171.48  169.54
   8   1  -3  886.92   19.60
   8   1  -3  934.05   32.33
  -8  -1   3  929.54   31.45
   8   1  -2  301.11   22.62
  -8  -1   2  320.59   21.68
   8   1  -1 2033.24   36.29
  -8  -1   1 2079.14   42.85
   8   1   0 2207.52   41.89
  -8  -1   0 2204.15   42.01
  -8  -1   0 2220.30   41.45
   8   1   1 1044.73   27.78
  -8  -1  -1  985.25   26.99
  -8  -1  -1 1002.75   33.07
  -8  -1  -2 2457.95   51.80
  -8  -1  -2 2576.58   40.63
  -8  -1  -3  379.64   22.97
  -8  -1  -3  374.13   12.11
  -8  -1  -3  343.39   11.61
  -8  -1  -4  837.25   49.20
  -8  -1  -4  870.81   13.72
  -8  -1  -4  793.07   17.48
  -8  -1  -5  205.03   24.82
  -8  -1  -6  -10.38   25.57
  -8  -1  -7  154.13   50.38
  -8  -1  -8  959.46   47.29
  -8  -1  -9    1.71   34.61
  -8  -2   9  -15.78   32.77
  -8  -2   8   21.60   31.61
  -8  -2   7  229.55   52.14
  -8  -2   6   25.50   27.64
  -8  -2   5   17.64   25.64
  -8  -2   4  366.06   42.68
  -8  -2   3  844.62   30.80
  -8  -2   2   40.34   18.53
  -8  -2   1 1372.95   32.82
  -8  -2   0  613.32   18.25
  -8  -2   0  556.10   20.77
  -8  -2  -1  896.78   23.57
  -8  -2  -1  902.89   21.53
  -8  -2  -2  171.12   16.90
  -8  -2  -2  136.84   19.88
  -8  -2  -2  117.57   19.20
  -8  -2  -3  956.31   28.97
  -8  -2  -3  967.20   18.61
  -8  -2  -3  901.22   24.91
  -8  -2  -4   19.40   20.96
  -8  -2  -4   12.61    7.89
  -8  -2  -4   21.06    7.64
  -8  -2  -5   15.66   23.16
  -8  -2  -5    9.57    8.02
  -8  -2  -5    8.63    4.84
  -8  -2  -6  370.55   48.06
  -8  -2  -7  -37.41   27.83
  -8  -2  -8   14.36   29.69
  -8  -2  -9  969.30   48.41
  -8  -3   9   53.72   33.82
  -8  -3   8 1422.40   55.66
  -8  -3   7  147.53   32.45
  -8  -3   6  238.02   30.66
  -8  -3   5   31.68   41.20
  -8  -3   4 2413.81   58.99
  -8  -3   3  106.21   22.13
  -8  -3   2 1648.17   59.03
  -8  -3   1   23.80    9.70
  -8  -3   1   27.79   18.70
  -8  -3   0  822.69   18.69
  -8  -3   0  836.45   25.09
  -8  -3   0  751.46   24.30
  -8  -3  -1   68.06   21.66
  -8  -3  -1   80.89   14.97
  -8  -3  -1   78.17   14.15
  -8  -3  -2   33.33   24.60
  -8  -3  -2   64.98   13.31
  -8  -3  -2   39.11   12.35
  -8  -3  -3   15.31   27.57
  -8  -3  -3    0.47   11.05
  -8  -3  -3   -2.03   10.34
  -8  -3  -4 2841.26   61.01
  -8  -3  -4 2732.48   49.44
  -8  -3  -4 2724.02   39.96
  -8  -3  -5  250.10   25.19
  -8  -3  -5  210.03   14.21
  -8  -3  -5  221.25    9.15
  -8  -3  -6   89.48   40.59
  -8  -3  -6   43.27    7.92
  -8  -3  -6   39.14    7.91
  -8  -3  -7   72.76   27.28
  -8  -3  -8  144.87   31.71
  -8  -3  -9  -21.88   31.83
  -8  -3 -10  167.98   38.38
  -8  -4   9 1077.17   51.25
  -8  -4   8  202.73   34.57
  -8  -4   7   22.26   30.16
  -8  -4   6  146.84   29.97
  -8  -4   5  125.39   28.65
  -8  -4   4  157.64   27.06
  -8  -4   2  919.90   32.24
  -8  -4   2  929.08   31.99
  -8  -4   1  602.73   19.30
  -8  -4   1  653.35   26.00
  -8  -4   1  607.86   25.74
  -8  -4   0  318.18   20.37
  -8  -4   0  377.17   32.93
  -8  -4   0  335.00   20.26
  -8  -4  -1   42.11   12.36
  -8  -4  -1   33.10   16.17
  -8  -4  -1   34.40   15.20
  -8  -4  -2  213.63   15.76
  -8  -4  -2  205.59   15.58
  -8  -4  -2  192.85   24.50
  -8  -4  -3 1105.35   28.40
  -8  -4  -3 1065.07   23.74
  -8  -4  -3 1043.86   22.90
  -8  -4  -4  583.13   24.99
  -8  -4  -4  586.67   16.91
  -8  -4  -4  534.24   16.08
  -8  -4  -5 2009.42   69.13
  -8  -4  -5 1930.50   30.36
  -8  -4  -6  104.98   24.62
  -8  -4  -6   45.13   13.91
  -8  -4  -6   58.98    8.84
  -8  -4  -7  146.48   27.88
  -8  -4  -8  575.06   37.68
  -8  -4  -9  176.98   33.82
  -8  -5   9  206.68   60.42
  -8  -5   8  177.94   36.24
  -8  -5   7  114.87   35.58
  -8  -5   6  473.84   37.74
  -8  -5   6  536.82   38.72
  -8  -5   5  108.55   28.53
  -8  -5   5  102.63   29.14
  -8  -5   4  184.84   27.78
  -8  -5   4  186.44   28.26
  -8  -5   3  115.05   26.21
  -8  -5   3  187.99   41.40
  -8  -5   2   -8.17   22.36
  -8  -5   2   16.09   21.08
  -8  -5   1  955.66   15.52
  -8  -5   1 1056.75   49.97
  -8  -5   1  932.99   31.86
  -8  -5   0   95.17   10.67
  -8  -5   0   83.56   20.04
  -8  -5   0  126.65   31.00
  -8  -5  -1  315.30   23.14
  -8  -5  -1  296.22   20.32
  -8  -5  -1  329.53   31.97
  -8  -5  -2  524.88   28.97
  -8  -5  -2  556.02   32.98
  -8  -5  -2  532.83   32.21
  -8  -5  -3  204.56   17.52
  -8  -5  -3  204.53   16.50
  -8  -5  -3  178.34   16.06
  -8  -5  -4  170.74   32.12
  -8  -5  -4  161.60   15.10
  -8  -5  -4  146.13   22.96
  -8  -5  -5  374.18   42.35
  -8  -5  -5  398.31   16.28
  -8  -5  -5  338.19   24.11
  -8  -5  -6   62.31   25.33
  -8  -5  -6   35.07   12.06
  -8  -5  -6   67.89   11.71
  -8  -5  -7 1310.33   45.76
  -8  -5  -7 1199.90   22.40
  -8  -5  -8   33.42   30.07
  -8  -5  -9  133.62   34.64
  -8  -6   8   18.91   35.55
  -8  -6   8  -29.28   57.66
  -8  -6   7   63.29   56.01
  -8  -6   7   -7.66   32.16
  -8  -6   6  216.21   34.45
  -8  -6   6  177.45   33.89
  -8  -6   5  204.64   51.68
  -8  -6   5  183.89   31.69
  -8  -6   4   30.20   27.35
  -8  -6   4   12.80   26.88
  -8  -6   3  517.14   33.19
  -8  -6   3  513.39   32.25
  -8  -6   2  411.32   29.17
  -8  -6   2  364.88   28.34
  -8  -6   1  300.50   27.04
  -8  -6   1  318.68   25.68
  -8  -6   0 2715.14   42.16
  -8  -6   0 2867.28   64.07
  -8  -6   0 2699.20   59.56
  -8  -6  -1  853.40   20.81
  -8  -6  -1  884.64   45.10
  -8  -6  -1  873.03   43.95
  -8  -6  -2  580.66   20.64
  -8  -6  -2  643.89   24.69
  -8  -6  -2  595.83   24.02
  -8  -6  -3    4.98   16.68
  -8  -6  -3   28.64   16.85
  -8  -6  -3   73.61   16.60
  -8  -6  -4 2792.67   77.44
  -8  -6  -4 2732.05   69.55
  -8  -6  -5  161.09   22.27
  -8  -6  -5  168.70   16.40
  -8  -6  -6  255.61   27.90
  -8  -6  -6  319.90   16.92
  -8  -6  -7  427.38   32.16
  -8  -6  -7  417.99   17.77
  -8  -6  -8  596.60   58.03
  -8  -6  -9  427.80   64.01
  -8  -7   7    6.30   34.33
  -8  -7   7   38.41   34.84
  -8  -7   6  245.93   37.00
  -8  -7   6  197.01   36.04
  -8  -7   5   34.62   32.00
  -8  -7   5   59.01   31.61
  -8  -7   4   16.94   29.59
  -8  -7   4   83.14   47.34
  -8  -7   3  -39.29   46.27
  -8  -7   3   95.11   26.92
  -8  -7   2   55.20   26.74
  -8  -7   2  -70.25   41.95
  -8  -7   1 2130.93   79.44
  -8  -7   1 2011.50   52.82
  -8  -7   0 2316.21   47.77
  -8  -7   0 2460.63   60.81
  -8  -7   0 2450.17   57.95
  -8  -7  -1  232.28   22.97
  -8  -7  -1  254.91   23.82
  -8  -7  -2  318.94   17.43
  -8  -7  -2  338.53   37.21
  -8  -7  -3 3324.36   80.59
  -8  -7  -3 3143.27   67.00
  -8  -7  -4  612.58   39.92
  -8  -7  -4  620.81   25.93
  -8  -7  -5   23.63   21.05
  -8  -7  -5   63.09   29.47
  -8  -7  -6  293.96   28.30
  -8  -7  -6  255.75   19.87
  -8  -7  -7  335.00   49.57
  -8  -7  -7  290.12   30.21
  -8  -8   6 1112.88   86.47
  -8  -8   6 1163.64   56.39
  -8  -8   5   23.77   33.24
  -8  -8   5   27.91   33.08
  -8  -8   4 1341.62   80.90
  -8  -8   4 1265.53   50.65
  -8  -8   3   39.17   30.61
  -8  -8   3    3.69   28.04
  -8  -8   2  533.62   35.89
  -8  -8   2  540.58   54.85
  -8  -8   1   -0.68   13.94
  -8  -8   1   32.73   27.18
  -8  -8   1   29.18   25.49
  -8  -8   0  310.40   13.38
  -8  -8   0  325.47   28.73
  -8  -8  -1  752.99   21.13
  -8  -8  -1  731.82   50.52
  -8  -8  -2  366.26   19.76
  -8  -8  -2  394.41   42.36
  -8  -8  -3  612.68   45.75
  -8  -8  -4   53.09   34.03
  -8  -8  -5  157.02   21.85
  -8  -8  -6   65.75   20.25
  -8  -8  -7  100.08   20.02
  -8  -9   5  295.27   67.31
  -8  -9   5  298.84   63.92
  -8  -9   4   64.06   35.88
  -8  -9   4   72.57   34.17
  -8  -9   3  -16.87   31.70
  -8  -9   3   62.78   31.40
  -8  -9   2   55.43   31.73
  -8  -9   2  122.75   49.60
  -8  -9   1  198.74   30.80
  -8  -9   0   78.75   27.39
  -8  -9  -1  109.45   43.31
  -8  -9  -2   33.13   25.16
  -8  -9  -3  294.25   28.39
  -8  -9  -4  205.09   26.43
  -8  -9  -5  336.93   44.10
  -8  -9  -6   75.86   39.49
  -8 -10   3   55.91   35.41
  -8 -10   3    5.35   35.01
  -8 -10   2  305.82   58.48
  -8 -10   1   65.39   31.07
  -8 -10   0   29.48   28.93
  -8 -10  -1   11.61   28.32
  -8 -10  -2  136.05   30.84
  -8 -10  -3   45.50   27.06
  -8 -10  -4   -3.59   26.64
   9  -3  -4   36.77   41.87
   9  -3  -4   10.39   26.90
  -9   3   4   52.48   28.48
   9  -3  -3   67.96   26.14
   9  -3  -3   94.82   25.13
  -9   3   3   59.92   44.49
   9  -3  -2   57.87   42.12
   9  -3  -2   68.07   22.74
  -9   3   2   37.62   23.63
   9  -3  -1  713.70   35.26
   9  -3  -1  709.31   44.57
  -9   3   1  649.98   45.34
   9  -3   0   34.68   43.41
   9  -3   0   30.86   18.65
  -9   3   0    4.47   19.44
   9  -3   1  135.26   28.54
   9  -3   1  101.40   27.70
  -9   3  -1   48.91   18.68
   9  -3   2  139.45   30.61
   9  -3   2   85.22   15.31
   9  -3   3  232.43   54.47
   9  -2  -6  323.35   25.19
   9  -2  -6  280.57   35.32
  -9   2   6  376.16   56.68
   9  -2  -5   27.63   33.63
   9  -2  -5  -14.62   27.70
  -9   2   5    2.47   46.52
   9  -2  -4   94.81   21.82
   9  -2  -4   74.95   25.80
  -9   2   4   57.85   26.90
   9  -2  -3   44.80   35.01
   9  -2  -3   -4.62   23.80
  -9   2   3   46.91   24.38
   9  -2  -2   12.02   22.12
   9  -2  -2   23.52   21.51
  -9   2   2   36.32   21.95
   9  -2  -1   60.55   36.64
   9  -2  -1   29.20   30.90
  -9   2   1   20.95   20.37
   9  -2   0  100.71   24.39
   9  -2   0   55.44   18.39
  -9   2   0   99.61   30.75
   9  -2   1   21.82   25.35
   9  -2   1   41.85   24.21
  -9   2  -1    2.71   25.72
   9  -2   2  238.22   29.66
   9  -2   2  192.50   14.36
  -9   2  -2  232.93   26.31
   9  -2   3   54.54   27.32
   9  -2   4  108.64   48.38
   9  -2   5   65.75   31.41
  -9   2  -5   61.77   31.82
   9  -1  -7   90.40   35.35
  -9   1   7   81.95   34.18
   9  -1  -6  210.48   19.05
   9  -1  -6  223.47   32.88
  -9   1   6  292.92   33.19
   9  -1  -5  381.85   32.45
   9  -1  -5  385.76   32.51
  -9   1   5  340.31   32.51
   9  -1  -4   25.40   17.77
   9  -1  -4   44.50   25.24
  -9   1   4   46.77   25.45
   9  -1  -3   89.05   18.99
   9  -1  -3   77.38   23.98
  -9   1   3   83.56   39.47
   9  -1  -2  224.87   21.41
   9  -1  -2  255.17   23.84
   9  -1  -1   -2.32   32.18
   9  -1  -1   16.39   29.90
  -9   1   1   -4.66   18.83
   9  -1   0  104.03   22.49
   9  -1   0  110.02   17.00
  -9   1   0   90.82   18.53
   9  -1   1 2146.21   76.95
  -9   1  -1 2105.28   56.50
   9  -1   2   21.43   23.42
  -9   1  -2   41.20   13.05
   9  -1   3 1014.62   39.93
  -9   1  -3 1084.86   40.83
   9  -1   4  110.52   29.40
  -9   1  -4  133.24   45.85
  -9   1  -5  893.79   42.25
  -9   1  -6  121.84   32.60
   9   0  -7   49.29   32.56
  -9   0   7   26.61   31.20
   9   0  -6   35.99   30.04
  -9   0   6   46.16   29.12
   9   0  -5   95.46   22.67
   9   0  -5   82.04   27.40
  -9   0   5   62.84   28.09
   9   0  -4   11.74   14.36
   9   0  -4    8.79   24.01
  -9   0   4    4.23   24.64
   9   0  -3   36.29   25.24
   9   0  -3    5.89   22.21
  -9   0   3   79.88   22.62
   9   0  -2  360.71   20.60
   9   0  -2  389.85   23.97
  -9   0   2  337.46   24.91
   9   0  -1   -0.73   29.89
  -9   0   1   31.13   29.88
   9   0   0 1294.30   34.67
  -9   0   0 1327.08   32.09
   9   0   1    7.97   32.34
  -9   0  -1   55.87   23.77
   9   0   2 2014.82   51.01
  -9   0  -2 2027.31   49.43
  -9   0  -2 1937.46   46.19
  -9   0  -3  609.66   30.82
  -9   0  -3  560.30   15.85
  -9   0  -4 3620.64  116.98
  -9   0  -5 2187.43   62.50
  -9   0  -6   65.30   30.37
  -9   0  -7  106.22   53.93
  -9  -1   8   79.35   35.32
  -9  -1   7 1254.46   51.62
  -9  -1   6  155.26   31.07
   9   1  -5  597.14   22.51
  -9  -1   5  751.77   36.37
   9   1  -4  419.76   14.77
  -9  -1   4  500.08   47.53
   9   1  -3  751.70   19.47
  -9  -1   3  817.63   50.36
   9   1  -2   67.91   22.75
  -9  -1   2  135.09   34.20
   9   1  -1 1310.81   29.96
  -9  -1   1 1341.63   34.49
   9   1   0   58.47   17.55
  -9  -1   0   62.05   16.39
  -9  -1  -1  811.68   26.89
  -9  -1  -1  762.78   32.77
  -9  -1  -2  680.67   27.69
  -9  -1  -2  668.77   19.32
  -9  -1  -3  726.29   30.03
  -9  -1  -3  692.18   16.84
  -9  -1  -4   -3.37   37.91
  -9  -1  -5   65.03   25.69
  -9  -1  -6  597.77   36.21
  -9  -1  -7  159.94   53.30
  -9  -1  -8   -8.44   33.11
  -9  -2   8  415.35   40.44
  -9  -2   7  211.15   34.28
  -9  -2   6 2682.06   74.35
  -9  -2   5 1045.69   65.39
  -9  -2   4 1025.70   39.60
  -9  -2   3   75.78   23.60
  -9  -2   2  158.55   22.35
  -9  -2   1   -3.54   18.40
  -9  -2   0  807.75   22.65
  -9  -2   0  806.76   25.36
  -9  -2  -1   25.50   15.68
  -9  -2  -1   37.96   23.81
  -9  -2  -2   38.34   17.88
  -9  -2  -2   52.52   12.86
  -9  -2  -2   45.29   12.56
  -9  -2  -3   87.18   20.25
  -9  -2  -3   86.53   18.56
  -9  -2  -3   96.96   18.20
  -9  -2  -4  596.30   44.49
  -9  -2  -4  478.75   13.12
  -9  -2  -5   32.00   24.70
  -9  -2  -6  512.09   33.71
  -9  -2  -7   95.55   51.54
  -9  -2  -8   57.26   33.60
  -9  -3   8   -6.50   34.06
  -9  -3   7 1032.44   49.55
  -9  -3   6  407.77   35.57
  -9  -3   5 1278.12   45.83
  -9  -3   4   35.91   25.46
  -9  -3   3  529.12   30.10
  -9  -3   2  257.94   38.12
  -9  -3   1  165.12   33.25
  -9  -3   0   49.62   12.95
  -9  -3   0   59.42   27.79
  -9  -3   0   23.41   17.13
  -9  -3  -1   66.06   14.99
  -9  -3  -1   40.31   24.63
  -9  -3  -1   42.04   15.24
  -9  -3  -2 2420.79   47.07
  -9  -3  -2 2330.94   54.44
  -9  -3  -2 2254.05   41.18
  -9  -3  -3   53.68   18.91
  -9  -3  -3   45.00   12.37
  -9  -3  -3   39.30   11.94
  -9  -3  -4  217.47   38.09
  -9  -3  -4  225.99   19.17
  -9  -3  -4  204.32   11.76
  -9  -3  -5    3.22   23.92
  -9  -3  -6 1143.31   66.31
  -9  -3  -7   15.95   48.10
  -9  -3  -8   63.06   33.01
  -9  -4   8   79.36   57.18
  -9  -4   7    3.79   32.48
  -9  -4   6   48.94   49.49
  -9  -4   5  184.38   31.33
  -9  -4   4  612.22   34.60
  -9  -4   3  785.45   53.35
  -9  -4   2   54.27   23.63
  -9  -4   2   42.59   23.31
  -9  -4   1   55.59   10.06
  -9  -4   1   37.38   21.49
  -9  -4   1   40.02   33.72
  -9  -4   0   20.53   11.74
  -9  -4   0   38.16   19.24
  -9  -4   0   22.94   18.21
  -9  -4  -1 1243.83   36.91
  -9  -4  -1 1196.17   31.35
  -9  -4  -1 1187.80   30.56
  -9  -4  -2  411.16   30.38
  -9  -4  -2  330.83   19.44
  -9  -4  -2  385.39   28.43
  -9  -4  -3  439.04   22.26
  -9  -4  -3  409.55   18.23
  -9  -4  -3  441.66   17.03
  -9  -4  -4 1039.34   32.90
  -9  -4  -4  939.09   22.28
  -9  -4  -4  968.93   30.02
  -9  -4  -5   41.57   23.09
  -9  -4  -5  -20.67   16.86
  -9  -4  -5   -2.06   10.35
  -9  -4  -6  537.64   52.56
  -9  -4  -7  919.34   67.19
  -9  -4  -8   66.14   31.72
  -9  -5   7    9.37   33.36
  -9  -5   6  391.84   36.51
  -9  -5   6  399.34   38.99
  -9  -5   5   59.68   30.42
  -9  -5   5   -3.75   30.24
  -9  -5   4   28.76   29.14
  -9  -5   4   16.36   28.47
  -9  -5   3  211.54   46.79
  -9  -5   3  236.38   46.33
  -9  -5   2  589.17   32.45
  -9  -5   2  640.30   31.61
  -9  -5   1 1181.07   38.12
  -9  -5   1 1204.95   37.38
  -9  -5   0  424.35   40.21
  -9  -5   0  405.21   39.05
  -9  -5  -1  486.62   28.60
  -9  -5  -1  564.06   24.81
  -9  -5  -1  531.55   24.24
  -9  -5  -2 1092.37   38.77
  -9  -5  -2 1026.63   28.95
  -9  -5  -2  998.31   40.78
  -9  -5  -3 1458.70   49.97
  -9  -5  -3 1388.35   32.27
  -9  -5  -3 1386.73   31.30
  -9  -5  -4  277.72   22.48
  -9  -5  -4  250.27   17.01
  -9  -5  -4  233.14   24.59
  -9  -5  -5  690.41   32.05
  -9  -5  -5  674.04   20.21
  -9  -5  -5  689.67   29.12
  -9  -5  -6   68.43   43.76
  -9  -5  -7   24.58   45.47
  -9  -5  -8  668.64   65.50
  -9  -6   7 1173.26   58.14
  -9  -6   7 1135.17   55.27
  -9  -6   6   18.07   34.74
  -9  -6   6   48.60   34.26
  -9  -6   5   44.04   31.70
  -9  -6   5   45.37   31.38
  -9  -6   4  149.45   30.81
  -9  -6   4   95.01   30.83
  -9  -6   3  154.81   49.65
  -9  -6   3  210.19   29.83
  -9  -6   2 1243.22   43.52
  -9  -6   2 1139.18   42.08
  -9  -6   1  798.52   55.86
  -9  -6   1  837.69   34.08
  -9  -6   0  563.03   23.81
  -9  -6   0  562.12   30.20
  -9  -6   0  509.23   43.75
  -9  -6  -1  134.05   14.17
  -9  -6  -1  146.06   22.33
  -9  -6  -1  111.93   33.97
  -9  -6  -2   87.46   16.29
  -9  -6  -2   66.45   19.92
  -9  -6  -2  173.41   31.82
  -9  -6  -3  344.62   32.63
  -9  -6  -3  354.65   33.59
  -9  -6  -3  366.41   32.59
  -9  -6  -4 1100.85   33.09
  -9  -6  -4 1051.19   41.83
  -9  -6  -4 1011.01   27.54
  -9  -6  -5  149.81   24.01
  -9  -6  -5  241.72   28.05
  -9  -6  -5  169.42   16.79
  -9  -6  -6  418.92   30.04
  -9  -6  -6  319.41   28.01
  -9  -6  -6  322.70   26.88
  -9  -6  -7  431.07   55.84
  -9  -7   6   62.66   35.65
  -9  -7   6   59.87   35.48
  -9  -7   5  917.70   73.19
  -9  -7   5  823.13   47.97
  -9  -7   4   37.16   32.85
  -9  -7   4   45.04   51.32
  -9  -7   3  487.78   59.07
  -9  -7   3  472.17   35.73
  -9  -7   2  685.26   37.72
  -9  -7   2  615.99   35.13
  -9  -7   1   80.29   27.60
  -9  -7   1   88.20   25.86
  -9  -7   0   50.02   11.18
  -9  -7   0   63.63   25.14
  -9  -7   0  103.86   38.99
  -9  -7  -1   20.36   13.55
  -9  -7  -1   30.20   23.79
  -9  -7  -1    9.28   35.12
  -9  -7  -2  383.60   19.98
  -9  -7  -2  436.11   41.21
  -9  -7  -2  402.62   39.68
  -9  -7  -3   76.10   29.33
  -9  -7  -3   63.36   19.86
  -9  -7  -3   51.28   32.03
  -9  -7  -4   99.54   21.64
  -9  -7  -4  132.84   19.87
  -9  -7  -4  111.33   19.79
  -9  -7  -5  -17.68   22.81
  -9  -7  -5   37.27   17.61
  -9  -7  -5   41.51   17.87
  -9  -7  -6   38.39   26.18
  -9  -7  -6   43.08   16.32
  -9  -7  -7   35.57   29.91
  -9  -8   5  191.63   39.45
  -9  -8   5  327.42   39.69
  -9  -8   4  290.96   39.06
  -9  -8   4  267.73   59.86
  -9  -8   3   49.08   33.90
  -9  -8   3  128.96   31.16
  -9  -8   2  122.16   51.10
  -9  -8   2   38.93   29.35
  -9  -8   1  225.11   32.62
  -9  -8   1  226.24   30.25
  -9  -8   0   27.88   44.59
  -9  -8   0   14.45   41.07
  -9  -8  -1 1495.01   44.08
  -9  -8  -1 1715.95   50.20
  -9  -8  -1 1579.01   47.24
  -9  -8  -2   16.42   16.96
  -9  -8  -2   -9.36   24.57
  -9  -8  -2   23.35   22.68
  -9  -8  -3  249.94   31.40
  -9  -8  -3  176.42   23.74
  -9  -8  -4  960.16   34.01
  -9  -8  -5   14.80   32.94
  -9  -8  -6  864.80   30.85
  -9  -9   3  164.73   37.71
  -9  -9   3  188.65   35.97
  -9  -9   2   53.47   32.71
  -9  -9   2   23.90   30.90
  -9  -9   1   50.54   30.71
  -9  -9   1   50.41   29.24
  -9  -9   0  587.33   38.19
  -9  -9  -1   -6.99   26.09
  -9  -9  -2  397.05   31.51
  -9  -9  -3   50.35   25.06
  -9  -9  -4  107.87   25.23
  10  -2   0   83.08   19.25
  10  -1  -3 1508.61   58.93
  10  -1  -3 1475.45   46.65
 -10   1   3 1501.04   47.60
  10  -1  -2   41.20   21.37
  10  -1  -2  -22.71   22.20
 -10   1   2  -14.54   37.20
  10  -1  -1 1887.10   49.44
  10  -1  -1 1807.52   45.25
 -10   1   1 1744.26   46.05
  10  -1   0  635.00   31.52
 -10   1   0  607.93   40.36
  10  -1   1   84.15   24.78
 -10   1  -1   69.58   18.02
  10  -1   2  199.62   28.69
  10  -1   3   48.07   29.15
  10   0  -5   81.21   29.49
 -10   0   5   81.18   29.82
  10   0  -4  758.36   25.99
 -10   0   4  833.26   38.78
  10   0  -3   91.32   29.01
 -10   0   3  121.46   26.26
  10   0  -2  842.40   28.14
 -10   0   2  880.44   33.49
  10   0  -1   34.70   18.89
 -10   0   1   12.22   20.29
  10   0   0  217.72   23.20
 -10   0   0  194.77   20.41
  10   0   1  333.53   26.31
 -10   0  -1  273.00   30.56
 -10   0  -2  309.27   27.37
 -10   0  -3  541.74   33.37
 -10   0  -4  -13.38   44.74
 -10  -1   5  611.74   59.47
 -10  -1   4   69.96   26.69
  10   1  -3  186.70   16.51
 -10  -1   3  250.94   42.45
 -10  -1   2  111.83   37.65
 -10  -1   1  430.40   25.29
 -10  -1   0   18.28   17.81
 -10  -1  -1   97.43   26.68
 -10  -1  -2  466.14   27.28
 -10  -1  -2  441.88   18.53
 -10  -1  -2  429.77   18.24
 -10  -1  -3  353.48   28.57
 -10  -1  -4  387.05   49.76
 -10  -1  -5  877.18   41.66
 -10  -2   6  140.08   53.12
 -10  -2   5  248.76   32.28
 -10  -2   4  417.26   32.97
 -10  -2   3  395.38   29.19
 -10  -2   2   59.24   22.18
 -10  -2   1   -2.36   19.76
 -10  -2   0  374.86   21.86
 -10  -2  -1  157.33   19.28
 -10  -2  -1  192.21   28.00
 -10  -2  -1  155.95   17.25
 -10  -2  -2    2.14   19.29
 -10  -2  -2   -0.16   14.06
 -10  -2  -2    7.46   13.90
 -10  -2  -3  141.83   22.97
 -10  -2  -3  111.18   13.29
 -10  -2  -3   99.71   12.89
 -10  -2  -4   13.73   39.72
 -10  -2  -5  161.90   28.38
 -10  -2  -6  818.37   41.30
 -10  -3   6  138.38   55.66
 -10  -3   5   89.82   30.44
 -10  -3   4  229.63   30.35
 -10  -3   3 2661.70   67.72
 -10  -3   2  676.45   32.24
 -10  -3   1  641.87   43.68
 -10  -3   0   30.78   29.86
 -10  -3   0   19.08   18.37
 -10  -3  -1  852.36   25.27
 -10  -3  -1  801.44   26.31
 -10  -3  -1  821.42   25.86
 -10  -3  -2  315.16   21.42
 -10  -3  -2  328.31   18.22
 -10  -3  -2  357.16   28.06
 -10  -3  -3  532.44   25.49
 -10  -3  -3  466.63   26.88
 -10  -3  -3  437.40   17.22
 -10  -3  -4  122.68   38.12
 -10  -3  -5  304.00   30.44
 -10  -3  -6  199.44   30.93
 -10  -4   6   12.86   52.34
 -10  -4   5   94.47   30.97
 -10  -4   4    7.49   28.11
 -10  -4   3   37.22   42.23
 -10  -4   3   13.91   27.05
 -10  -4   2   84.59   25.13
 -10  -4   2  108.95   25.54
 -10  -4   1  398.71   26.76
 -10  -4   1  383.50   26.86
 -10  -4   0  172.50   23.89
 -10  -4   0  231.94   22.02
 -10  -4   0  282.66   34.60
 -10  -4  -1   33.48   15.15
 -10  -4  -1    6.11   17.83
 -10  -4  -1   30.33   17.77
 -10  -4  -2   44.13   17.13
 -10  -4  -2   74.12   16.45
 -10  -4  -2   46.38   26.28
 -10  -4  -3  931.54   30.59
 -10  -4  -3  909.34   34.88
 -10  -4  -3  905.64   24.20
 -10  -4  -4   40.06   34.52
 -10  -4  -4   38.95   13.20
 -10  -4  -4   25.19   19.76
 -10  -4  -5  308.38   29.31
 -10  -4  -6   32.58   28.40
 -10  -5   5  277.48   36.67
 -10  -5   5  339.48   37.63
 -10  -5   4  245.26   33.54
 -10  -5   4  287.32   34.72
 -10  -5   3  360.30   54.60
 -10  -5   3  369.42   32.24
 -10  -5   2   70.71   27.74
 -10  -5   2   59.62   25.79
 -10  -5   1  118.22   25.70
 -10  -5   1  127.72   24.79
 -10  -5   0  110.96   21.40
 -10  -5   0  186.22   24.47
 -10  -5   0  162.73   36.17
 -10  -5  -1   80.35   14.82
 -10  -5  -1   81.63   20.67
 -10  -5  -1   84.10   32.51
 -10  -5  -2  178.46   18.29
 -10  -5  -2  180.57   32.66
 -10  -5  -2  184.59   30.46
 -10  -5  -3   85.90   19.57
 -10  -5  -3   80.72   17.70
 -10  -5  -3   68.94   16.48
 -10  -5  -4 1569.57   61.90
 -10  -5  -4 1535.26   34.95
 -10  -5  -4 1468.28   44.13
 -10  -5  -5   65.52   24.81
 -10  -5  -6  176.83   30.27
 -10  -6   5  444.56   42.91
 -10  -6   5  512.08   41.20
 -10  -6   4  -13.25   32.63
 -10  -6   4  -60.75   51.23
 -10  -6   3  244.23   53.13
 -10  -6   3  227.27   32.59
 -10  -6   2   35.24   27.75
 -10  -6   2  -24.08   26.58
 -10  -6   1  773.68   37.15
 -10  -6   1  751.90   35.70
 -10  -6   0   79.45   40.35
 -10  -6   0   67.57   37.72
 -10  -6  -1   18.38   14.08
 -10  -6  -1   28.48   35.29
 -10  -6  -1  -39.42   34.26
 -10  -6  -2   57.75   17.00
 -10  -6  -2   60.38   21.04
 -10  -6  -2   46.51   32.77
 -10  -6  -3 1645.23   41.15
 -10  -6  -3 1614.52   40.07
 -10  -6  -3 1548.26   54.77
 -10  -6  -4   -0.33   20.99
 -10  -6  -4    4.79   17.12
 -10  -6  -4  -22.30   16.35
 -10  -6  -5  947.12   40.23
 -10  -6  -5  927.86   37.53
 -10  -7   4  591.50   43.92
 -10  -7   4  689.57   69.96
 -10  -7   3  143.32   33.64
 -10  -7   3  166.78   33.20
 -10  -7   2  155.20   32.57
 -10  -7   2  193.31   30.82
 -10  -7   1  163.52   31.06
 -10  -7   1  141.68   28.35
 -10  -7   0   93.06   45.45
 -10  -7   0  102.84   41.73
 -10  -7  -1   57.06   24.29
 -10  -7  -1   24.45   23.33
 -10  -7  -2  308.68   19.95
 -10  -7  -2  323.44   26.34
 -10  -7  -2  274.31   25.18
 -10  -7  -3    8.31   18.58
 -10  -7  -3    6.47   20.89
 -10  -7  -3    4.24   19.66
 -10  -7  -4   19.22   21.01
 -10  -7  -4   31.52   19.83
 -10  -7  -4   -8.66   31.13
 -10  -7  -5  203.29   20.05
 -10  -8   2  -69.99   52.76
 -10  -8   2   18.73   30.44
 -10  -8   1  245.23   35.68
 -10  -8   1  299.22   32.75
 -10  -8   0  725.10   39.69
 -10  -8   0  664.46   57.90
 -10  -8  -1  -39.69   45.08
 -10  -8  -1   22.76   25.13
 -10  -8  -2   81.68   18.12
 -10  -8  -2  129.67   26.44
 -10  -8  -2   94.69   24.53
 -10  -8  -3  226.47   33.81
 -10  -8  -3  194.88   26.25
 -10  -8  -3  181.81   24.89
 -11  -2   2  486.48   30.94
 -11  -2   1  -11.42   21.58
 -11  -2   0  182.88   35.33
 -11  -2   0  207.98   22.14
 -11  -2  -1  126.08   19.05
 -11  -2  -1  100.17   30.19
 -11  -2  -2  748.83   32.22
 -11  -3   2  256.65   27.32
 -11  -3   1  -23.53   22.49
 -11  -3   1  -34.04   22.50
 -11  -3   0   41.88   20.20
 -11  -3   0   15.26   20.25
 -11  -3  -1   32.37   17.99
 -11  -3  -1    8.17   17.99
 -11  -3  -1   14.72   29.41
 -11  -3  -2   -1.75   19.74
 -11  -3  -2   44.98   26.73
 -11  -3  -2   36.45   16.46
 -11  -4   2  203.77   45.95
 -11  -4   2  271.11   47.73
 -11  -4   1   71.52   38.58
 -11  -4   1   31.53   23.76
 -11  -4   0  -21.43   34.25
 -11  -4   0  -26.51   21.35
 -11  -4  -1   26.62   27.24
 -11  -4  -1   79.40   31.81
 -11  -4  -1   26.30   31.09
 -11  -4  -2   27.65   30.21
 -11  -4  -2    8.44   17.45
 -11  -4  -2    1.40   17.18
 -11  -4  -3  251.28   38.22
 -11  -5   2  226.26   48.32
 -11  -5   1   -8.70   25.08
 -11  -5   1   -4.45   25.04
 -11  -5   0   59.95   23.14
 -11  -5   0   51.26   23.60
 -11  -5  -1  223.36   23.32
 -11  -5  -1  221.08   36.12
 -11  -5  -2  847.96   41.44
 -11  -5  -2  779.21   29.11
 -11  -5  -2  769.68   42.53
   0   0   0    0.00    0.00
;
_shelx_hkl_checksum              30881
loop_
_space_group_symop_operation_xyz
'x, y, z'
'-x, -y, -z'
loop_
_atom_site_label
_atom_site_type_symbol
_atom_site_fract_x
_atom_site_fract_y
_atom_site_fract_z
_atom_site_U_iso_or_equiv
_atom_site_adp_type
_atom_site_occupancy
_atom_site_site_symmetry_order
_atom_site_calc_flag
_atom_site_refinement_flags_posn
_atom_site_refinement_flags_adp
C1 C 0.5658(2) 0.62229(19) 0.72256(16) 0.0135(3) Uani 1 1 d . .
C2 C 0.5355(2) 0.6565(2) 0.84614(16) 0.0157(3) Uani 1 1 d . .
C3 C 0.4206(2) 0.7871(2) 0.87688(16) 0.0170(4) Uani 1 1 d . .
C4 C 0.3343(2) 0.8883(2) 0.78622(17) 0.0165(4) Uani 1 1 d . .
C5 C 0.3687(2) 0.85982(19) 0.66425(16) 0.0151(3) Uani 1 1 d . .
C6 C 0.48750(19) 0.73042(19) 0.62759(16) 0.0130(3) Uani 1 1 d . .
C7 C 0.54392(19) 0.71040(19) 0.49999(16) 0.0124(3) Uani 1 1 d . .
C8 C 0.4765(2) 0.8136(2) 0.39972(16) 0.0159(3) Uani 1 1 d . .
H8 H 0.3829 0.8964 0.4122 0.019 Uiso 1 1 calc R U
C9 C 0.5447(2) 0.7958(2) 0.28395(17) 0.0182(4) Uani 1 1 d . .
H9 H 0.4970 0.8658 0.2174 0.022 Uiso 1 1 calc R U
C10 C 0.6827(2) 0.6763(2) 0.26336(17) 0.0206(4) Uani 1 1 d . .
H10 H 0.7307 0.6664 0.1838 0.025 Uiso 1 1 calc R U
C11 C 0.7492(2) 0.5726(2) 0.35896(17) 0.0191(4) Uani 1 1 d . .
H11 H 0.8425 0.4902 0.3446 0.023 Uiso 1 1 calc R U
C12 C 0.6809(2) 0.58693(19) 0.47754(16) 0.0143(3) Uani 1 1 d . .
C13 C 0.7457(2) 0.46950(19) 0.57404(16) 0.0142(3) Uani 1 1 d . .
C14 C 0.8683(2) 0.3363(2) 0.55099(17) 0.0189(4) Uani 1 1 d . .
H14 H 0.9174 0.3261 0.4718 0.023 Uiso 1 1 calc R U
C15 C 0.9193(2) 0.2203(2) 0.63992(18) 0.0210(4) Uani 1 1 d . .
H15 H 1.0051 0.1322 0.6237 0.025 Uiso 1 1 calc R U
C16 C 0.8434(2) 0.2340(2) 0.75389(18) 0.0205(4) Uani 1 1 d . .
H16 H 0.8739 0.1533 0.8155 0.025 Uiso 1 1 calc R U
C17 C 0.7251(2) 0.3634(2) 0.77716(17) 0.0179(4) Uani 1 1 d . .
H17 H 0.6722 0.3712 0.8549 0.021 Uiso 1 1 calc R U
C18 C 0.9843(2) 0.7433(2) 0.90878(18) 0.0233(4) Uani 1 1 d . .
F1 F 0.61880(13) 0.57064(12) 0.94191(9) 0.0217(2) Uani 1 1 d . .
F2 F 0.39461(14) 0.81659(13) 0.99598(10) 0.0235(3) Uani 1 1 d . .
F3 F 0.22343(13) 1.01455(12) 0.81682(10) 0.0213(2) Uani 1 1 d . .
F4 F 0.28471(12) 0.96679(12) 0.58181(10) 0.0200(2) Uani 1 1 d . .
S1 S 0.89338(5) 0.79852(5) 0.75584(4) 0.01524(12) Uani 1 1 d . .
F5 F 1.13210(14) 0.64367(15) 0.90248(12) 0.0353(3) Uani 1 1 d . .
F6 F 0.89582(17) 0.68021(16) 0.98238(12) 0.0401(3) Uani 1 1 d . .
O1 O 0.89250(15) 0.65635(15) 0.71043(13) 0.0226(3) Uani 1 1 d . .
F7 F 1.00098(18) 0.86222(16) 0.96330(12) 0.0404(3) Uani 1 1 d . .
O2 O 1.00476(16) 0.86584(15) 0.69273(12) 0.0227(3) Uani 1 1 d . .
O3 O 0.73614(16) 0.89982(16) 0.78121(14) 0.0280(3) Uani 1 1 d . .
N1 N 0.68032(17) 0.48363(16) 0.69023(13) 0.0135(3) Uani 1 1 d . .
loop_
_atom_site_aniso_label
_atom_site_aniso_U_11
_atom_site_aniso_U_22
_atom_site_aniso_U_33
_atom_site_aniso_U_23
_atom_site_aniso_U_13
_atom_site_aniso_U_12
C1 0.0118(7) 0.0129(8) 0.0166(8) -0.0016(6) 0.0013(7) -0.0049(6)
C2 0.0158(8) 0.0167(8) 0.0146(8) 0.0014(6) -0.0005(7) -0.0055(7)
C3 0.0179(8) 0.0211(9) 0.0136(8) -0.0037(7) 0.0047(7) -0.0080(7)
C4 0.0128(8) 0.0153(8) 0.0209(9) -0.0041(7) 0.0046(7) -0.0033(6)
C5 0.0131(7) 0.0148(8) 0.0165(8) 0.0011(6) -0.0008(7) -0.0032(6)
C6 0.0115(7) 0.0139(8) 0.0150(8) -0.0012(6) 0.0008(6) -0.0059(6)
C7 0.0106(7) 0.0131(8) 0.0143(8) -0.0017(6) 0.0012(6) -0.0047(6)
C8 0.0143(8) 0.0152(8) 0.0175(8) -0.0014(6) -0.0008(7) -0.0032(6)
C9 0.0199(9) 0.0178(9) 0.0162(8) 0.0011(7) -0.0018(7) -0.0049(7)
C10 0.0227(9) 0.0225(9) 0.0155(8) -0.0022(7) 0.0045(7) -0.0052(8)
C11 0.0161(8) 0.0178(9) 0.0200(9) -0.0026(7) 0.0039(7) -0.0001(7)
C12 0.0123(8) 0.0142(8) 0.0165(8) -0.0015(6) -0.0005(7) -0.0042(6)
C13 0.0119(7) 0.0141(8) 0.0173(8) -0.0021(6) 0.0002(7) -0.0049(6)
C14 0.0168(8) 0.0175(9) 0.0206(9) -0.0036(7) 0.0015(7) -0.0019(7)
C15 0.0163(8) 0.0144(8) 0.0289(10) -0.0019(7) -0.0036(8) 0.0008(7)
C16 0.0218(9) 0.0160(9) 0.0225(9) 0.0031(7) -0.0062(8) -0.0048(7)
C17 0.0208(9) 0.0156(8) 0.0178(9) 0.0016(7) -0.0018(7) -0.0066(7)
C18 0.0258(10) 0.0242(10) 0.0222(9) 0.0004(8) 0.0013(8) -0.0114(8)
F1 0.0256(6) 0.0235(6) 0.0129(5) 0.0013(4) -0.0034(4) -0.0032(5)
F2 0.0282(6) 0.0276(6) 0.0133(5) -0.0052(4) 0.0052(5) -0.0056(5)
F3 0.0195(5) 0.0181(5) 0.0229(6) -0.0063(4) 0.0072(4) 0.0002(4)
F4 0.0183(5) 0.0169(5) 0.0186(5) 0.0014(4) 0.0008(4) 0.0036(4)
S1 0.0137(2) 0.0132(2) 0.0182(2) -0.00236(15) 0.00096(16) -0.00289(16)
F5 0.0244(6) 0.0367(7) 0.0396(7) 0.0110(6) -0.0108(6) -0.0039(5)
F6 0.0460(8) 0.0508(9) 0.0285(7) 0.0113(6) 0.0065(6) -0.0253(7)
O1 0.0174(6) 0.0204(7) 0.0319(7) -0.0111(6) 0.0020(6) -0.0067(5)
F7 0.0630(9) 0.0433(8) 0.0238(6) -0.0100(6) -0.0042(6) -0.0273(7)
O2 0.0255(7) 0.0234(7) 0.0217(7) 0.0005(5) 0.0024(6) -0.0116(6)
O3 0.0191(7) 0.0201(7) 0.0395(9) -0.0046(6) 0.0024(6) 0.0024(5)
N1 0.0125(6) 0.0125(7) 0.0157(7) -0.0009(5) -0.0008(6) -0.0040(5)
loop_
_atom_type_symbol
_atom_type_description
_atom_type_scat_dispersion_real
_atom_type_scat_dispersion_imag
_atom_type_scat_source
C C 0.0033 0.0016 'International Tables Vol C Tables 4.2.6.8 and 6.1.1.4'
H H 0.0000 0.0000 'International Tables Vol C Tables 4.2.6.8 and 6.1.1.4'
F F 0.0171 0.0103 'International Tables Vol C Tables 4.2.6.8 and 6.1.1.4'
N N 0.0061 0.0033 'International Tables Vol C Tables 4.2.6.8 and 6.1.1.4'
O O 0.0106 0.0060 'International Tables Vol C Tables 4.2.6.8 and 6.1.1.4'
S S 0.1246 0.1234 'International Tables Vol C Tables 4.2.6.8 and 6.1.1.4'
loop_
_geom_angle_atom_site_label_1
_geom_angle_atom_site_label_2
_geom_angle_atom_site_label_3
_geom_angle
C2 C1 C6 119.29(15)
C2 C1 N1 121.29(15)
C6 C1 N1 119.34(15)
F1 C2 C3 115.18(15)
F1 C2 C1 123.70(15)
C3 C2 C1 121.06(16)
F2 C3 C2 119.60(15)
F2 C3 C4 119.93(16)
C2 C3 C4 120.45(16)
F3 C4 C3 120.04(16)
F3 C4 C5 120.83(16)
C3 C4 C5 119.07(16)
F4 C5 C4 115.45(15)
F4 C5 C6 121.65(15)
C4 C5 C6 122.87(16)
C5 C6 C1 116.88(15)
C5 C6 C7 123.32(15)
C1 C6 C7 119.50(15)
C12 C7 C8 118.08(16)
C12 C7 C6 118.07(15)
C8 C7 C6 123.67(15)
C9 C8 C7 120.82(16)
C9 C8 H8 119.6
C7 C8 H8 119.6
C8 C9 C10 120.75(16)
C8 C9 H9 119.6
C10 C9 H9 119.6
C11 C10 C9 119.60(17)
C11 C10 H10 120.2
C9 C10 H10 120.2
C10 C11 C12 120.82(16)
C10 C11 H11 119.6
C12 C11 H11 119.6
C11 C12 C7 119.88(15)
C11 C12 C13 119.55(15)
C7 C12 C13 120.46(16)
N1 C13 C14 118.10(15)
N1 C13 C12 119.78(15)
C14 C13 C12 122.02(16)
C15 C14 C13 121.68(17)
C15 C14 H14 119.2
C13 C14 H14 119.2
C14 C15 C16 118.81(17)
C14 C15 H15 120.6
C16 C15 H15 120.6
C17 C16 C15 119.76(17)
C17 C16 H16 120.1
C15 C16 H16 120.1
C16 C17 N1 121.42(17)
C16 C17 H17 119.3
N1 C17 H17 119.3
F6 C18 F7 107.83(17)
F6 C18 F5 107.42(16)
F7 C18 F5 107.05(16)
F6 C18 S1 111.89(14)
F7 C18 S1 111.10(13)
F5 C18 S1 111.32(14)
O3 S1 O2 115.89(9)
O3 S1 O1 114.90(8)
O2 S1 O1 114.29(8)
O3 S1 C18 103.35(9)
O2 S1 C18 103.02(8)
O1 S1 C18 102.90(9)
C13 N1 C17 119.94(15)
C13 N1 C1 120.59(14)
C17 N1 C1 119.46(15)
loop_
_geom_bond_atom_site_label_1
_geom_bond_atom_site_label_2
_geom_bond_distance
C1 C2 1.401(2)
C1 C6 1.418(2)
C1 N1 1.432(2)
C2 F1 1.3443(19)
C2 C3 1.375(2)
C3 F2 1.340(2)
C3 C4 1.376(2)
C4 F3 1.3317(19)
C4 C5 1.377(2)
C5 F4 1.3376(19)
C5 C6 1.404(2)
C6 C7 1.466(2)
C7 C12 1.411(2)
C7 C8 1.412(2)
C8 C9 1.378(3)
C8 H8 0.9500
C9 C10 1.392(3)
C9 H9 0.9500
C10 C11 1.376(2)
C10 H10 0.9500
C11 C12 1.405(2)
C11 H11 0.9500
C12 C13 1.452(2)
C13 N1 1.372(2)
C13 C14 1.402(2)
C14 C15 1.373(3)
C14 H14 0.9500
C15 C16 1.386(3)
C15 H15 0.9500
C16 C17 1.361(3)
C16 H16 0.9500
C17 N1 1.381(2)
C17 H17 0.9500
C18 F6 1.329(2)
C18 F7 1.335(2)
C18 F5 1.339(2)
C18 S1 1.823(2)
S1 O3 1.4377(13)
S1 O2 1.4438(14)
S1 O1 1.4451(14)
loop_
_geom_torsion_atom_site_label_1
_geom_torsion_atom_site_label_2
_geom_torsion_atom_site_label_3
_geom_torsion_atom_site_label_4
_geom_torsion
C6 C1 C2 F1 -170.99(15)
N1 C1 C2 F1 5.8(3)
C6 C1 C2 C3 5.9(3)
N1 C1 C2 C3 -177.35(16)
F1 C2 C3 F2 -2.8(2)
C1 C2 C3 F2 -179.92(16)
F1 C2 C3 C4 176.20(16)
C1 C2 C3 C4 -0.9(3)
F2 C3 C4 F3 -0.9(3)
C2 C3 C4 F3 -179.90(16)
F2 C3 C4 C5 176.58(16)
C2 C3 C4 C5 -2.4(3)
F3 C4 C5 F4 0.4(2)
C3 C4 C5 F4 -177.09(15)
F3 C4 C5 C6 178.22(16)
C3 C4 C5 C6 0.8(3)
F4 C5 C6 C1 -178.22(15)
C4 C5 C6 C1 4.1(3)
F4 C5 C6 C7 8.1(3)
C4 C5 C6 C7 -169.62(16)
C2 C1 C6 C5 -7.2(2)
N1 C1 C6 C5 175.93(15)
C2 C1 C6 C7 166.72(16)
N1 C1 C6 C7 -10.1(2)
C5 C6 C7 C12 170.28(16)
C1 C6 C7 C12 -3.2(2)
C5 C6 C7 C8 -4.9(3)
C1 C6 C7 C8 -178.41(16)
C12 C7 C8 C9 -1.3(3)
C6 C7 C8 C9 173.82(16)
C7 C8 C9 C10 -0.6(3)
C8 C9 C10 C11 1.7(3)
C9 C10 C11 C12 -0.9(3)
C10 C11 C12 C7 -1.1(3)
C10 C11 C12 C13 175.11(17)
C8 C7 C12 C11 2.2(2)
C6 C7 C12 C11 -173.27(16)
C8 C7 C12 C13 -174.00(15)
C6 C7 C12 C13 10.6(2)
C11 C12 C13 N1 179.43(16)
C7 C12 C13 N1 -4.4(2)
C11 C12 C13 C14 -4.3(3)
C7 C12 C13 C14 171.88(16)
N1 C13 C14 C15 2.0(3)
C12 C13 C14 C15 -174.29(16)
C13 C14 C15 C16 2.1(3)
C14 C15 C16 C17 -2.6(3)
C15 C16 C17 N1 -1.2(3)
F6 C18 S1 O3 57.91(16)
F7 C18 S1 O3 -62.67(16)
F5 C18 S1 O3 178.12(13)
F6 C18 S1 O2 178.94(14)
F7 C18 S1 O2 58.36(16)
F5 C18 S1 O2 -60.85(15)
F6 C18 S1 O1 -61.98(16)
F7 C18 S1 O1 177.44(14)
F5 C18 S1 O1 58.23(15)
C14 C13 N1 C17 -5.8(2)
C12 C13 N1 C17 170.62(15)
C14 C13 N1 C1 174.12(15)
C12 C13 N1 C1 -9.5(2)
C16 C17 N1 C13 5.5(3)
C16 C17 N1 C1 -174.39(16)
C2 C1 N1 C13 -160.04(16)
C6 C1 N1 C13 16.7(2)
C2 C1 N1 C17 19.9(2)
C6 C1 N1 C17 -163.33(15)
